MODEL 1
REMARK VINA RESULT:      -6.5      0.000      0.000
REMARK SMILES O=C(O)CCc1ccccc1
REMARK SMILES IDX 4 1 2 2 1 3 3 4 5 6 6 7 7 8 11 9 8 10 10 11 9 12
REMARK H PARENT 3 5
REMARK Flexibility Score: inf
ROOT
ATOM      1  C   UNL     1       8.310  -0.685  -2.168  1.00  0.00     0.127 C 
ENDROOT
BRANCH   1   2
ATOM      2  C   UNL     1       8.433  -1.949  -2.930  1.00  0.00     0.303 C 
ATOM      3  O   UNL     1       9.548  -2.500  -3.103  1.00  0.00    -0.252 OA
BRANCH   2   4
ATOM      4  O   UNL     1       7.315  -2.561  -3.476  1.00  0.00    -0.481 OA
ATOM      5  H   UNL     1       6.769  -3.209  -2.902  1.00  0.00     0.296 HD
ENDBRANCH   2   4
ENDBRANCH   1   2
BRANCH   1   6
ATOM      6  C   UNL     1       6.884  -0.534  -1.733  1.00  0.00     0.047 C 
BRANCH   6   7
ATOM      7  C   UNL     1       6.681  -0.699  -0.294  1.00  0.00    -0.047 A 
ATOM      8  C   UNL     1       7.286  -1.729   0.388  1.00  0.00     0.004 A 
ATOM      9  C   UNL     1       5.875   0.192   0.376  1.00  0.00     0.004 A 
ATOM     10  C   UNL     1       7.048  -1.825   1.761  1.00  0.00     0.000 A 
ATOM     11  C   UNL     1       5.640   0.095   1.734  1.00  0.00     0.000 A 
ATOM     12  C   UNL     1       6.243  -0.935   2.424  1.00  0.00     0.000 A 
ENDBRANCH   6   7
ENDBRANCH   1   6
TORSDOF 4
ENDMDL
MODEL 2
REMARK VINA RESULT:      -6.3      3.199      4.945
REMARK SMILES O=C(O)CCc1ccccc1
REMARK SMILES IDX 4 1 2 2 1 3 3 4 5 6 6 7 7 8 11 9 8 10 10 11 9 12
REMARK H PARENT 3 5
REMARK Flexibility Score: inf
ROOT
ATOM      1  C   UNL     1       5.915  -0.893   1.757  1.00  0.00     0.127 C 
ENDROOT
BRANCH   1   2
ATOM      2  C   UNL     1       5.365   0.452   2.045  1.00  0.00     0.303 C 
ATOM      3  O   UNL     1       4.194   0.598   2.474  1.00  0.00    -0.252 OA
BRANCH   2   4
ATOM      4  O   UNL     1       6.131   1.590   1.848  1.00  0.00    -0.481 OA
ATOM      5  H   UNL     1       6.399   1.855   0.896  1.00  0.00     0.296 HD
ENDBRANCH   2   4
ENDBRANCH   1   2
BRANCH   1   6
ATOM      6  C   UNL     1       7.382  -0.754   1.486  1.00  0.00     0.047 C 
BRANCH   6   7
ATOM      7  C   UNL     1       7.717  -0.650   0.067  1.00  0.00    -0.047 A 
ATOM      8  C   UNL     1       8.865  -0.010  -0.340  1.00  0.00     0.004 A 
ATOM      9  C   UNL     1       6.870  -1.203  -0.865  1.00  0.00     0.004 A 
ATOM     10  C   UNL     1       9.122   0.051  -1.711  1.00  0.00     0.000 A 
ATOM     11  C   UNL     1       7.126  -1.142  -2.221  1.00  0.00     0.000 A 
ATOM     12  C   UNL     1       8.273  -0.502  -2.637  1.00  0.00     0.000 A 
ENDBRANCH   6   7
ENDBRANCH   1   6
TORSDOF 4
ENDMDL
MODEL 3
REMARK VINA RESULT:      -6.1      3.463      5.106
REMARK SMILES O=C(O)CCc1ccccc1
REMARK SMILES IDX 4 1 2 2 1 3 3 4 5 6 6 7 7 8 11 9 8 10 10 11 9 12
REMARK H PARENT 3 5
REMARK Flexibility Score: inf
ROOT
ATOM      1  C   UNL     1       5.065  -0.122   2.024  1.00  0.00     0.127 C 
ENDROOT
BRANCH   1   2
ATOM      2  C   UNL     1       4.384   1.193   1.966  1.00  0.00     0.303 C 
ATOM      3  O   UNL     1       4.894   2.164   1.354  1.00  0.00    -0.252 OA
BRANCH   2   4
ATOM      4  O   UNL     1       3.161   1.387   2.588  1.00  0.00    -0.481 OA
ATOM      5  H   UNL     1       2.444   1.947   2.119  1.00  0.00     0.296 HD
ENDBRANCH   2   4
ENDBRANCH   1   2
BRANCH   1   6
ATOM      6  C   UNL     1       6.517   0.087   1.717  1.00  0.00     0.047 C 
BRANCH   6   7
ATOM      7  C   UNL     1       7.006  -0.705   0.590  1.00  0.00    -0.047 A 
ATOM      8  C   UNL     1       6.640  -0.395  -0.699  1.00  0.00     0.004 A 
ATOM      9  C   UNL     1       7.843  -1.770   0.831  1.00  0.00     0.004 A 
ATOM     10  C   UNL     1       7.145  -1.194  -1.727  1.00  0.00     0.000 A 
ATOM     11  C   UNL     1       8.342  -2.559  -0.187  1.00  0.00     0.000 A 
ATOM     12  C   UNL     1       7.979  -2.256  -1.481  1.00  0.00     0.000 A 
ENDBRANCH   6   7
ENDBRANCH   1   6
TORSDOF 4
ENDMDL
