@<TRIPOS>MOLECULE
/home/cewinharhar/GITHUB/reincatalyze/data/processed/docking_pred/2023-May-05-1615_maxeplen10_maxtrainstep1000_seadep16_gamma099_lrac9e-4_lrcr1e-3/e72dfb9ce69b60d9dd63e32278a4acfac8a78322_ligand_2.pdbqt
 12 12 0 0 0
SMALL
GASTEIGER

@<TRIPOS>ATOM
      1  C          5.0650   -0.1220    2.0240 C.3     1  UNL1        0.1270
      2  C          4.3840    1.1930    1.9660 C.2     1  UNL1        0.3030
      3  O          4.8940    2.1640    1.3540 O.2     1  UNL1       -0.2520
      4  O          3.1610    1.3870    2.5880 O.3     1  UNL1       -0.4810
      5  H          2.4440    1.9470    2.1190 H       1  UNL1        0.2960
      6  C          6.5170    0.0870    1.7170 C.3     1  UNL1        0.0470
      7  C          7.0060   -0.7050    0.5900 C.2     1  UNL1       -0.0470
      8  C          6.6400   -0.3950   -0.6990 C.2     1  UNL1        0.0040
      9  C          7.8430   -1.7700    0.8310 C.2     1  UNL1        0.0040
     10  C          7.1450   -1.1940   -1.7270 C.2     1  UNL1        0.0000
     11  C          8.3420   -2.5590   -0.1870 C.2     1  UNL1        0.0000
     12  C          7.9790   -2.2560   -1.4810 C.2     1  UNL1        0.0000
@<TRIPOS>BOND
     1    10    12    2
     2    10     8    1
     3    12    11    1
     4     8     7    2
     5    11     9    2
     6     7     9    1
     7     7     6    1
     8     3     2    2
     9     6     1    1
    10     2     1    1
    11     2     4    1
    12     5     4    1
