@<TRIPOS>MOLECULE
/home/cewinharhar/GITHUB/reincatalyze/data/processed/docking_pred/2023-May-05-1615_maxeplen10_maxtrainstep1000_seadep16_gamma099_lrac9e-4_lrcr1e-3/e72dfb9ce69b60d9dd63e32278a4acfac8a78322_ligand_2.pdbqt
 12 12 0 0 0
SMALL
GASTEIGER

@<TRIPOS>ATOM
      1  C          8.3100   -0.6850   -2.1680 C.3     1  UNL1        0.1270
      2  C          8.4330   -1.9490   -2.9300 C.2     1  UNL1        0.3030
      3  O          9.5480   -2.5000   -3.1030 O.2     1  UNL1       -0.2520
      4  O          7.3150   -2.5610   -3.4760 O.3     1  UNL1       -0.4810
      5  H          6.7690   -3.2090   -2.9020 H       1  UNL1        0.2960
      6  C          6.8840   -0.5340   -1.7330 C.3     1  UNL1        0.0470
      7  C          6.6810   -0.6990   -0.2940 C.2     1  UNL1       -0.0470
      8  C          7.2860   -1.7290    0.3880 C.2     1  UNL1        0.0040
      9  C          5.8750    0.1920    0.3760 C.2     1  UNL1        0.0040
     10  C          7.0480   -1.8250    1.7610 C.2     1  UNL1        0.0000
     11  C          5.6400    0.0950    1.7340 C.2     1  UNL1        0.0000
     12  C          6.2430   -0.9350    2.4240 C.2     1  UNL1        0.0000
@<TRIPOS>BOND
     1     4     2    1
     2     4     5    1
     3     3     2    2
     4     2     1    1
     5     1     6    1
     6     6     7    1
     7     7     9    2
     8     7     8    1
     9     9    11    1
    10     8    10    2
    11    11    12    2
    12    10    12    1
