@<TRIPOS>MOLECULE
/home/cewinharhar/GITHUB/reincatalyze/data/processed/docking_pred/2023-May-05-1615_maxeplen10_maxtrainstep1000_seadep16_gamma099_lrac9e-4_lrcr1e-3/e8fc6854485d68a8d0bf78bf523603f1a9cbeca9_ligand_2.pdbqt
 12 12 0 0 0
SMALL
GASTEIGER

@<TRIPOS>ATOM
      1  C          8.4350   -0.6390   -2.1330 C.3     1  UNL1        0.1270
      2  C          8.4720   -1.9020   -2.9070 C.2     1  UNL1        0.3030
      3  O          9.5500   -2.5200   -3.0920 O.2     1  UNL1       -0.2520
      4  O          7.3150   -2.4370   -3.4500 O.3     1  UNL1       -0.4810
      5  H          7.0890   -3.4200   -3.2770 H       1  UNL1        0.2960
      6  C          7.0240   -0.1360   -2.1210 C.3     1  UNL1        0.0470
      7  C          6.4720    0.0530   -0.7800 C.2     1  UNL1       -0.0470
      8  C          5.8350    1.2240   -0.4400 C.2     1  UNL1        0.0040
      9  C          6.5940   -0.9580    0.1440 C.2     1  UNL1        0.0040
     10  C          5.3310    1.3340    0.8580 C.2     1  UNL1        0.0000
     11  C          6.0950   -0.8470    1.4270 C.2     1  UNL1        0.0000
     12  C          5.4560    0.3230    1.7760 C.2     1  UNL1        0.0000
@<TRIPOS>BOND
     1     4     5    1
     2     4     2    1
     3     3     2    2
     4     2     1    1
     5     1     6    1
     6     6     7    1
     7     7     8    2
     8     7     9    1
     9     8    10    1
    10     9    11    2
    11    10    12    2
    12    11    12    1
