@<TRIPOS>MOLECULE
/home/cewinharhar/GITHUB/reincatalyze/data/processed/docking_pred/2023-May-05-1615_maxeplen10_maxtrainstep1000_seadep16_gamma099_lrac9e-4_lrcr1e-3/e8fc6854485d68a8d0bf78bf523603f1a9cbeca9_ligand_2.pdbqt
 12 12 0 0 0
SMALL
GASTEIGER

@<TRIPOS>ATOM
      1  C          7.9690   -1.2900    2.3160 C.3     1  UNL1        0.1270
      2  C          8.7000   -2.3990    1.6600 C.2     1  UNL1        0.3030
      3  O          9.9060   -2.6310    1.9250 O.2     1  UNL1       -0.2520
      4  O          8.0710   -3.2140    0.7330 O.3     1  UNL1       -0.4810
      5  H          7.4940   -3.9940    1.0610 H       1  UNL1        0.2960
      6  C          6.5390   -1.3400    1.8700 C.3     1  UNL1        0.0470
      7  C          6.1320   -0.2000    1.0500 C.2     1  UNL1       -0.0470
      8  C          6.5200   -0.1070   -0.2660 C.2     1  UNL1        0.0040
      9  C          5.3510    0.7840    1.6090 C.2     1  UNL1        0.0040
     10  C          6.0930    1.0090   -0.9900 C.2     1  UNL1        0.0000
     11  C          4.9300    1.8870    0.8920 C.2     1  UNL1        0.0000
     12  C          5.3150    1.9880   -0.4270 C.2     1  UNL1        0.0000
@<TRIPOS>BOND
     1    10    12    2
     2    10     8    1
     3    12    11    1
     4     8     7    2
     5     4     5    1
     6     4     2    1
     7    11     9    2
     8     7     9    1
     9     7     6    1
    10     2     3    2
    11     2     1    1
    12     6     1    1
