@<TRIPOS>MOLECULE
/home/cewinharhar/GITHUB/reincatalyze/data/processed/docking_pred/2023-May-05-1615_maxeplen10_maxtrainstep1000_seadep16_gamma099_lrac9e-4_lrcr1e-3/e9ca5ba4bc0452251e134010a3e53239cf47eed8_ligand_2.pdbqt
 12 12 0 0 0
SMALL
GASTEIGER

@<TRIPOS>ATOM
      1  C          7.8920   -1.4610    2.3400 C.3     1  UNL1        0.1270
      2  C          8.8140   -2.3860    1.6390 C.2     1  UNL1        0.3030
      3  O         10.0290   -2.4520    1.9480 O.2     1  UNL1       -0.2520
      4  O          8.3570   -3.2060    0.6190 O.3     1  UNL1       -0.4810
      5  H          8.6640   -3.0290   -0.3410 H       1  UNL1        0.2960
      6  C          6.5460   -1.5560    1.6900 C.3     1  UNL1        0.0470
      7  C          6.1550   -0.3540    0.9560 C.2     1  UNL1       -0.0470
      8  C          6.5270   -0.1790   -0.3570 C.2     1  UNL1        0.0040
      9  C          5.4040    0.6070    1.5920 C.2     1  UNL1        0.0040
     10  C          6.1170    0.9930   -0.9960 C.2     1  UNL1        0.0000
     11  C          5.0000    1.7660    0.9590 C.2     1  UNL1        0.0000
     12  C          5.3690    1.9490   -0.3560 C.2     1  UNL1        0.0000
@<TRIPOS>BOND
     1    10     8    1
     2    10    12    2
     3     8     7    2
     4    12    11    1
     5     5     4    1
     6     4     2    1
     7     7     9    1
     8     7     6    1
     9    11     9    2
    10     2     3    2
    11     2     1    1
    12     6     1    1
