@<TRIPOS>MOLECULE
/home/cewinharhar/GITHUB/reincatalyze/data/processed/docking_pred/2023-May-05-1615_maxeplen10_maxtrainstep1000_seadep16_gamma099_lrac9e-4_lrcr1e-3/e9ca5ba4bc0452251e134010a3e53239cf47eed8_ligand_2.pdbqt
 12 12 0 0 0
SMALL
GASTEIGER

@<TRIPOS>ATOM
      1  C          8.4500   -0.6950   -2.0870 C.3     1  UNL1        0.1270
      2  C          8.4550   -1.9400   -2.8920 C.2     1  UNL1        0.3030
      3  O          9.5050   -2.6130   -3.0430 O.2     1  UNL1       -0.2520
      4  O          7.2980   -2.3970   -3.5000 O.3     1  UNL1       -0.4810
      5  H          7.1020   -2.1290   -4.4690 H       1  UNL1        0.2960
      6  C          7.0580   -0.1420   -2.0850 C.3     1  UNL1        0.0470
      7  C          6.4900    0.0340   -0.7490 C.2     1  UNL1       -0.0470
      8  C          6.6530   -0.9320    0.2170 C.2     1  UNL1        0.0040
      9  C          5.7890    1.1820   -0.4640 C.2     1  UNL1        0.0040
     10  C          6.0850   -0.6960    1.4710 C.2     1  UNL1        0.0000
     11  C          5.2270    1.4130    0.7760 C.2     1  UNL1        0.0000
     12  C          5.3850    0.4500    1.7490 C.2     1  UNL1        0.0000
@<TRIPOS>BOND
     1     5     4    1
     2     4     2    1
     3     3     2    2
     4     2     1    1
     5     1     6    1
     6     6     7    1
     7     7     9    2
     8     7     8    1
     9     9    11    1
    10     8    10    2
    11    11    12    2
    12    10    12    1
