MODEL 1
REMARK VINA RESULT:      -7.1      0.000      0.000
REMARK SMILES O=C(O)CCc1ccccc1
REMARK SMILES IDX 4 1 2 2 1 3 3 4 5 6 6 7 7 8 11 9 8 10 10 11 9 12
REMARK H PARENT 3 5
REMARK Flexibility Score: inf
ROOT
ATOM      1  C   UNL     1       8.450  -0.695  -2.087  1.00  0.00     0.127 C 
ENDROOT
BRANCH   1   2
ATOM      2  C   UNL     1       8.455  -1.940  -2.892  1.00  0.00     0.303 C 
ATOM      3  O   UNL     1       9.505  -2.613  -3.043  1.00  0.00    -0.252 OA
BRANCH   2   4
ATOM      4  O   UNL     1       7.298  -2.397  -3.500  1.00  0.00    -0.481 OA
ATOM      5  H   UNL     1       7.102  -2.129  -4.469  1.00  0.00     0.296 HD
ENDBRANCH   2   4
ENDBRANCH   1   2
BRANCH   1   6
ATOM      6  C   UNL     1       7.058  -0.142  -2.085  1.00  0.00     0.047 C 
BRANCH   6   7
ATOM      7  C   UNL     1       6.490   0.034  -0.749  1.00  0.00    -0.047 A 
ATOM      8  C   UNL     1       6.653  -0.932   0.217  1.00  0.00     0.004 A 
ATOM      9  C   UNL     1       5.789   1.182  -0.464  1.00  0.00     0.004 A 
ATOM     10  C   UNL     1       6.085  -0.696   1.471  1.00  0.00     0.000 A 
ATOM     11  C   UNL     1       5.227   1.413   0.776  1.00  0.00     0.000 A 
ATOM     12  C   UNL     1       5.385   0.450   1.749  1.00  0.00     0.000 A 
ENDBRANCH   6   7
ENDBRANCH   1   6
TORSDOF 4
ENDMDL
MODEL 2
REMARK VINA RESULT:      -6.5      2.326      3.391
REMARK SMILES O=C(O)CCc1ccccc1
REMARK SMILES IDX 4 1 2 2 1 3 3 4 5 6 6 7 7 8 11 9 8 10 10 11 9 12
REMARK H PARENT 3 5
REMARK Flexibility Score: inf
ROOT
ATOM      1  C   UNL     1       7.892  -1.461   2.340  1.00  0.00     0.127 C 
ENDROOT
BRANCH   1   2
ATOM      2  C   UNL     1       8.814  -2.386   1.639  1.00  0.00     0.303 C 
ATOM      3  O   UNL     1      10.029  -2.452   1.948  1.00  0.00    -0.252 OA
BRANCH   2   4
ATOM      4  O   UNL     1       8.357  -3.206   0.619  1.00  0.00    -0.481 OA
ATOM      5  H   UNL     1       8.664  -3.029  -0.341  1.00  0.00     0.296 HD
ENDBRANCH   2   4
ENDBRANCH   1   2
BRANCH   1   6
ATOM      6  C   UNL     1       6.546  -1.556   1.690  1.00  0.00     0.047 C 
BRANCH   6   7
ATOM      7  C   UNL     1       6.155  -0.354   0.956  1.00  0.00    -0.047 A 
ATOM      8  C   UNL     1       6.527  -0.179  -0.357  1.00  0.00     0.004 A 
ATOM      9  C   UNL     1       5.404   0.607   1.592  1.00  0.00     0.004 A 
ATOM     10  C   UNL     1       6.117   0.993  -0.996  1.00  0.00     0.000 A 
ATOM     11  C   UNL     1       5.000   1.766   0.959  1.00  0.00     0.000 A 
ATOM     12  C   UNL     1       5.369   1.949  -0.356  1.00  0.00     0.000 A 
ENDBRANCH   6   7
ENDBRANCH   1   6
TORSDOF 4
ENDMDL
