@<TRIPOS>MOLECULE
/home/cewinharhar/GITHUB/reincatalyze/data/processed/docking_pred/2023-May-05-1615_maxeplen10_maxtrainstep1000_seadep16_gamma099_lrac9e-4_lrcr1e-3/ea9f39b4277e7ba3f00603e8654b95ed05d2571c_ligand_2.pdbqt
 12 12 0 0 0
SMALL
GASTEIGER

@<TRIPOS>ATOM
      1  C          8.4690   -0.6340   -2.1270 C.3     1  UNL1        0.1270
      2  C          8.4890   -1.9050   -2.8880 C.2     1  UNL1        0.3030
      3  O          9.5590   -2.5360   -3.0720 O.2     1  UNL1       -0.2520
      4  O          7.3230   -2.4330   -3.4200 O.3     1  UNL1       -0.4810
      5  H          7.0510   -2.1860   -4.3750 H       1  UNL1        0.2960
      6  C          7.0620   -0.1180   -2.1100 C.3     1  UNL1        0.0470
      7  C          6.4960    0.0200   -0.7690 C.2     1  UNL1       -0.0470
      8  C          6.6140   -0.9940    0.1520 C.2     1  UNL1        0.0040
      9  C          5.8420    1.1830   -0.4330 C.2     1  UNL1        0.0040
     10  C          6.0500   -0.7930    1.4140 C.2     1  UNL1        0.0000
     11  C          5.2840    1.3800    0.8150 C.2     1  UNL1        0.0000
     12  C          5.3970    0.3680    1.7430 C.2     1  UNL1        0.0000
@<TRIPOS>BOND
     1     5     4    1
     2     4     2    1
     3     3     2    2
     4     2     1    1
     5     1     6    1
     6     6     7    1
     7     7     9    2
     8     7     8    1
     9     9    11    1
    10     8    10    2
    11    11    12    2
    12    10    12    1
