@<TRIPOS>MOLECULE
/home/cewinharhar/GITHUB/reincatalyze/data/processed/docking_pred/2023-May-05-1615_maxeplen10_maxtrainstep1000_seadep16_gamma099_lrac9e-4_lrcr1e-3/ea9f39b4277e7ba3f00603e8654b95ed05d2571c_ligand_2.pdbqt
 12 12 0 0 0
SMALL
GASTEIGER

@<TRIPOS>ATOM
      1  C          8.2950   -0.5880   -2.1380 C.3     1  UNL1        0.1270
      2  C          8.3180   -1.8530   -2.9090 C.2     1  UNL1        0.3030
      3  O          7.2540   -2.4010   -3.2920 O.2     1  UNL1       -0.2520
      4  O          9.5170   -2.4680   -3.2300 O.3     1  UNL1       -0.4810
      5  H         10.3710   -2.1880   -2.7390 H       1  UNL1        0.2960
      6  C          6.9630   -0.4720   -1.4620 C.3     1  UNL1        0.0470
      7  C          6.7890    0.7620   -0.6990 C.2     1  UNL1       -0.0470
      8  C          5.5540    1.3610   -0.6020 C.2     1  UNL1        0.0040
      9  C          7.8770    1.3230   -0.0710 C.2     1  UNL1        0.0040
     10  C          5.4610    2.5380    0.1440 C.2     1  UNL1        0.0000
     11  C          7.7840    2.4870    0.6660 C.2     1  UNL1        0.0000
     12  C          6.5510    3.0940    0.7670 C.2     1  UNL1        0.0000
@<TRIPOS>BOND
     1     3     2    2
     2     4     2    1
     3     4     5    1
     4     2     1    1
     5     1     6    1
     6     6     7    1
     7     7     8    2
     8     7     9    1
     9     8    10    1
    10     9    11    2
    11    10    12    2
    12    11    12    1
