MODEL 1
REMARK VINA RESULT:      -7.1      0.000      0.000
REMARK SMILES O=C(O)CCc1ccccc1
REMARK SMILES IDX 4 1 2 2 1 3 3 4 5 6 6 7 7 8 11 9 8 10 10 11 9 12
REMARK H PARENT 3 5
REMARK Flexibility Score: inf
ROOT
ATOM      1  C   UNL     1       8.469  -0.634  -2.127  1.00  0.00     0.127 C 
ENDROOT
BRANCH   1   2
ATOM      2  C   UNL     1       8.489  -1.905  -2.888  1.00  0.00     0.303 C 
ATOM      3  O   UNL     1       9.559  -2.536  -3.072  1.00  0.00    -0.252 OA
BRANCH   2   4
ATOM      4  O   UNL     1       7.323  -2.433  -3.420  1.00  0.00    -0.481 OA
ATOM      5  H   UNL     1       7.051  -2.186  -4.375  1.00  0.00     0.296 HD
ENDBRANCH   2   4
ENDBRANCH   1   2
BRANCH   1   6
ATOM      6  C   UNL     1       7.062  -0.118  -2.110  1.00  0.00     0.047 C 
BRANCH   6   7
ATOM      7  C   UNL     1       6.496   0.020  -0.769  1.00  0.00    -0.047 A 
ATOM      8  C   UNL     1       6.614  -0.994   0.152  1.00  0.00     0.004 A 
ATOM      9  C   UNL     1       5.842   1.183  -0.433  1.00  0.00     0.004 A 
ATOM     10  C   UNL     1       6.050  -0.793   1.414  1.00  0.00     0.000 A 
ATOM     11  C   UNL     1       5.284   1.380   0.815  1.00  0.00     0.000 A 
ATOM     12  C   UNL     1       5.397   0.368   1.743  1.00  0.00     0.000 A 
ENDBRANCH   6   7
ENDBRANCH   1   6
TORSDOF 4
ENDMDL
MODEL 2
REMARK VINA RESULT:      -6.6      1.356      2.201
REMARK SMILES O=C(O)CCc1ccccc1
REMARK SMILES IDX 4 1 2 2 1 3 3 4 5 6 6 7 7 8 11 9 8 10 10 11 9 12
REMARK H PARENT 3 5
REMARK Flexibility Score: inf
ROOT
ATOM      1  C   UNL     1       8.295  -0.588  -2.138  1.00  0.00     0.127 C 
ENDROOT
BRANCH   1   2
ATOM      2  C   UNL     1       8.318  -1.853  -2.909  1.00  0.00     0.303 C 
ATOM      3  O   UNL     1       7.254  -2.401  -3.292  1.00  0.00    -0.252 OA
BRANCH   2   4
ATOM      4  O   UNL     1       9.517  -2.468  -3.230  1.00  0.00    -0.481 OA
ATOM      5  H   UNL     1      10.371  -2.188  -2.739  1.00  0.00     0.296 HD
ENDBRANCH   2   4
ENDBRANCH   1   2
BRANCH   1   6
ATOM      6  C   UNL     1       6.963  -0.472  -1.462  1.00  0.00     0.047 C 
BRANCH   6   7
ATOM      7  C   UNL     1       6.789   0.762  -0.699  1.00  0.00    -0.047 A 
ATOM      8  C   UNL     1       5.554   1.361  -0.602  1.00  0.00     0.004 A 
ATOM      9  C   UNL     1       7.877   1.323  -0.071  1.00  0.00     0.004 A 
ATOM     10  C   UNL     1       5.461   2.538   0.144  1.00  0.00     0.000 A 
ATOM     11  C   UNL     1       7.784   2.487   0.666  1.00  0.00     0.000 A 
ATOM     12  C   UNL     1       6.551   3.094   0.767  1.00  0.00     0.000 A 
ENDBRANCH   6   7
ENDBRANCH   1   6
TORSDOF 4
ENDMDL
