@<TRIPOS>MOLECULE
/home/cewinharhar/GITHUB/reincatalyze/data/processed/docking_pred/2023-May-05-1615_maxeplen10_maxtrainstep1000_seadep16_gamma099_lrac9e-4_lrcr1e-3/eb9358f7bad4db9539b7d0967c6d7dee777b6146_ligand_2.pdbqt
 12 12 0 0 0
SMALL
GASTEIGER

@<TRIPOS>ATOM
      1  C          5.5170    1.4190   -0.2690 C.3     1  UNL1        0.1270
      2  C          5.3530    1.7600    1.1640 C.2     1  UNL1        0.3030
      3  O          5.6430    2.9030    1.5980 O.2     1  UNL1       -0.2520
      4  O          4.8750    0.8240    2.0660 O.3     1  UNL1       -0.4810
      5  H          4.0310    1.0350    2.6060 H       1  UNL1        0.2960
      6  C          6.3350    0.1670   -0.3640 C.3     1  UNL1        0.0470
      7  C          7.5300    0.3000   -1.1960 C.2     1  UNL1       -0.0470
      8  C          7.5040   -0.0480   -2.5260 C.2     1  UNL1        0.0040
      9  C          8.6900    0.7810   -0.6320 C.2     1  UNL1        0.0040
     10  C          8.6820    0.1060   -3.2600 C.2     1  UNL1        0.0000
     11  C          9.8540    0.9320   -1.3590 C.2     1  UNL1        0.0000
     12  C          9.8360    0.5850   -2.6930 C.2     1  UNL1        0.0000
@<TRIPOS>BOND
     1    10    12    2
     2    10     8    1
     3    12    11    1
     4     8     7    2
     5    11     9    2
     6     7     9    1
     7     7     6    1
     8     6     1    1
     9     1     2    1
    10     2     3    2
    11     2     4    1
    12     4     5    1
