MODEL 1
REMARK VINA RESULT:      -7.0      0.000      0.000
REMARK SMILES O=C(O)CCc1ccccc1
REMARK SMILES IDX 4 1 2 2 1 3 3 4 5 6 6 7 7 8 11 9 8 10 10 11 9 12
REMARK H PARENT 3 5
REMARK Flexibility Score: inf
ROOT
ATOM      1  C   UNL     1       8.404  -0.619  -2.077  1.00  0.00     0.127 C 
ENDROOT
BRANCH   1   2
ATOM      2  C   UNL     1       8.405  -1.848  -2.907  1.00  0.00     0.303 C 
ATOM      3  O   UNL     1       7.334  -2.433  -3.203  1.00  0.00    -0.252 OA
BRANCH   2   4
ATOM      4  O   UNL     1       9.592  -2.385  -3.378  1.00  0.00    -0.481 OA
ATOM      5  H   UNL     1      10.427  -2.352  -2.787  1.00  0.00     0.296 HD
ENDBRANCH   2   4
ENDBRANCH   1   2
BRANCH   1   6
ATOM      6  C   UNL     1       7.015  -0.057  -2.071  1.00  0.00     0.047 C 
BRANCH   6   7
ATOM      7  C   UNL     1       6.448   0.112  -0.734  1.00  0.00    -0.047 A 
ATOM      8  C   UNL     1       5.803   1.275  -0.385  1.00  0.00     0.004 A 
ATOM      9  C   UNL     1       6.565  -0.911   0.178  1.00  0.00     0.004 A 
ATOM     10  C   UNL     1       5.284   1.366   0.908  1.00  0.00     0.000 A 
ATOM     11  C   UNL     1       6.052  -0.819   1.457  1.00  0.00     0.000 A 
ATOM     12  C   UNL     1       5.405   0.343   1.815  1.00  0.00     0.000 A 
ENDBRANCH   6   7
ENDBRANCH   1   6
TORSDOF 4
ENDMDL
MODEL 2
REMARK VINA RESULT:      -6.7      3.320      5.129
REMARK SMILES O=C(O)CCc1ccccc1
REMARK SMILES IDX 4 1 2 2 1 3 3 4 5 6 6 7 7 8 11 9 8 10 10 11 9 12
REMARK H PARENT 3 5
REMARK Flexibility Score: inf
ROOT
ATOM      1  C   UNL     1       5.517   1.419  -0.269  1.00  0.00     0.127 C 
ENDROOT
BRANCH   1   2
ATOM      2  C   UNL     1       5.353   1.760   1.164  1.00  0.00     0.303 C 
ATOM      3  O   UNL     1       5.643   2.903   1.598  1.00  0.00    -0.252 OA
BRANCH   2   4
ATOM      4  O   UNL     1       4.875   0.824   2.066  1.00  0.00    -0.481 OA
ATOM      5  H   UNL     1       4.031   1.035   2.606  1.00  0.00     0.296 HD
ENDBRANCH   2   4
ENDBRANCH   1   2
BRANCH   1   6
ATOM      6  C   UNL     1       6.335   0.167  -0.364  1.00  0.00     0.047 C 
BRANCH   6   7
ATOM      7  C   UNL     1       7.530   0.300  -1.196  1.00  0.00    -0.047 A 
ATOM      8  C   UNL     1       7.504  -0.048  -2.526  1.00  0.00     0.004 A 
ATOM      9  C   UNL     1       8.690   0.781  -0.632  1.00  0.00     0.004 A 
ATOM     10  C   UNL     1       8.682   0.106  -3.260  1.00  0.00     0.000 A 
ATOM     11  C   UNL     1       9.854   0.932  -1.359  1.00  0.00     0.000 A 
ATOM     12  C   UNL     1       9.836   0.585  -2.693  1.00  0.00     0.000 A 
ENDBRANCH   6   7
ENDBRANCH   1   6
TORSDOF 4
ENDMDL
