@<TRIPOS>MOLECULE
/home/cewinharhar/GITHUB/reincatalyze/data/processed/docking_pred/2023-May-05-1615_maxeplen10_maxtrainstep1000_seadep16_gamma099_lrac9e-4_lrcr1e-3/eb9358f7bad4db9539b7d0967c6d7dee777b6146_ligand_2.pdbqt
 12 12 0 0 0
SMALL
GASTEIGER

@<TRIPOS>ATOM
      1  C          8.4040   -0.6190   -2.0770 C.3     1  UNL1        0.1270
      2  C          8.4050   -1.8480   -2.9070 C.2     1  UNL1        0.3030
      3  O          7.3340   -2.4330   -3.2030 O.2     1  UNL1       -0.2520
      4  O          9.5920   -2.3850   -3.3780 O.3     1  UNL1       -0.4810
      5  H         10.4270   -2.3520   -2.7870 H       1  UNL1        0.2960
      6  C          7.0150   -0.0570   -2.0710 C.3     1  UNL1        0.0470
      7  C          6.4480    0.1120   -0.7340 C.2     1  UNL1       -0.0470
      8  C          5.8030    1.2750   -0.3850 C.2     1  UNL1        0.0040
      9  C          6.5650   -0.9110    0.1780 C.2     1  UNL1        0.0040
     10  C          5.2840    1.3660    0.9080 C.2     1  UNL1        0.0000
     11  C          6.0520   -0.8190    1.4570 C.2     1  UNL1        0.0000
     12  C          5.4050    0.3430    1.8150 C.2     1  UNL1        0.0000
@<TRIPOS>BOND
     1     4     2    1
     2     4     5    1
     3     3     2    2
     4     2     1    1
     5     1     6    1
     6     6     7    1
     7     7     8    2
     8     7     9    1
     9     8    10    1
    10     9    11    2
    11    10    12    2
    12    11    12    1
