@<TRIPOS>MOLECULE
/home/cewinharhar/GITHUB/reincatalyze/data/processed/docking_pred/2023-May-05-1615_maxeplen10_maxtrainstep1000_seadep16_gamma099_lrac9e-4_lrcr1e-3/f15420a79f585431148ea344134f913ab78e73cd_ligand_2.pdbqt
 12 12 0 0 0
SMALL
GASTEIGER

@<TRIPOS>ATOM
      1  C          6.3270   -0.5260    2.7350 C.3     1  UNL1        0.1270
      2  C          7.0950   -1.4850    1.9060 C.2     1  UNL1        0.3030
      3  O          8.2610   -1.2240    1.5210 O.2     1  UNL1       -0.2520
      4  O          6.5430   -2.6990    1.5320 O.3     1  UNL1       -0.4810
      5  H          7.1070   -3.5510    1.6090 H       1  UNL1        0.2960
      6  C          5.2210    0.0410    1.8980 C.3     1  UNL1        0.0470
      7  C          5.5310    1.3390    1.3020 C.2     1  UNL1       -0.0470
      8  C          4.8970    1.7560    0.1550 C.2     1  UNL1        0.0040
      9  C          6.4680    2.1470    1.9040 C.2     1  UNL1        0.0040
     10  C          5.2420    3.0090   -0.3580 C.2     1  UNL1        0.0000
     11  C          6.8080    3.3850    1.3960 C.2     1  UNL1        0.0000
     12  C          6.1780    3.8100    0.2460 C.2     1  UNL1        0.0000
@<TRIPOS>BOND
     1    10     8    1
     2    10    12    2
     3     8     7    2
     4    12    11    1
     5     7     6    1
     6     7     9    1
     7    11     9    2
     8     3     2    2
     9     4     5    1
    10     4     2    1
    11     6     1    1
    12     2     1    1
