@<TRIPOS>MOLECULE
/home/cewinharhar/GITHUB/reincatalyze/data/processed/docking_pred/2023-May-05-1615_maxeplen10_maxtrainstep1000_seadep16_gamma099_lrac9e-4_lrcr1e-3/f15420a79f585431148ea344134f913ab78e73cd_ligand_2.pdbqt
 12 12 0 0 0
SMALL
GASTEIGER

@<TRIPOS>ATOM
      1  C          8.1860   -6.1560   11.4120 C.3     1  UNL1        0.1270
      2  C          8.2680   -4.6860   11.5770 C.2     1  UNL1        0.3030
      3  O          7.4950   -3.9170   10.9540 O.2     1  UNL1       -0.2520
      4  O          9.2040   -4.1170   12.4250 O.3     1  UNL1       -0.4810
      5  H          8.9000   -3.4260   13.1170 H       1  UNL1        0.2960
      6  C          8.9350   -6.5330   10.1710 C.3     1  UNL1        0.0470
      7  C         10.2060   -7.2100   10.4260 C.2     1  UNL1       -0.0470
      8  C         10.2670   -8.5810   10.5150 C.2     1  UNL1        0.0040
      9  C         11.3490   -6.4590   10.5740 C.2     1  UNL1        0.0040
     10  C         11.5140   -9.1600   10.7600 C.2     1  UNL1        0.0000
     11  C         12.5810   -7.0330   10.8160 C.2     1  UNL1        0.0000
     12  C         12.6510   -8.4060   10.9080 C.2     1  UNL1        0.0000
@<TRIPOS>BOND
     1     6     7    1
     2     6     1    1
     3     7     8    2
     4     7     9    1
     5     8    10    1
     6     9    11    2
     7    10    12    2
     8    11    12    1
     9     3     2    2
    10     1     2    1
    11     2     4    1
    12     4     5    1
