@<TRIPOS>MOLECULE
/home/cewinharhar/GITHUB/reincatalyze/data/processed/docking_pred/2023-May-05-1615_maxeplen10_maxtrainstep1000_seadep16_gamma099_lrac9e-4_lrcr1e-3/f15420a79f585431148ea344134f913ab78e73cd_ligand_2.pdbqt
 12 12 0 0 0
SMALL
GASTEIGER

@<TRIPOS>ATOM
      1  C          7.9850   -6.3450   10.8830 C.3     1  UNL1        0.1270
      2  C          8.3280   -4.9340   11.1790 C.2     1  UNL1        0.3030
      3  O          7.5930   -3.9910   10.7930 O.2     1  UNL1       -0.2520
      4  O          9.4730   -4.6150   11.8920 O.3     1  UNL1       -0.4810
      5  H          9.3840   -4.2100   12.8270 H       1  UNL1        0.2960
      6  C          8.3980   -7.1850   12.0540 C.3     1  UNL1        0.0470
      7  C          9.3120   -8.2730   11.7120 C.2     1  UNL1       -0.0470
      8  C         10.2420   -8.1220   10.7090 C.2     1  UNL1        0.0040
      9  C          9.2370   -9.4570   12.4080 C.2     1  UNL1        0.0040
     10  C         11.0840   -9.2020   10.4370 C.2     1  UNL1        0.0000
     11  C         10.0700  -10.5240   12.1370 C.2     1  UNL1        0.0000
     12  C         11.0030  -10.3810   11.1340 C.2     1  UNL1        0.0000
@<TRIPOS>BOND
     1    10     8    1
     2    10    12    2
     3     8     7    2
     4     3     2    2
     5     1     2    1
     6     1     6    1
     7    12    11    1
     8     2     4    1
     9     7     6    1
    10     7     9    1
    11     4     5    1
    12    11     9    2
