MODEL 1
REMARK VINA RESULT:      -5.5      0.000      0.000
REMARK SMILES O=C(O)CCc1ccccc1
REMARK SMILES IDX 4 1 2 2 1 3 3 4 5 6 6 7 7 8 11 9 8 10 10 11 9 12
REMARK H PARENT 3 5
REMARK Flexibility Score: inf
ROOT
ATOM      1  C   UNL     1       6.327  -0.526   2.735  1.00  0.00     0.127 C 
ENDROOT
BRANCH   1   2
ATOM      2  C   UNL     1       7.095  -1.485   1.906  1.00  0.00     0.303 C 
ATOM      3  O   UNL     1       8.261  -1.224   1.521  1.00  0.00    -0.252 OA
BRANCH   2   4
ATOM      4  O   UNL     1       6.543  -2.699   1.532  1.00  0.00    -0.481 OA
ATOM      5  H   UNL     1       7.107  -3.551   1.609  1.00  0.00     0.296 HD
ENDBRANCH   2   4
ENDBRANCH   1   2
BRANCH   1   6
ATOM      6  C   UNL     1       5.221   0.041   1.898  1.00  0.00     0.047 C 
BRANCH   6   7
ATOM      7  C   UNL     1       5.531   1.339   1.302  1.00  0.00    -0.047 A 
ATOM      8  C   UNL     1       4.897   1.756   0.155  1.00  0.00     0.004 A 
ATOM      9  C   UNL     1       6.468   2.147   1.904  1.00  0.00     0.004 A 
ATOM     10  C   UNL     1       5.242   3.009  -0.358  1.00  0.00     0.000 A 
ATOM     11  C   UNL     1       6.808   3.385   1.396  1.00  0.00     0.000 A 
ATOM     12  C   UNL     1       6.178   3.810   0.246  1.00  0.00     0.000 A 
ENDBRANCH   6   7
ENDBRANCH   1   6
TORSDOF 4
ENDMDL
MODEL 2
REMARK VINA RESULT:      -3.7     11.806     14.299
REMARK SMILES O=C(O)CCc1ccccc1
REMARK SMILES IDX 4 1 2 2 1 3 3 4 5 6 6 7 7 8 11 9 8 10 10 11 9 12
REMARK H PARENT 3 5
REMARK Flexibility Score: inf
ROOT
ATOM      1  C   UNL     1       7.985  -6.345  10.883  1.00  0.00     0.127 C 
ENDROOT
BRANCH   1   2
ATOM      2  C   UNL     1       8.328  -4.934  11.179  1.00  0.00     0.303 C 
ATOM      3  O   UNL     1       7.593  -3.991  10.793  1.00  0.00    -0.252 OA
BRANCH   2   4
ATOM      4  O   UNL     1       9.473  -4.615  11.892  1.00  0.00    -0.481 OA
ATOM      5  H   UNL     1       9.384  -4.210  12.827  1.00  0.00     0.296 HD
ENDBRANCH   2   4
ENDBRANCH   1   2
BRANCH   1   6
ATOM      6  C   UNL     1       8.398  -7.185  12.054  1.00  0.00     0.047 C 
BRANCH   6   7
ATOM      7  C   UNL     1       9.312  -8.273  11.712  1.00  0.00    -0.047 A 
ATOM      8  C   UNL     1      10.242  -8.122  10.709  1.00  0.00     0.004 A 
ATOM      9  C   UNL     1       9.237  -9.457  12.408  1.00  0.00     0.004 A 
ATOM     10  C   UNL     1      11.084  -9.202  10.437  1.00  0.00     0.000 A 
ATOM     11  C   UNL     1      10.070 -10.524  12.137  1.00  0.00     0.000 A 
ATOM     12  C   UNL     1      11.003 -10.381  11.134  1.00  0.00     0.000 A 
ENDBRANCH   6   7
ENDBRANCH   1   6
TORSDOF 4
ENDMDL
MODEL 3
REMARK VINA RESULT:      -3.7     11.952     13.505
REMARK SMILES O=C(O)CCc1ccccc1
REMARK SMILES IDX 4 1 2 2 1 3 3 4 5 6 6 7 7 8 11 9 8 10 10 11 9 12
REMARK H PARENT 3 5
REMARK Flexibility Score: inf
ROOT
ATOM      1  C   UNL     1       8.186  -6.156  11.412  1.00  0.00     0.127 C 
ENDROOT
BRANCH   1   2
ATOM      2  C   UNL     1       8.268  -4.686  11.577  1.00  0.00     0.303 C 
ATOM      3  O   UNL     1       7.495  -3.917  10.954  1.00  0.00    -0.252 OA
BRANCH   2   4
ATOM      4  O   UNL     1       9.204  -4.117  12.425  1.00  0.00    -0.481 OA
ATOM      5  H   UNL     1       8.900  -3.426  13.117  1.00  0.00     0.296 HD
ENDBRANCH   2   4
ENDBRANCH   1   2
BRANCH   1   6
ATOM      6  C   UNL     1       8.935  -6.533  10.171  1.00  0.00     0.047 C 
BRANCH   6   7
ATOM      7  C   UNL     1      10.206  -7.210  10.426  1.00  0.00    -0.047 A 
ATOM      8  C   UNL     1      10.267  -8.581  10.515  1.00  0.00     0.004 A 
ATOM      9  C   UNL     1      11.349  -6.459  10.574  1.00  0.00     0.004 A 
ATOM     10  C   UNL     1      11.514  -9.160  10.760  1.00  0.00     0.000 A 
ATOM     11  C   UNL     1      12.581  -7.033  10.816  1.00  0.00     0.000 A 
ATOM     12  C   UNL     1      12.651  -8.406  10.908  1.00  0.00     0.000 A 
ENDBRANCH   6   7
ENDBRANCH   1   6
TORSDOF 4
ENDMDL
