MODEL 1
REMARK VINA RESULT:      -7.1      0.000      0.000
REMARK SMILES O=C(O)CCc1ccccc1
REMARK SMILES IDX 4 1 2 2 1 3 3 4 5 6 6 7 7 8 11 9 8 10 10 11 9 12
REMARK H PARENT 3 5
REMARK Flexibility Score: inf
ROOT
ATOM      1  C   UNL     1       8.459  -0.637  -2.124  1.00  0.00     0.127 C 
ENDROOT
BRANCH   1   2
ATOM      2  C   UNL     1       8.465  -1.904  -2.892  1.00  0.00     0.303 C 
ATOM      3  O   UNL     1       9.527  -2.548  -3.077  1.00  0.00    -0.252 OA
BRANCH   2   4
ATOM      4  O   UNL     1       7.294  -2.414  -3.429  1.00  0.00    -0.481 OA
ATOM      5  H   UNL     1       6.429  -1.872  -3.351  1.00  0.00     0.296 HD
ENDBRANCH   2   4
ENDBRANCH   1   2
BRANCH   1   6
ATOM      6  C   UNL     1       7.056  -0.112  -2.093  1.00  0.00     0.047 C 
BRANCH   6   7
ATOM      7  C   UNL     1       6.499   0.016  -0.747  1.00  0.00    -0.047 A 
ATOM      8  C   UNL     1       6.611  -1.012   0.160  1.00  0.00     0.004 A 
ATOM      9  C   UNL     1       5.860   1.181  -0.393  1.00  0.00     0.004 A 
ATOM     10  C   UNL     1       6.056  -0.820   1.428  1.00  0.00     0.000 A 
ATOM     11  C   UNL     1       5.311   1.369   0.860  1.00  0.00     0.000 A 
ATOM     12  C   UNL     1       5.418   0.344   1.775  1.00  0.00     0.000 A 
ENDBRANCH   6   7
ENDBRANCH   1   6
TORSDOF 4
ENDMDL
MODEL 2
REMARK VINA RESULT:      -6.6      1.378      2.215
REMARK SMILES O=C(O)CCc1ccccc1
REMARK SMILES IDX 4 1 2 2 1 3 3 4 5 6 6 7 7 8 11 9 8 10 10 11 9 12
REMARK H PARENT 3 5
REMARK Flexibility Score: inf
ROOT
ATOM      1  C   UNL     1       8.286  -0.571  -2.148  1.00  0.00     0.127 C 
ENDROOT
BRANCH   1   2
ATOM      2  C   UNL     1       8.310  -1.840  -2.912  1.00  0.00     0.303 C 
ATOM      3  O   UNL     1       7.247  -2.391  -3.292  1.00  0.00    -0.252 OA
BRANCH   2   4
ATOM      4  O   UNL     1       9.510  -2.455  -3.230  1.00  0.00    -0.481 OA
ATOM      5  H   UNL     1       9.639  -3.447  -3.009  1.00  0.00     0.296 HD
ENDBRANCH   2   4
ENDBRANCH   1   2
BRANCH   1   6
ATOM      6  C   UNL     1       6.964  -0.465  -1.451  1.00  0.00     0.047 C 
BRANCH   6   7
ATOM      7  C   UNL     1       6.787   0.775  -0.697  1.00  0.00    -0.047 A 
ATOM      8  C   UNL     1       5.553   1.377  -0.614  1.00  0.00     0.004 A 
ATOM      9  C   UNL     1       7.871   1.337  -0.064  1.00  0.00     0.004 A 
ATOM     10  C   UNL     1       5.457   2.558   0.125  1.00  0.00     0.000 A 
ATOM     11  C   UNL     1       7.775   2.505   0.665  1.00  0.00     0.000 A 
ATOM     12  C   UNL     1       6.542   3.115   0.753  1.00  0.00     0.000 A 
ENDBRANCH   6   7
ENDBRANCH   1   6
TORSDOF 4
ENDMDL
