@<TRIPOS>MOLECULE
/home/cewinharhar/GITHUB/reincatalyze/data/processed/docking_pred/2023-May-05-1615_maxeplen10_maxtrainstep1000_seadep16_gamma099_lrac9e-4_lrcr1e-3/f32d20faebe3d2be17d1bcf3c85c7c889e58fe23_ligand_2.pdbqt
 12 12 0 0 0
SMALL
GASTEIGER

@<TRIPOS>ATOM
      1  C          9.9480    1.7800    1.3050 C.3     1  UNL1        0.1270
      2  C         10.7570    0.7090    0.6770 C.2     1  UNL1        0.3030
      3  O         11.2880   -0.1950    1.3690 O.2     1  UNL1       -0.2520
      4  O         10.9490    0.6750   -0.6940 O.3     1  UNL1       -0.4810
      5  H         11.8970    0.5630   -1.0650 H       1  UNL1        0.2960
      6  C          8.6780    1.1720    1.8180 C.3     1  UNL1        0.0470
      7  C          7.4760    1.6290    1.1230 C.2     1  UNL1       -0.0470
      8  C          6.6810    0.7420    0.4360 C.2     1  UNL1        0.0040
      9  C          7.1430    2.9630    1.1650 C.2     1  UNL1        0.0040
     10  C          5.5470    1.2490   -0.2040 C.2     1  UNL1        0.0000
     11  C          6.0220    3.4620    0.5320 C.2     1  UNL1        0.0000
     12  C          5.2210    2.5800   -0.1600 C.2     1  UNL1        0.0000
@<TRIPOS>BOND
     1     5     4    1
     2     4     2    1
     3    10    12    2
     4    10     8    1
     5    12    11    1
     6     8     7    2
     7    11     9    2
     8     2     1    1
     9     2     3    2
    10     7     9    1
    11     7     6    1
    12     1     6    1
