@<TRIPOS>MOLECULE
/home/cewinharhar/GITHUB/reincatalyze/data/processed/docking_pred/2023-May-05-1615_maxeplen10_maxtrainstep1000_seadep16_gamma099_lrac9e-4_lrcr1e-3/f32d20faebe3d2be17d1bcf3c85c7c889e58fe23_ligand_2.pdbqt
 12 12 0 0 0
SMALL
GASTEIGER

@<TRIPOS>ATOM
      1  C          8.2860   -0.5710   -2.1480 C.3     1  UNL1        0.1270
      2  C          8.3100   -1.8400   -2.9120 C.2     1  UNL1        0.3030
      3  O          7.2470   -2.3910   -3.2920 O.2     1  UNL1       -0.2520
      4  O          9.5100   -2.4550   -3.2300 O.3     1  UNL1       -0.4810
      5  H          9.6390   -3.4470   -3.0090 H       1  UNL1        0.2960
      6  C          6.9640   -0.4650   -1.4510 C.3     1  UNL1        0.0470
      7  C          6.7870    0.7750   -0.6970 C.2     1  UNL1       -0.0470
      8  C          5.5530    1.3770   -0.6140 C.2     1  UNL1        0.0040
      9  C          7.8710    1.3370   -0.0640 C.2     1  UNL1        0.0040
     10  C          5.4570    2.5580    0.1250 C.2     1  UNL1        0.0000
     11  C          7.7750    2.5050    0.6650 C.2     1  UNL1        0.0000
     12  C          6.5420    3.1150    0.7530 C.2     1  UNL1        0.0000
@<TRIPOS>BOND
     1     3     2    2
     2     4     5    1
     3     4     2    1
     4     2     1    1
     5     1     6    1
     6     6     7    1
     7     7     8    2
     8     7     9    1
     9     8    10    1
    10     9    11    2
    11    10    12    2
    12    11    12    1
