@<TRIPOS>MOLECULE
/home/cewinharhar/GITHUB/reincatalyze/data/processed/docking_pred/2023-May-05-1615_maxeplen10_maxtrainstep1000_seadep16_gamma099_lrac9e-4_lrcr1e-3/f32d20faebe3d2be17d1bcf3c85c7c889e58fe23_ligand_2.pdbqt
 12 12 0 0 0
SMALL
GASTEIGER

@<TRIPOS>ATOM
      1  C          8.0800   -1.1310   -0.0590 C.3     1  UNL1        0.1270
      2  C          7.8900   -2.3550    0.7540 C.2     1  UNL1        0.3030
      3  O          8.7490   -3.2710    0.7640 O.2     1  UNL1       -0.2520
      4  O          6.7530   -2.5230    1.5290 O.3     1  UNL1       -0.4810
      5  H          5.8740   -2.0950    1.2270 H       1  UNL1        0.2960
      6  C          6.7300   -0.5710   -0.3900 C.3     1  UNL1        0.0470
      7  C          6.5750    0.8430   -0.0560 C.2     1  UNL1       -0.0470
      8  C          5.3950    1.5020   -0.3130 C.2     1  UNL1        0.0040
      9  C          7.6270    1.5150    0.5230 C.2     1  UNL1        0.0040
     10  C          5.3180    2.8530    0.0330 C.2     1  UNL1        0.0000
     11  C          7.5490    2.8510    0.8640 C.2     1  UNL1        0.0000
     12  C          6.3700    3.5180    0.6100 C.2     1  UNL1        0.0000
@<TRIPOS>BOND
     1     6     1    1
     2     6     7    1
     3     8     7    2
     4     8    10    1
     5     1     2    1
     6     7     9    1
     7    10    12    2
     8     9    11    2
     9    12    11    1
    10     2     3    2
    11     2     4    1
    12     5     4    1
