MODEL 1
REMARK VINA RESULT:      -7.0      0.000      0.000
REMARK SMILES O=C(O)CCc1ccccc1
REMARK SMILES IDX 4 1 2 2 1 3 3 4 5 6 6 7 7 8 11 9 8 10 10 11 9 12
REMARK H PARENT 3 5
REMARK Flexibility Score: inf
ROOT
ATOM      1  C   UNL     1       8.405  -0.651  -2.077  1.00  0.00     0.127 C 
ENDROOT
BRANCH   1   2
ATOM      2  C   UNL     1       8.377  -1.896  -2.880  1.00  0.00     0.303 C 
ATOM      3  O   UNL     1       7.291  -2.413  -3.242  1.00  0.00    -0.252 OA
BRANCH   2   4
ATOM      4  O   UNL     1       9.553  -2.525  -3.255  1.00  0.00    -0.481 OA
ATOM      5  H   UNL     1       9.999  -3.181  -2.607  1.00  0.00     0.296 HD
ENDBRANCH   2   4
ENDBRANCH   1   2
BRANCH   1   6
ATOM      6  C   UNL     1       7.028  -0.061  -2.076  1.00  0.00     0.047 C 
BRANCH   6   7
ATOM      7  C   UNL     1       6.454   0.105  -0.741  1.00  0.00    -0.047 A 
ATOM      8  C   UNL     1       5.800   1.265  -0.397  1.00  0.00     0.004 A 
ATOM      9  C   UNL     1       6.572  -0.916   0.172  1.00  0.00     0.004 A 
ATOM     10  C   UNL     1       5.275   1.355   0.895  1.00  0.00     0.000 A 
ATOM     11  C   UNL     1       6.053  -0.826   1.449  1.00  0.00     0.000 A 
ATOM     12  C   UNL     1       5.397   0.333   1.802  1.00  0.00     0.000 A 
ENDBRANCH   6   7
ENDBRANCH   1   6
TORSDOF 4
ENDMDL
MODEL 2
REMARK VINA RESULT:      -6.8      1.395      2.197
REMARK SMILES O=C(O)CCc1ccccc1
REMARK SMILES IDX 4 1 2 2 1 3 3 4 5 6 6 7 7 8 11 9 8 10 10 11 9 12
REMARK H PARENT 3 5
REMARK Flexibility Score: inf
ROOT
ATOM      1  C   UNL     1       8.264  -0.494  -2.327  1.00  0.00     0.127 C 
ENDROOT
BRANCH   1   2
ATOM      2  C   UNL     1       8.375  -1.828  -2.962  1.00  0.00     0.303 C 
ATOM      3  O   UNL     1       9.484  -2.405  -3.075  1.00  0.00    -0.252 OA
BRANCH   2   4
ATOM      4  O   UNL     1       7.252  -2.477  -3.451  1.00  0.00    -0.481 OA
ATOM      5  H   UNL     1       6.964  -3.365  -3.031  1.00  0.00     0.296 HD
ENDBRANCH   2   4
ENDBRANCH   1   2
BRANCH   1   6
ATOM      6  C   UNL     1       7.031  -0.479  -1.475  1.00  0.00     0.047 C 
BRANCH   6   7
ATOM      7  C   UNL     1       6.845   0.759  -0.720  1.00  0.00    -0.047 A 
ATOM      8  C   UNL     1       7.907   1.366  -0.092  1.00  0.00     0.004 A 
ATOM      9  C   UNL     1       5.589   1.318  -0.646  1.00  0.00     0.004 A 
ATOM     10  C   UNL     1       7.656   2.547   0.611  1.00  0.00     0.000 A 
ATOM     11  C   UNL     1       5.343   2.485   0.050  1.00  0.00     0.000 A 
ATOM     12  C   UNL     1       6.402   3.099   0.683  1.00  0.00     0.000 A 
ENDBRANCH   6   7
ENDBRANCH   1   6
TORSDOF 4
ENDMDL
