@<TRIPOS>MOLECULE
/home/cewinharhar/GITHUB/reincatalyze/data/processed/docking_pred/2023-May-05-1615_maxeplen10_maxtrainstep1000_seadep16_gamma099_lrac9e-4_lrcr1e-3/f338baa35ded8d3cb3d8a5b9e0cebf8a24c11f6d_ligand_2.pdbqt
 12 12 0 0 0
SMALL
GASTEIGER

@<TRIPOS>ATOM
      1  C          8.4050   -0.6510   -2.0770 C.3     1  UNL1        0.1270
      2  C          8.3770   -1.8960   -2.8800 C.2     1  UNL1        0.3030
      3  O          7.2910   -2.4130   -3.2420 O.2     1  UNL1       -0.2520
      4  O          9.5530   -2.5250   -3.2550 O.3     1  UNL1       -0.4810
      5  H          9.9990   -3.1810   -2.6070 H       1  UNL1        0.2960
      6  C          7.0280   -0.0610   -2.0760 C.3     1  UNL1        0.0470
      7  C          6.4540    0.1050   -0.7410 C.2     1  UNL1       -0.0470
      8  C          5.8000    1.2650   -0.3970 C.2     1  UNL1        0.0040
      9  C          6.5720   -0.9160    0.1720 C.2     1  UNL1        0.0040
     10  C          5.2750    1.3550    0.8950 C.2     1  UNL1        0.0000
     11  C          6.0530   -0.8260    1.4490 C.2     1  UNL1        0.0000
     12  C          5.3970    0.3330    1.8020 C.2     1  UNL1        0.0000
@<TRIPOS>BOND
     1     4     2    1
     2     4     5    1
     3     3     2    2
     4     2     1    1
     5     1     6    1
     6     6     7    1
     7     7     8    2
     8     7     9    1
     9     8    10    1
    10     9    11    2
    11    10    12    2
    12    11    12    1
