@<TRIPOS>MOLECULE
/home/cewinharhar/GITHUB/reincatalyze/data/processed/docking_pred/2023-May-05-1615_maxeplen10_maxtrainstep1000_seadep16_gamma099_lrac9e-4_lrcr1e-3/f338baa35ded8d3cb3d8a5b9e0cebf8a24c11f6d_ligand_2.pdbqt
 12 12 0 0 0
SMALL
GASTEIGER

@<TRIPOS>ATOM
      1  C          8.2640   -0.4940   -2.3270 C.3     1  UNL1        0.1270
      2  C          8.3750   -1.8280   -2.9620 C.2     1  UNL1        0.3030
      3  O          9.4840   -2.4050   -3.0750 O.2     1  UNL1       -0.2520
      4  O          7.2520   -2.4770   -3.4510 O.3     1  UNL1       -0.4810
      5  H          6.9640   -3.3650   -3.0310 H       1  UNL1        0.2960
      6  C          7.0310   -0.4790   -1.4750 C.3     1  UNL1        0.0470
      7  C          6.8450    0.7590   -0.7200 C.2     1  UNL1       -0.0470
      8  C          7.9070    1.3660   -0.0920 C.2     1  UNL1        0.0040
      9  C          5.5890    1.3180   -0.6460 C.2     1  UNL1        0.0040
     10  C          7.6560    2.5470    0.6110 C.2     1  UNL1        0.0000
     11  C          5.3430    2.4850    0.0500 C.2     1  UNL1        0.0000
     12  C          6.4020    3.0990    0.6830 C.2     1  UNL1        0.0000
@<TRIPOS>BOND
     1     4     5    1
     2     4     2    1
     3     3     2    2
     4     2     1    1
     5     1     6    1
     6     6     7    1
     7     7     9    2
     8     7     8    1
     9     9    11    1
    10     8    10    2
    11    11    12    2
    12    10    12    1
