@<TRIPOS>MOLECULE
/home/cewinharhar/GITHUB/reincatalyze/data/processed/docking_pred/2023-May-05-1615_maxeplen10_maxtrainstep1000_seadep16_gamma099_lrac9e-4_lrcr1e-3/f3c5d297feb9947f67baa3310bcd1cfc63c32b25_ligand_2.pdbqt
 12 12 0 0 0
SMALL
GASTEIGER

@<TRIPOS>ATOM
      1  C          8.4000   -0.6480   -2.0860 C.3     1  UNL1        0.1270
      2  C          8.3700   -1.8990   -2.8800 C.2     1  UNL1        0.3030
      3  O          7.2830   -2.4090   -3.2500 O.2     1  UNL1       -0.2520
      4  O          9.5440   -2.5430   -3.2360 O.3     1  UNL1       -0.4810
      5  H         10.1900   -2.0840   -3.8840 H       1  UNL1        0.2960
      6  C          7.0210   -0.0630   -2.0760 C.3     1  UNL1        0.0470
      7  C          6.4540    0.1020   -0.7390 C.2     1  UNL1       -0.0470
      8  C          5.7980    1.2600   -0.3910 C.2     1  UNL1        0.0040
      9  C          6.5820   -0.9180    0.1750 C.2     1  UNL1        0.0040
     10  C          5.2820    1.3490    0.9040 C.2     1  UNL1        0.0000
     11  C          6.0710   -0.8290    1.4550 C.2     1  UNL1        0.0000
     12  C          5.4130    0.3280    1.8110 C.2     1  UNL1        0.0000
@<TRIPOS>BOND
     1     5     4    1
     2     3     2    2
     3     4     2    1
     4     2     1    1
     5     1     6    1
     6     6     7    1
     7     7     8    2
     8     7     9    1
     9     8    10    1
    10     9    11    2
    11    10    12    2
    12    11    12    1
