@<TRIPOS>MOLECULE
/home/cewinharhar/GITHUB/reincatalyze/data/processed/docking_pred/2023-May-05-1615_maxeplen10_maxtrainstep1000_seadep16_gamma099_lrac9e-4_lrcr1e-3/f3c5d297feb9947f67baa3310bcd1cfc63c32b25_ligand_2.pdbqt
 12 12 0 0 0
SMALL
GASTEIGER

@<TRIPOS>ATOM
      1  C          7.2470   -1.2270   -2.1980 C.3     1  UNL1        0.1270
      2  C          8.6870   -1.2910   -2.5450 C.2     1  UNL1        0.3030
      3  O          9.4970   -0.4300   -2.1210 O.2     1  UNL1       -0.2520
      4  O          9.1790   -2.3050   -3.3500 O.3     1  UNL1       -0.4810
      5  H          9.3820   -3.2190   -2.9360 H       1  UNL1        0.2960
      6  C          7.1170   -1.3330   -0.7090 C.3     1  UNL1        0.0470
      7  C          6.3690   -0.2350   -0.0990 C.2     1  UNL1       -0.0470
      8  C          5.9430   -0.3140    1.2070 C.2     1  UNL1        0.0040
      9  C          6.0950    0.8880   -0.8460 C.2     1  UNL1        0.0040
     10  C          5.2360    0.7730    1.7250 C.2     1  UNL1        0.0000
     11  C          5.3950    1.9610   -0.3320 C.2     1  UNL1        0.0000
     12  C          4.9640    1.8900    0.9750 C.2     1  UNL1        0.0000
@<TRIPOS>BOND
     1     4     5    1
     2     4     2    1
     3     2     1    1
     4     2     3    2
     5     1     6    1
     6     9    11    1
     7     9     7    2
     8     6     7    1
     9    11    12    2
    10     7     8    1
    11    12    10    1
    12     8    10    2
