MODEL 1
REMARK VINA RESULT:      -7.3      0.000      0.000
REMARK SMILES O=C(O)CCc1ccccc1
REMARK SMILES IDX 4 1 2 2 1 3 3 4 5 6 6 7 7 8 11 9 8 10 10 11 9 12
REMARK H PARENT 3 5
REMARK Flexibility Score: inf
ROOT
ATOM      1  C   UNL     1       8.400  -0.648  -2.086  1.00  0.00     0.127 C 
ENDROOT
BRANCH   1   2
ATOM      2  C   UNL     1       8.370  -1.899  -2.880  1.00  0.00     0.303 C 
ATOM      3  O   UNL     1       7.283  -2.409  -3.250  1.00  0.00    -0.252 OA
BRANCH   2   4
ATOM      4  O   UNL     1       9.544  -2.543  -3.236  1.00  0.00    -0.481 OA
ATOM      5  H   UNL     1      10.190  -2.084  -3.884  1.00  0.00     0.296 HD
ENDBRANCH   2   4
ENDBRANCH   1   2
BRANCH   1   6
ATOM      6  C   UNL     1       7.021  -0.063  -2.076  1.00  0.00     0.047 C 
BRANCH   6   7
ATOM      7  C   UNL     1       6.454   0.102  -0.739  1.00  0.00    -0.047 A 
ATOM      8  C   UNL     1       5.798   1.260  -0.391  1.00  0.00     0.004 A 
ATOM      9  C   UNL     1       6.582  -0.918   0.175  1.00  0.00     0.004 A 
ATOM     10  C   UNL     1       5.282   1.349   0.904  1.00  0.00     0.000 A 
ATOM     11  C   UNL     1       6.071  -0.829   1.455  1.00  0.00     0.000 A 
ATOM     12  C   UNL     1       5.413   0.328   1.811  1.00  0.00     0.000 A 
ENDBRANCH   6   7
ENDBRANCH   1   6
TORSDOF 4
ENDMDL
