MODEL 1
REMARK VINA RESULT:      -6.5      0.000      0.000
REMARK SMILES O=C(O)CCc1ccccc1
REMARK SMILES IDX 4 1 2 2 1 3 3 4 5 6 6 7 7 8 11 9 8 10 10 11 9 12
REMARK H PARENT 3 5
REMARK Flexibility Score: inf
ROOT
ATOM      1  C   UNL     1       8.319  -0.696  -2.157  1.00  0.00     0.127 C 
ENDROOT
BRANCH   1   2
ATOM      2  C   UNL     1       8.442  -1.957  -2.927  1.00  0.00     0.303 C 
ATOM      3  O   UNL     1       9.557  -2.509  -3.097  1.00  0.00    -0.252 OA
BRANCH   2   4
ATOM      4  O   UNL     1       7.325  -2.562  -3.481  1.00  0.00    -0.481 OA
ATOM      5  H   UNL     1       7.449  -3.353  -4.119  1.00  0.00     0.296 HD
ENDBRANCH   2   4
ENDBRANCH   1   2
BRANCH   1   6
ATOM      6  C   UNL     1       6.891  -0.545  -1.727  1.00  0.00     0.047 C 
BRANCH   6   7
ATOM      7  C   UNL     1       6.683  -0.713  -0.290  1.00  0.00    -0.047 A 
ATOM      8  C   UNL     1       7.282  -1.746   0.392  1.00  0.00     0.004 A 
ATOM      9  C   UNL     1       5.878   0.179   0.381  1.00  0.00     0.004 A 
ATOM     10  C   UNL     1       7.039  -1.845   1.764  1.00  0.00     0.000 A 
ATOM     11  C   UNL     1       5.639   0.080   1.737  1.00  0.00     0.000 A 
ATOM     12  C   UNL     1       6.235  -0.953   2.427  1.00  0.00     0.000 A 
ENDBRANCH   6   7
ENDBRANCH   1   6
TORSDOF 4
ENDMDL
MODEL 2
REMARK VINA RESULT:      -6.3      3.196      4.945
REMARK SMILES O=C(O)CCc1ccccc1
REMARK SMILES IDX 4 1 2 2 1 3 3 4 5 6 6 7 7 8 11 9 8 10 10 11 9 12
REMARK H PARENT 3 5
REMARK Flexibility Score: inf
ROOT
ATOM      1  C   UNL     1       5.967  -0.894   1.789  1.00  0.00     0.127 C 
ENDROOT
BRANCH   1   2
ATOM      2  C   UNL     1       5.389   0.445   2.052  1.00  0.00     0.303 C 
ATOM      3  O   UNL     1       4.209   0.576   2.462  1.00  0.00    -0.252 OA
BRANCH   2   4
ATOM      4  O   UNL     1       6.137   1.594   1.851  1.00  0.00    -0.481 OA
ATOM      5  H   UNL     1       6.945   1.562   1.223  1.00  0.00     0.296 HD
ENDBRANCH   2   4
ENDBRANCH   1   2
BRANCH   1   6
ATOM      6  C   UNL     1       7.426  -0.726   1.492  1.00  0.00     0.047 C 
BRANCH   6   7
ATOM      7  C   UNL     1       7.736  -0.634   0.067  1.00  0.00    -0.047 A 
ATOM      8  C   UNL     1       8.874   0.006  -0.365  1.00  0.00     0.004 A 
ATOM      9  C   UNL     1       6.875  -1.199  -0.846  1.00  0.00     0.004 A 
ATOM     10  C   UNL     1       9.107   0.056  -1.742  1.00  0.00     0.000 A 
ATOM     11  C   UNL     1       7.107  -1.149  -2.206  1.00  0.00     0.000 A 
ATOM     12  C   UNL     1       8.245  -0.509  -2.647  1.00  0.00     0.000 A 
ENDBRANCH   6   7
ENDBRANCH   1   6
TORSDOF 4
ENDMDL
MODEL 3
REMARK VINA RESULT:      -6.1      3.463      5.108
REMARK SMILES O=C(O)CCc1ccccc1
REMARK SMILES IDX 4 1 2 2 1 3 3 4 5 6 6 7 7 8 11 9 8 10 10 11 9 12
REMARK H PARENT 3 5
REMARK Flexibility Score: inf
ROOT
ATOM      1  C   UNL     1       5.073  -0.126   2.034  1.00  0.00     0.127 C 
ENDROOT
BRANCH   1   2
ATOM      2  C   UNL     1       4.396   1.191   1.971  1.00  0.00     0.303 C 
ATOM      3  O   UNL     1       4.915   2.161   1.364  1.00  0.00    -0.252 OA
BRANCH   2   4
ATOM      4  O   UNL     1       3.168   1.389   2.581  1.00  0.00    -0.481 OA
ATOM      5  H   UNL     1       2.323   1.017   2.139  1.00  0.00     0.296 HD
ENDBRANCH   2   4
ENDBRANCH   1   2
BRANCH   1   6
ATOM      6  C   UNL     1       6.525   0.076   1.727  1.00  0.00     0.047 C 
BRANCH   6   7
ATOM      7  C   UNL     1       7.007  -0.708   0.591  1.00  0.00    -0.047 A 
ATOM      8  C   UNL     1       6.633  -0.388  -0.693  1.00  0.00     0.004 A 
ATOM      9  C   UNL     1       7.847  -1.774   0.819  1.00  0.00     0.004 A 
ATOM     10  C   UNL     1       7.132  -1.179  -1.730  1.00  0.00     0.000 A 
ATOM     11  C   UNL     1       8.339  -2.555  -0.208  1.00  0.00     0.000 A 
ATOM     12  C   UNL     1       7.968  -2.242  -1.497  1.00  0.00     0.000 A 
ENDBRANCH   6   7
ENDBRANCH   1   6
TORSDOF 4
ENDMDL
MODEL 4
REMARK VINA RESULT:      -5.9      1.596      2.381
REMARK SMILES O=C(O)CCc1ccccc1
REMARK SMILES IDX 4 1 2 2 1 3 3 4 5 6 6 7 7 8 11 9 8 10 10 11 9 12
REMARK H PARENT 3 5
REMARK Flexibility Score: inf
ROOT
ATOM      1  C   UNL     1       8.253  -1.295  -1.968  1.00  0.00     0.127 C 
ENDROOT
BRANCH   1   2
ATOM      2  C   UNL     1       8.913   0.031  -2.028  1.00  0.00     0.303 C 
ATOM      3  O   UNL     1       8.405   0.982  -2.672  1.00  0.00    -0.252 OA
BRANCH   2   4
ATOM      4  O   UNL     1      10.113   0.257  -1.374  1.00  0.00    -0.481 OA
ATOM      5  H   UNL     1      10.126   0.300  -0.351  1.00  0.00     0.296 HD
ENDBRANCH   2   4
ENDBRANCH   1   2
BRANCH   1   6
ATOM      6  C   UNL     1       6.808  -1.086  -1.629  1.00  0.00     0.047 C 
BRANCH   6   7
ATOM      7  C   UNL     1       6.554  -0.893  -0.202  1.00  0.00    -0.047 A 
ATOM      8  C   UNL     1       5.839   0.194   0.244  1.00  0.00     0.004 A 
ATOM      9  C   UNL     1       7.038  -1.815   0.697  1.00  0.00     0.004 A 
ATOM     10  C   UNL     1       5.634   0.314   1.621  1.00  0.00     0.000 A 
ATOM     11  C   UNL     1       6.835  -1.694   2.057  1.00  0.00     0.000 A 
ATOM     12  C   UNL     1       6.120  -0.608   2.513  1.00  0.00     0.000 A 
ENDBRANCH   6   7
ENDBRANCH   1   6
TORSDOF 4
ENDMDL
