@<TRIPOS>MOLECULE
/home/cewinharhar/GITHUB/reincatalyze/data/processed/docking_pred/2023-May-05-1615_maxeplen10_maxtrainstep1000_seadep16_gamma099_lrac9e-4_lrcr1e-3/f411d25023d78b520541a26d40866fe70d26d332_ligand_2.pdbqt
 12 12 0 0 0
SMALL
GASTEIGER

@<TRIPOS>ATOM
      1  C          5.0730   -0.1260    2.0340 C.3     1  UNL1        0.1270
      2  C          4.3960    1.1910    1.9710 C.2     1  UNL1        0.3030
      3  O          4.9150    2.1610    1.3640 O.2     1  UNL1       -0.2520
      4  O          3.1680    1.3890    2.5810 O.3     1  UNL1       -0.4810
      5  H          2.3230    1.0170    2.1390 H       1  UNL1        0.2960
      6  C          6.5250    0.0760    1.7270 C.3     1  UNL1        0.0470
      7  C          7.0070   -0.7080    0.5910 C.2     1  UNL1       -0.0470
      8  C          6.6330   -0.3880   -0.6930 C.2     1  UNL1        0.0040
      9  C          7.8470   -1.7740    0.8190 C.2     1  UNL1        0.0040
     10  C          7.1320   -1.1790   -1.7300 C.2     1  UNL1        0.0000
     11  C          8.3390   -2.5550   -0.2080 C.2     1  UNL1        0.0000
     12  C          7.9680   -2.2420   -1.4970 C.2     1  UNL1        0.0000
@<TRIPOS>BOND
     1    10    12    2
     2    10     8    1
     3    12    11    1
     4     8     7    2
     5    11     9    2
     6     7     9    1
     7     7     6    1
     8     3     2    2
     9     6     1    1
    10     2     1    1
    11     2     4    1
    12     5     4    1
