@<TRIPOS>MOLECULE
/home/cewinharhar/GITHUB/reincatalyze/data/processed/docking_pred/2023-May-05-1615_maxeplen10_maxtrainstep1000_seadep16_gamma099_lrac9e-4_lrcr1e-3/f411d25023d78b520541a26d40866fe70d26d332_ligand_2.pdbqt
 12 12 0 0 0
SMALL
GASTEIGER

@<TRIPOS>ATOM
      1  C          8.3190   -0.6960   -2.1570 C.3     1  UNL1        0.1270
      2  C          8.4420   -1.9570   -2.9270 C.2     1  UNL1        0.3030
      3  O          9.5570   -2.5090   -3.0970 O.2     1  UNL1       -0.2520
      4  O          7.3250   -2.5620   -3.4810 O.3     1  UNL1       -0.4810
      5  H          7.4490   -3.3530   -4.1190 H       1  UNL1        0.2960
      6  C          6.8910   -0.5450   -1.7270 C.3     1  UNL1        0.0470
      7  C          6.6830   -0.7130   -0.2900 C.2     1  UNL1       -0.0470
      8  C          7.2820   -1.7460    0.3920 C.2     1  UNL1        0.0040
      9  C          5.8780    0.1790    0.3810 C.2     1  UNL1        0.0040
     10  C          7.0390   -1.8450    1.7640 C.2     1  UNL1        0.0000
     11  C          5.6390    0.0800    1.7370 C.2     1  UNL1        0.0000
     12  C          6.2350   -0.9530    2.4270 C.2     1  UNL1        0.0000
@<TRIPOS>BOND
     1     5     4    1
     2     4     2    1
     3     3     2    2
     4     2     1    1
     5     1     6    1
     6     6     7    1
     7     7     9    2
     8     7     8    1
     9     9    11    1
    10     8    10    2
    11    11    12    2
    12    10    12    1
