@<TRIPOS>MOLECULE
/home/cewinharhar/GITHUB/reincatalyze/data/processed/docking_pred/2023-May-05-1615_maxeplen10_maxtrainstep1000_seadep16_gamma099_lrac9e-4_lrcr1e-3/f411d25023d78b520541a26d40866fe70d26d332_ligand_2.pdbqt
 12 12 0 0 0
SMALL
GASTEIGER

@<TRIPOS>ATOM
      1  C          8.2530   -1.2950   -1.9680 C.3     1  UNL1        0.1270
      2  C          8.9130    0.0310   -2.0280 C.2     1  UNL1        0.3030
      3  O          8.4050    0.9820   -2.6720 O.2     1  UNL1       -0.2520
      4  O         10.1130    0.2570   -1.3740 O.3     1  UNL1       -0.4810
      5  H         10.1260    0.3000   -0.3510 H       1  UNL1        0.2960
      6  C          6.8080   -1.0860   -1.6290 C.3     1  UNL1        0.0470
      7  C          6.5540   -0.8930   -0.2020 C.2     1  UNL1       -0.0470
      8  C          5.8390    0.1940    0.2440 C.2     1  UNL1        0.0040
      9  C          7.0380   -1.8150    0.6970 C.2     1  UNL1        0.0040
     10  C          5.6340    0.3140    1.6210 C.2     1  UNL1        0.0000
     11  C          6.8350   -1.6940    2.0570 C.2     1  UNL1        0.0000
     12  C          6.1200   -0.6080    2.5130 C.2     1  UNL1        0.0000
@<TRIPOS>BOND
     1     3     2    2
     2     2     1    1
     3     2     4    1
     4     1     6    1
     5     6     7    1
     6     4     5    1
     7     7     8    2
     8     7     9    1
     9     8    10    1
    10     9    11    2
    11    10    12    2
    12    11    12    1
