@<TRIPOS>MOLECULE
/home/cewinharhar/GITHUB/reincatalyze/data/processed/docking_pred/2023-May-05-1615_maxeplen10_maxtrainstep1000_seadep16_gamma099_lrac9e-4_lrcr1e-3/f411d25023d78b520541a26d40866fe70d26d332_ligand_2.pdbqt
 12 12 0 0 0
SMALL
GASTEIGER

@<TRIPOS>ATOM
      1  C          5.9670   -0.8940    1.7890 C.3     1  UNL1        0.1270
      2  C          5.3890    0.4450    2.0520 C.2     1  UNL1        0.3030
      3  O          4.2090    0.5760    2.4620 O.2     1  UNL1       -0.2520
      4  O          6.1370    1.5940    1.8510 O.3     1  UNL1       -0.4810
      5  H          6.9450    1.5620    1.2230 H       1  UNL1        0.2960
      6  C          7.4260   -0.7260    1.4920 C.3     1  UNL1        0.0470
      7  C          7.7360   -0.6340    0.0670 C.2     1  UNL1       -0.0470
      8  C          8.8740    0.0060   -0.3650 C.2     1  UNL1        0.0040
      9  C          6.8750   -1.1990   -0.8460 C.2     1  UNL1        0.0040
     10  C          9.1070    0.0560   -1.7420 C.2     1  UNL1        0.0000
     11  C          7.1070   -1.1490   -2.2060 C.2     1  UNL1        0.0000
     12  C          8.2450   -0.5090   -2.6470 C.2     1  UNL1        0.0000
@<TRIPOS>BOND
     1    12    11    2
     2    12    10    1
     3    11     9    1
     4    10     8    2
     5     9     7    2
     6     8     7    1
     7     7     6    1
     8     5     4    1
     9     6     1    1
    10     1     2    1
    11     4     2    1
    12     2     3    2
