@<TRIPOS>MOLECULE
/home/cewinharhar/GITHUB/reincatalyze/data/processed/docking_pred/2023-May-05-1615_maxeplen10_maxtrainstep1000_seadep16_gamma099_lrac9e-4_lrcr1e-3/f43d8cd6194682d8f3e5600fbc578d0750565092_ligand_2.pdbqt
 12 12 0 0 0
SMALL
GASTEIGER

@<TRIPOS>ATOM
      1  C          8.4070   -0.6620   -2.0700 C.3     1  UNL1        0.1270
      2  C          8.3760   -1.9060   -2.8740 C.2     1  UNL1        0.3030
      3  O          7.2890   -2.4120   -3.2490 O.2     1  UNL1       -0.2520
      4  O          9.5490   -2.5480   -3.2350 O.3     1  UNL1       -0.4810
      5  H          9.6130   -3.5660   -3.1430 H       1  UNL1        0.2960
      6  C          7.0310   -0.0690   -2.0670 C.3     1  UNL1        0.0470
      7  C          6.4600    0.1000   -0.7320 C.2     1  UNL1       -0.0470
      8  C          5.8060    1.2610   -0.3880 C.2     1  UNL1        0.0040
      9  C          6.5810   -0.9190    0.1840 C.2     1  UNL1        0.0040
     10  C          5.2850    1.3530    0.9040 C.2     1  UNL1        0.0000
     11  C          6.0640   -0.8260    1.4620 C.2     1  UNL1        0.0000
     12  C          5.4090    0.3340    1.8140 C.2     1  UNL1        0.0000
@<TRIPOS>BOND
     1     3     2    2
     2     4     5    1
     3     4     2    1
     4     2     1    1
     5     1     6    1
     6     6     7    1
     7     7     8    2
     8     7     9    1
     9     8    10    1
    10     9    11    2
    11    10    12    2
    12    11    12    1
