@<TRIPOS>MOLECULE
/home/cewinharhar/GITHUB/reincatalyze/data/processed/docking_pred/2023-May-05-1615_maxeplen10_maxtrainstep1000_seadep16_gamma099_lrac9e-4_lrcr1e-3/f56adf6440abdf94ed5aca5eaefea0329b307251_ligand_2.pdbqt
 12 12 0 0 0
SMALL
GASTEIGER

@<TRIPOS>ATOM
      1  C          8.4050   -0.6640   -2.0670 C.3     1  UNL1        0.1270
      2  C          8.3740   -1.9070   -2.8730 C.2     1  UNL1        0.3030
      3  O          7.2870   -2.4100   -3.2520 O.2     1  UNL1       -0.2520
      4  O          9.5470   -2.5500   -3.2320 O.3     1  UNL1       -0.4810
      5  H         10.2300   -2.0580   -3.8140 H       1  UNL1        0.2960
      6  C          7.0300   -0.0690   -2.0640 C.3     1  UNL1        0.0470
      7  C          6.4580    0.1010   -0.7300 C.2     1  UNL1       -0.0470
      8  C          5.8040    1.2620   -0.3880 C.2     1  UNL1        0.0040
      9  C          6.5790   -0.9170    0.1880 C.2     1  UNL1        0.0040
     10  C          5.2820    1.3560    0.9040 C.2     1  UNL1        0.0000
     11  C          6.0630   -0.8220    1.4650 C.2     1  UNL1        0.0000
     12  C          5.4070    0.3370    1.8150 C.2     1  UNL1        0.0000
@<TRIPOS>BOND
     1     5     4    1
     2     3     2    2
     3     4     2    1
     4     2     1    1
     5     1     6    1
     6     6     7    1
     7     7     8    2
     8     7     9    1
     9     8    10    1
    10     9    11    2
    11    10    12    2
    12    11    12    1
