@<TRIPOS>MOLECULE
/home/cewinharhar/GITHUB/reincatalyze/data/processed/docking_pred/2023-May-05-1615_maxeplen10_maxtrainstep1000_seadep16_gamma099_lrac9e-4_lrcr1e-3/f56adf6440abdf94ed5aca5eaefea0329b307251_ligand_2.pdbqt
 12 12 0 0 0
SMALL
GASTEIGER

@<TRIPOS>ATOM
      1  C          5.0200    1.7780    0.6570 C.3     1  UNL1        0.1270
      2  C          4.5670    1.1170    1.9040 C.2     1  UNL1        0.3030
      3  O          3.4430    1.3720    2.4040 O.2     1  UNL1       -0.2520
      4  O          5.3740    0.1980    2.5540 O.3     1  UNL1       -0.4810
      5  H          5.8200    0.4590    3.4380 H       1  UNL1        0.2960
      6  C          6.5170    1.8480    0.6790 C.3     1  UNL1        0.0470
      7  C          7.1640    1.0640   -0.3720 C.2     1  UNL1       -0.0470
      8  C          8.4970    1.2430   -0.6630 C.2     1  UNL1        0.0040
      9  C          6.4240    0.1390   -1.0720 C.2     1  UNL1        0.0040
     10  C          9.0490    0.4590   -1.6780 C.2     1  UNL1        0.0000
     11  C          6.9720   -0.6340   -2.0760 C.2     1  UNL1        0.0000
     12  C          8.3060   -0.4620   -2.3740 C.2     1  UNL1        0.0000
@<TRIPOS>BOND
     1    12    11    2
     2    12    10    1
     3    11     9    1
     4    10     8    2
     5     9     7    2
     6     8     7    1
     7     7     6    1
     8     1     6    1
     9     1     2    1
    10     2     3    2
    11     2     4    1
    12     4     5    1
