@<TRIPOS>MOLECULE
/home/cewinharhar/GITHUB/reincatalyze/data/processed/docking_pred/2023-May-05-1615_maxeplen10_maxtrainstep1000_seadep16_gamma099_lrac9e-4_lrcr1e-3/f5d21a1fca5b46740ede221944c3c0743e15dd7f_ligand_2.pdbqt
 12 12 0 0 0
SMALL
GASTEIGER

@<TRIPOS>ATOM
      1  C          8.3500   -0.5340   -2.2760 C.3     1  UNL1        0.1270
      2  C          8.4280   -1.8450   -2.9620 C.2     1  UNL1        0.3030
      3  O          9.5260   -2.4320   -3.1220 O.2     1  UNL1       -0.2520
      4  O          7.2850   -2.4620   -3.4460 O.3     1  UNL1       -0.4810
      5  H          7.1010   -3.4390   -3.2020 H       1  UNL1        0.2960
      6  C          7.0450   -0.4610   -1.5450 C.3     1  UNL1        0.0470
      7  C          6.8710    0.7600   -0.7590 C.2     1  UNL1       -0.0470
      8  C          7.9330    1.3240   -0.0920 C.2     1  UNL1        0.0040
      9  C          5.6270    1.3440   -0.6940 C.2     1  UNL1        0.0040
     10  C          7.6940    2.4910    0.6380 C.2     1  UNL1        0.0000
     11  C          5.3920    2.4970    0.0290 C.2     1  UNL1        0.0000
     12  C          6.4510    3.0690    0.7000 C.2     1  UNL1        0.0000
@<TRIPOS>BOND
     1     4     5    1
     2     4     2    1
     3     3     2    2
     4     2     1    1
     5     1     6    1
     6     6     7    1
     7     7     9    2
     8     7     8    1
     9     9    11    1
    10     8    10    2
    11    11    12    2
    12    10    12    1
