MODEL 1
REMARK VINA RESULT:      -7.1      0.000      0.000
REMARK SMILES O=C(O)CCc1ccccc1
REMARK SMILES IDX 4 1 2 2 1 3 3 4 5 6 6 7 7 8 11 9 8 10 10 11 9 12
REMARK H PARENT 3 5
REMARK Flexibility Score: inf
ROOT
ATOM      1  C   UNL     1       8.424  -0.640  -2.130  1.00  0.00     0.127 C 
ENDROOT
BRANCH   1   2
ATOM      2  C   UNL     1       8.468  -1.903  -2.904  1.00  0.00     0.303 C 
ATOM      3  O   UNL     1       9.549  -2.514  -3.092  1.00  0.00    -0.252 OA
BRANCH   2   4
ATOM      4  O   UNL     1       7.313  -2.446  -3.443  1.00  0.00    -0.481 OA
ATOM      5  H   UNL     1       6.481  -1.858  -3.542  1.00  0.00     0.296 HD
ENDBRANCH   2   4
ENDBRANCH   1   2
BRANCH   1   6
ATOM      6  C   UNL     1       7.011  -0.141  -2.124  1.00  0.00     0.047 C 
BRANCH   6   7
ATOM      7  C   UNL     1       6.455   0.054  -0.786  1.00  0.00    -0.047 A 
ATOM      8  C   UNL     1       5.821   1.228  -0.452  1.00  0.00     0.004 A 
ATOM      9  C   UNL     1       6.571  -0.954   0.143  1.00  0.00     0.004 A 
ATOM     10  C   UNL     1       5.313   1.345   0.844  1.00  0.00     0.000 A 
ATOM     11  C   UNL     1       6.069  -0.837   1.423  1.00  0.00     0.000 A 
ATOM     12  C   UNL     1       5.432   0.336   1.766  1.00  0.00     0.000 A 
ENDBRANCH   6   7
ENDBRANCH   1   6
TORSDOF 4
ENDMDL
MODEL 2
REMARK VINA RESULT:      -6.8      1.403      1.973
REMARK SMILES O=C(O)CCc1ccccc1
REMARK SMILES IDX 4 1 2 2 1 3 3 4 5 6 6 7 7 8 11 9 8 10 10 11 9 12
REMARK H PARENT 3 5
REMARK Flexibility Score: inf
ROOT
ATOM      1  C   UNL     1       8.350  -0.534  -2.276  1.00  0.00     0.127 C 
ENDROOT
BRANCH   1   2
ATOM      2  C   UNL     1       8.428  -1.845  -2.962  1.00  0.00     0.303 C 
ATOM      3  O   UNL     1       9.526  -2.432  -3.122  1.00  0.00    -0.252 OA
BRANCH   2   4
ATOM      4  O   UNL     1       7.285  -2.462  -3.446  1.00  0.00    -0.481 OA
ATOM      5  H   UNL     1       7.101  -3.439  -3.202  1.00  0.00     0.296 HD
ENDBRANCH   2   4
ENDBRANCH   1   2
BRANCH   1   6
ATOM      6  C   UNL     1       7.045  -0.461  -1.545  1.00  0.00     0.047 C 
BRANCH   6   7
ATOM      7  C   UNL     1       6.871   0.760  -0.759  1.00  0.00    -0.047 A 
ATOM      8  C   UNL     1       7.933   1.324  -0.092  1.00  0.00     0.004 A 
ATOM      9  C   UNL     1       5.627   1.344  -0.694  1.00  0.00     0.004 A 
ATOM     10  C   UNL     1       7.694   2.491   0.638  1.00  0.00     0.000 A 
ATOM     11  C   UNL     1       5.392   2.497   0.029  1.00  0.00     0.000 A 
ATOM     12  C   UNL     1       6.451   3.069   0.700  1.00  0.00     0.000 A 
ENDBRANCH   6   7
ENDBRANCH   1   6
TORSDOF 4
ENDMDL
