@<TRIPOS>MOLECULE
/home/cewinharhar/GITHUB/reincatalyze/data/processed/docking_pred/2023-May-05-1615_maxeplen10_maxtrainstep1000_seadep16_gamma099_lrac9e-4_lrcr1e-3/f5d21a1fca5b46740ede221944c3c0743e15dd7f_ligand_2.pdbqt
 12 12 0 0 0
SMALL
GASTEIGER

@<TRIPOS>ATOM
      1  C          8.4240   -0.6400   -2.1300 C.3     1  UNL1        0.1270
      2  C          8.4680   -1.9030   -2.9040 C.2     1  UNL1        0.3030
      3  O          9.5490   -2.5140   -3.0920 O.2     1  UNL1       -0.2520
      4  O          7.3130   -2.4460   -3.4430 O.3     1  UNL1       -0.4810
      5  H          6.4810   -1.8580   -3.5420 H       1  UNL1        0.2960
      6  C          7.0110   -0.1410   -2.1240 C.3     1  UNL1        0.0470
      7  C          6.4550    0.0540   -0.7860 C.2     1  UNL1       -0.0470
      8  C          5.8210    1.2280   -0.4520 C.2     1  UNL1        0.0040
      9  C          6.5710   -0.9540    0.1430 C.2     1  UNL1        0.0040
     10  C          5.3130    1.3450    0.8440 C.2     1  UNL1        0.0000
     11  C          6.0690   -0.8370    1.4230 C.2     1  UNL1        0.0000
     12  C          5.4320    0.3360    1.7660 C.2     1  UNL1        0.0000
@<TRIPOS>BOND
     1     5     4    1
     2     4     2    1
     3     3     2    2
     4     2     1    1
     5     1     6    1
     6     6     7    1
     7     7     8    2
     8     7     9    1
     9     8    10    1
    10     9    11    2
    11    10    12    2
    12    11    12    1
