@<TRIPOS>MOLECULE
/home/cewinharhar/GITHUB/reincatalyze/data/processed/docking_pred/2023-May-05-1615_maxeplen10_maxtrainstep1000_seadep16_gamma099_lrac9e-4_lrcr1e-3/f6b0a6d65051a5b20d9eb350202399160ef0f891_ligand_2.pdbqt
 12 12 0 0 0
SMALL
GASTEIGER

@<TRIPOS>ATOM
      1  C          8.3200   -0.5930   -2.1370 C.3     1  UNL1        0.1270
      2  C          8.3320   -1.8590   -2.9070 C.2     1  UNL1        0.3030
      3  O          7.2640   -2.4040   -3.2800 O.2     1  UNL1       -0.2520
      4  O          9.5270   -2.4780   -3.2370 O.3     1  UNL1       -0.4810
      5  H         10.1650   -2.7660   -2.4900 H       1  UNL1        0.2960
      6  C          6.9580   -0.4220   -1.5340 C.3     1  UNL1        0.0470
      7  C          6.8090    0.7960   -0.7400 C.2     1  UNL1       -0.0470
      8  C          7.8940    1.3650   -0.1140 C.2     1  UNL1        0.0040
      9  C          5.5660    1.3750   -0.6250 C.2     1  UNL1        0.0040
     10  C          7.6780    2.5280    0.6280 C.2     1  UNL1        0.0000
     11  C          5.3540    2.5250    0.1090 C.2     1  UNL1        0.0000
     12  C          6.4360    3.1000    0.7400 C.2     1  UNL1        0.0000
@<TRIPOS>BOND
     1     3     2    2
     2     4     2    1
     3     4     5    1
     4     2     1    1
     5     1     6    1
     6     6     7    1
     7     7     9    2
     8     7     8    1
     9     9    11    1
    10     8    10    2
    11    11    12    2
    12    10    12    1
