MODEL 1
REMARK VINA RESULT:      -7.1      0.000      0.000
REMARK SMILES O=C(O)CCc1ccccc1
REMARK SMILES IDX 4 1 2 2 1 3 3 4 5 6 6 7 7 8 11 9 8 10 10 11 9 12
REMARK H PARENT 3 5
REMARK Flexibility Score: inf
ROOT
ATOM      1  C   UNL     1       8.446  -0.671  -2.061  1.00  0.00     0.127 C 
ENDROOT
BRANCH   1   2
ATOM      2  C   UNL     1       8.474  -1.916  -2.864  1.00  0.00     0.303 C 
ATOM      3  O   UNL     1       9.550  -2.527  -3.080  1.00  0.00    -0.252 OA
BRANCH   2   4
ATOM      4  O   UNL     1       7.310  -2.441  -3.401  1.00  0.00    -0.481 OA
ATOM      5  H   UNL     1       6.682  -2.983  -2.802  1.00  0.00     0.296 HD
ENDBRANCH   2   4
ENDBRANCH   1   2
BRANCH   1   6
ATOM      6  C   UNL     1       7.048  -0.132  -2.077  1.00  0.00     0.047 C 
BRANCH   6   7
ATOM      7  C   UNL     1       6.467   0.055  -0.749  1.00  0.00    -0.047 A 
ATOM      8  C   UNL     1       5.820   1.225  -0.422  1.00  0.00     0.004 A 
ATOM      9  C   UNL     1       6.572  -0.956   0.178  1.00  0.00     0.004 A 
ATOM     10  C   UNL     1       5.289   1.334   0.865  1.00  0.00     0.000 A 
ATOM     11  C   UNL     1       6.046  -0.846   1.450  1.00  0.00     0.000 A 
ATOM     12  C   UNL     1       5.397   0.322   1.785  1.00  0.00     0.000 A 
ENDBRANCH   6   7
ENDBRANCH   1   6
TORSDOF 4
ENDMDL
MODEL 2
REMARK VINA RESULT:      -6.6      1.392      2.216
REMARK SMILES O=C(O)CCc1ccccc1
REMARK SMILES IDX 4 1 2 2 1 3 3 4 5 6 6 7 7 8 11 9 8 10 10 11 9 12
REMARK H PARENT 3 5
REMARK Flexibility Score: inf
ROOT
ATOM      1  C   UNL     1       8.323  -0.606  -2.106  1.00  0.00     0.127 C 
ENDROOT
BRANCH   1   2
ATOM      2  C   UNL     1       8.329  -1.869  -2.882  1.00  0.00     0.303 C 
ATOM      3  O   UNL     1       7.259  -2.400  -3.269  1.00  0.00    -0.252 OA
BRANCH   2   4
ATOM      4  O   UNL     1       9.521  -2.499  -3.204  1.00  0.00    -0.481 OA
ATOM      5  H   UNL     1      10.290  -2.490  -2.528  1.00  0.00     0.296 HD
ENDBRANCH   2   4
ENDBRANCH   1   2
BRANCH   1   6
ATOM      6  C   UNL     1       6.976  -0.453  -1.468  1.00  0.00     0.047 C 
BRANCH   6   7
ATOM      7  C   UNL     1       6.814   0.790  -0.715  1.00  0.00    -0.047 A 
ATOM      8  C   UNL     1       7.893   1.393  -0.111  1.00  0.00     0.004 A 
ATOM      9  C   UNL     1       5.564   1.356  -0.615  1.00  0.00     0.004 A 
ATOM     10  C   UNL     1       7.664   2.578   0.592  1.00  0.00     0.000 A 
ATOM     11  C   UNL     1       5.339   2.527   0.080  1.00  0.00     0.000 A 
ATOM     12  C   UNL     1       6.415   3.138   0.688  1.00  0.00     0.000 A 
ENDBRANCH   6   7
ENDBRANCH   1   6
TORSDOF 4
ENDMDL
