@<TRIPOS>MOLECULE
/home/cewinharhar/GITHUB/reincatalyze/data/processed/docking_pred/2023-May-05-1615_maxeplen10_maxtrainstep1000_seadep16_gamma099_lrac9e-4_lrcr1e-3/f6e3ea477952fa895fac814ddb6280364cb1460b_ligand_2.pdbqt
 12 12 0 0 0
SMALL
GASTEIGER

@<TRIPOS>ATOM
      1  C          8.4460   -0.6710   -2.0610 C.3     1  UNL1        0.1270
      2  C          8.4740   -1.9160   -2.8640 C.2     1  UNL1        0.3030
      3  O          9.5500   -2.5270   -3.0800 O.2     1  UNL1       -0.2520
      4  O          7.3100   -2.4410   -3.4010 O.3     1  UNL1       -0.4810
      5  H          6.6820   -2.9830   -2.8020 H       1  UNL1        0.2960
      6  C          7.0480   -0.1320   -2.0770 C.3     1  UNL1        0.0470
      7  C          6.4670    0.0550   -0.7490 C.2     1  UNL1       -0.0470
      8  C          5.8200    1.2250   -0.4220 C.2     1  UNL1        0.0040
      9  C          6.5720   -0.9560    0.1780 C.2     1  UNL1        0.0040
     10  C          5.2890    1.3340    0.8650 C.2     1  UNL1        0.0000
     11  C          6.0460   -0.8460    1.4500 C.2     1  UNL1        0.0000
     12  C          5.3970    0.3220    1.7850 C.2     1  UNL1        0.0000
@<TRIPOS>BOND
     1     4     2    1
     2     4     5    1
     3     3     2    2
     4     2     1    1
     5     6     1    1
     6     6     7    1
     7     7     8    2
     8     7     9    1
     9     8    10    1
    10     9    11    2
    11    10    12    2
    12    11    12    1
