@<TRIPOS>MOLECULE
/home/cewinharhar/GITHUB/reincatalyze/data/processed/docking_pred/2023-May-05-1615_maxeplen10_maxtrainstep1000_seadep16_gamma099_lrac9e-4_lrcr1e-3/f6e3ea477952fa895fac814ddb6280364cb1460b_ligand_2.pdbqt
 12 12 0 0 0
SMALL
GASTEIGER

@<TRIPOS>ATOM
      1  C          8.3230   -0.6060   -2.1060 C.3     1  UNL1        0.1270
      2  C          8.3290   -1.8690   -2.8820 C.2     1  UNL1        0.3030
      3  O          7.2590   -2.4000   -3.2690 O.2     1  UNL1       -0.2520
      4  O          9.5210   -2.4990   -3.2040 O.3     1  UNL1       -0.4810
      5  H         10.2900   -2.4900   -2.5280 H       1  UNL1        0.2960
      6  C          6.9760   -0.4530   -1.4680 C.3     1  UNL1        0.0470
      7  C          6.8140    0.7900   -0.7150 C.2     1  UNL1       -0.0470
      8  C          7.8930    1.3930   -0.1110 C.2     1  UNL1        0.0040
      9  C          5.5640    1.3560   -0.6150 C.2     1  UNL1        0.0040
     10  C          7.6640    2.5780    0.5920 C.2     1  UNL1        0.0000
     11  C          5.3390    2.5270    0.0800 C.2     1  UNL1        0.0000
     12  C          6.4150    3.1380    0.6880 C.2     1  UNL1        0.0000
@<TRIPOS>BOND
     1     3     2    2
     2     4     2    1
     3     4     5    1
     4     2     1    1
     5     1     6    1
     6     6     7    1
     7     7     9    2
     8     7     8    1
     9     9    11    1
    10     8    10    2
    11    11    12    2
    12    10    12    1
