MODEL 1
REMARK VINA RESULT:      -7.3      0.000      0.000
REMARK SMILES O=C(O)CCc1ccccc1
REMARK SMILES IDX 4 1 2 2 1 3 3 4 5 6 6 7 7 8 11 9 8 10 10 11 9 12
REMARK H PARENT 3 5
REMARK Flexibility Score: inf
ROOT
ATOM      1  C   UNL     1       8.402  -0.650  -2.084  1.00  0.00     0.127 C 
ENDROOT
BRANCH   1   2
ATOM      2  C   UNL     1       8.372  -1.901  -2.878  1.00  0.00     0.303 C 
ATOM      3  O   UNL     1       7.286  -2.410  -3.250  1.00  0.00    -0.252 OA
BRANCH   2   4
ATOM      4  O   UNL     1       9.547  -2.544  -3.234  1.00  0.00    -0.481 OA
ATOM      5  H   UNL     1      10.175  -2.102  -3.911  1.00  0.00     0.296 HD
ENDBRANCH   2   4
ENDBRANCH   1   2
BRANCH   1   6
ATOM      6  C   UNL     1       7.022  -0.066  -2.075  1.00  0.00     0.047 C 
BRANCH   6   7
ATOM      7  C   UNL     1       6.456   0.101  -0.737  1.00  0.00    -0.047 A 
ATOM      8  C   UNL     1       5.801   1.260  -0.390  1.00  0.00     0.004 A 
ATOM      9  C   UNL     1       6.582  -0.919   0.177  1.00  0.00     0.004 A 
ATOM     10  C   UNL     1       5.284   1.350   0.904  1.00  0.00     0.000 A 
ATOM     11  C   UNL     1       6.071  -0.829   1.456  1.00  0.00     0.000 A 
ATOM     12  C   UNL     1       5.414   0.329   1.812  1.00  0.00     0.000 A 
ENDBRANCH   6   7
ENDBRANCH   1   6
TORSDOF 4
ENDMDL
MODEL 2
REMARK VINA RESULT:      -7.0      1.031      1.951
REMARK SMILES O=C(O)CCc1ccccc1
REMARK SMILES IDX 4 1 2 2 1 3 3 4 5 6 6 7 7 8 11 9 8 10 10 11 9 12
REMARK H PARENT 3 5
REMARK Flexibility Score: inf
ROOT
ATOM      1  C   UNL     1       7.257  -1.264  -2.169  1.00  0.00     0.127 C 
ENDROOT
BRANCH   1   2
ATOM      2  C   UNL     1       8.697  -1.312  -2.518  1.00  0.00     0.303 C 
ATOM      3  O   UNL     1       9.501  -0.451  -2.083  1.00  0.00    -0.252 OA
BRANCH   2   4
ATOM      4  O   UNL     1       9.195  -2.311  -3.338  1.00  0.00    -0.481 OA
ATOM      5  H   UNL     1      10.176  -2.591  -3.247  1.00  0.00     0.296 HD
ENDBRANCH   2   4
ENDBRANCH   1   2
BRANCH   1   6
ATOM      6  C   UNL     1       7.131  -1.359  -0.679  1.00  0.00     0.047 C 
BRANCH   6   7
ATOM      7  C   UNL     1       6.373  -0.265  -0.075  1.00  0.00    -0.047 A 
ATOM      8  C   UNL     1       5.930  -0.349   1.224  1.00  0.00     0.004 A 
ATOM      9  C   UNL     1       6.106   0.859  -0.822  1.00  0.00     0.004 A 
ATOM     10  C   UNL     1       5.213   0.735   1.736  1.00  0.00     0.000 A 
ATOM     11  C   UNL     1       5.397   1.929  -0.315  1.00  0.00     0.000 A 
ATOM     12  C   UNL     1       4.949   1.853   0.986  1.00  0.00     0.000 A 
ENDBRANCH   6   7
ENDBRANCH   1   6
TORSDOF 4
ENDMDL
