@<TRIPOS>MOLECULE
/home/cewinharhar/GITHUB/reincatalyze/data/processed/docking_pred/2023-May-05-1615_maxeplen10_maxtrainstep1000_seadep16_gamma099_lrac9e-4_lrcr1e-3/f9550a52c30547fdb3e6e224a3b8a38c5560e948_ligand_2.pdbqt
 12 12 0 0 0
SMALL
GASTEIGER

@<TRIPOS>ATOM
      1  C          7.2570   -1.2640   -2.1690 C.3     1  UNL1        0.1270
      2  C          8.6970   -1.3120   -2.5180 C.2     1  UNL1        0.3030
      3  O          9.5010   -0.4510   -2.0830 O.2     1  UNL1       -0.2520
      4  O          9.1950   -2.3110   -3.3380 O.3     1  UNL1       -0.4810
      5  H         10.1760   -2.5910   -3.2470 H       1  UNL1        0.2960
      6  C          7.1310   -1.3590   -0.6790 C.3     1  UNL1        0.0470
      7  C          6.3730   -0.2650   -0.0750 C.2     1  UNL1       -0.0470
      8  C          5.9300   -0.3490    1.2240 C.2     1  UNL1        0.0040
      9  C          6.1060    0.8590   -0.8220 C.2     1  UNL1        0.0040
     10  C          5.2130    0.7350    1.7360 C.2     1  UNL1        0.0000
     11  C          5.3970    1.9290   -0.3150 C.2     1  UNL1        0.0000
     12  C          4.9490    1.8530    0.9860 C.2     1  UNL1        0.0000
@<TRIPOS>BOND
     1     4     5    1
     2     4     2    1
     3     2     1    1
     4     2     3    2
     5     1     6    1
     6     9    11    1
     7     9     7    2
     8     6     7    1
     9    11    12    2
    10     7     8    1
    11    12    10    1
    12     8    10    2
