@<TRIPOS>MOLECULE
/home/cewinharhar/GITHUB/reincatalyze/data/processed/docking_pred/2023-May-05-1615_maxeplen10_maxtrainstep1000_seadep16_gamma099_lrac9e-4_lrcr1e-3/faf685cb0c2e1ff185f0c147bdf23d27aa2a460b_ligand_2.pdbqt
 12 12 0 0 0
SMALL
GASTEIGER

@<TRIPOS>ATOM
      1  C          7.2520   -1.2490   -2.1750 C.3     1  UNL1        0.1270
      2  C          8.6900   -1.3070   -2.5280 C.2     1  UNL1        0.3030
      3  O          9.4990   -0.4460   -2.1020 O.2     1  UNL1       -0.2520
      4  O          9.1820   -2.3160   -3.3400 O.3     1  UNL1       -0.4810
      5  H          8.5310   -2.9880   -3.7530 H       1  UNL1        0.2960
      6  C          7.1290   -1.3360   -0.6840 C.3     1  UNL1        0.0470
      7  C          6.3770   -0.2340   -0.0850 C.2     1  UNL1       -0.0470
      8  C          5.9420   -0.3070    1.2180 C.2     1  UNL1        0.0040
      9  C          6.1080    0.8840   -0.8400 C.2     1  UNL1        0.0040
     10  C          5.2310    0.7830    1.7260 C.2     1  UNL1        0.0000
     11  C          5.4050    1.9600   -0.3360 C.2     1  UNL1        0.0000
     12  C          4.9650    1.8950    0.9680 C.2     1  UNL1        0.0000
@<TRIPOS>BOND
     1     5     4    1
     2     4     2    1
     3     2     1    1
     4     2     3    2
     5     1     6    1
     6     9    11    1
     7     9     7    2
     8     6     7    1
     9    11    12    2
    10     7     8    1
    11    12    10    1
    12     8    10    2
