@<TRIPOS>MOLECULE
/home/cewinharhar/GITHUB/reincatalyze/data/processed/docking_pred/2023-May-05-1615_maxeplen10_maxtrainstep1000_seadep16_gamma099_lrac9e-4_lrcr1e-3/faf685cb0c2e1ff185f0c147bdf23d27aa2a460b_ligand_2.pdbqt
 12 12 0 0 0
SMALL
GASTEIGER

@<TRIPOS>ATOM
      1  C          8.4080   -0.6560   -2.0730 C.3     1  UNL1        0.1270
      2  C          8.3770   -1.8980   -2.8820 C.2     1  UNL1        0.3030
      3  O          7.2890   -2.4110   -3.2440 O.2     1  UNL1       -0.2520
      4  O          9.5510   -2.5290   -3.2600 O.3     1  UNL1       -0.4810
      5  H         10.4460   -2.1670   -2.9190 H       1  UNL1        0.2960
      6  C          7.0320   -0.0620   -2.0700 C.3     1  UNL1        0.0470
      7  C          6.4610    0.1060   -0.7350 C.2     1  UNL1       -0.0470
      8  C          5.8080    1.2670   -0.3910 C.2     1  UNL1        0.0040
      9  C          6.5790   -0.9140    0.1790 C.2     1  UNL1        0.0040
     10  C          5.2860    1.3580    0.9010 C.2     1  UNL1        0.0000
     11  C          6.0620   -0.8230    1.4560 C.2     1  UNL1        0.0000
     12  C          5.4080    0.3370    1.8100 C.2     1  UNL1        0.0000
@<TRIPOS>BOND
     1     4     5    1
     2     4     2    1
     3     3     2    2
     4     2     1    1
     5     1     6    1
     6     6     7    1
     7     7     8    2
     8     7     9    1
     9     8    10    1
    10     9    11    2
    11    10    12    2
    12    11    12    1
