@<TRIPOS>MOLECULE
/home/cewinharhar/GITHUB/reincatalyze/data/processed/docking_pred/2023-May-05-1615_maxeplen10_maxtrainstep1000_seadep16_gamma099_lrac9e-4_lrcr1e-3/fc1d4194c005f01296b9c57c803e441f6dc40ccd_ligand_2.pdbqt
 12 12 0 0 0
SMALL
GASTEIGER

@<TRIPOS>ATOM
      1  C          8.4080   -0.6560   -2.0750 C.3     1  UNL1        0.1270
      2  C          8.3770   -1.8980   -2.8820 C.2     1  UNL1        0.3030
      3  O          7.2890   -2.4120   -3.2440 O.2     1  UNL1       -0.2520
      4  O          9.5510   -2.5300   -3.2590 O.3     1  UNL1       -0.4810
      5  H         10.4460   -2.1680   -2.9180 H       1  UNL1        0.2960
      6  C          7.0320   -0.0620   -2.0710 C.3     1  UNL1        0.0470
      7  C          6.4600    0.1060   -0.7360 C.2     1  UNL1       -0.0470
      8  C          5.8080    1.2660   -0.3910 C.2     1  UNL1        0.0040
      9  C          6.5790   -0.9150    0.1780 C.2     1  UNL1        0.0040
     10  C          5.2860    1.3570    0.9010 C.2     1  UNL1        0.0000
     11  C          6.0630   -0.8240    1.4550 C.2     1  UNL1        0.0000
     12  C          5.4080    0.3360    1.8090 C.2     1  UNL1        0.0000
@<TRIPOS>BOND
     1     4     5    1
     2     4     2    1
     3     3     2    2
     4     2     1    1
     5     1     6    1
     6     6     7    1
     7     7     8    2
     8     7     9    1
     9     8    10    1
    10     9    11    2
    11    10    12    2
    12    11    12    1
