@<TRIPOS>MOLECULE
/home/cewinharhar/GITHUB/reincatalyze/data/processed/docking_pred/2023-May-05-1615_maxeplen10_maxtrainstep1000_seadep16_gamma099_lrac9e-4_lrcr1e-3/fd751eb3811fc03d22e30b1993ea0072812fb772_ligand_2.pdbqt
 12 12 0 0 0
SMALL
GASTEIGER

@<TRIPOS>ATOM
      1  C          7.2990   -1.2890   -2.1850 C.3     1  UNL1        0.1270
      2  C          8.7440   -1.3700   -2.5020 C.2     1  UNL1        0.3030
      3  O          9.2110   -2.3250   -3.1720 O.2     1  UNL1       -0.2520
      4  O          9.6230   -0.3910   -2.0670 O.3     1  UNL1       -0.4810
      5  H          9.4250    0.5910   -2.2800 H       1  UNL1        0.2960
      6  C          7.1350   -1.4130   -0.7010 C.3     1  UNL1        0.0470
      7  C          6.3960   -0.3090   -0.0900 C.2     1  UNL1       -0.0470
      8  C          5.9470   -0.3960    1.2070 C.2     1  UNL1        0.0040
      9  C          6.1540    0.8260   -0.8280 C.2     1  UNL1        0.0040
     10  C          5.2490    0.6970    1.7260 C.2     1  UNL1        0.0000
     11  C          5.4640    1.9050   -0.3140 C.2     1  UNL1        0.0000
     12  C          5.0100    1.8260    0.9850 C.2     1  UNL1        0.0000
@<TRIPOS>BOND
     1     3     2    2
     2     2     1    1
     3     2     4    1
     4     5     4    1
     5     1     6    1
     6     9    11    1
     7     9     7    2
     8     6     7    1
     9    11    12    2
    10     7     8    1
    11    12    10    1
    12     8    10    2
