MODEL 1
REMARK VINA RESULT:      -7.3      0.000      0.000
REMARK SMILES O=C(O)CCc1ccccc1
REMARK SMILES IDX 4 1 2 2 1 3 3 4 5 6 6 7 7 8 11 9 8 10 10 11 9 12
REMARK H PARENT 3 5
REMARK Flexibility Score: inf
ROOT
ATOM      1  C   UNL     1       8.402  -0.653  -2.080  1.00  0.00     0.127 C 
ENDROOT
BRANCH   1   2
ATOM      2  C   UNL     1       8.372  -1.901  -2.879  1.00  0.00     0.303 C 
ATOM      3  O   UNL     1       7.286  -2.411  -3.249  1.00  0.00    -0.252 OA
BRANCH   2   4
ATOM      4  O   UNL     1       9.546  -2.542  -3.238  1.00  0.00    -0.481 OA
ATOM      5  H   UNL     1      10.368  -1.982  -3.483  1.00  0.00     0.296 HD
ENDBRANCH   2   4
ENDBRANCH   1   2
BRANCH   1   6
ATOM      6  C   UNL     1       7.023  -0.066  -2.073  1.00  0.00     0.047 C 
BRANCH   6   7
ATOM      7  C   UNL     1       6.455   0.101  -0.736  1.00  0.00    -0.047 A 
ATOM      8  C   UNL     1       5.802   1.261  -0.390  1.00  0.00     0.004 A 
ATOM      9  C   UNL     1       6.579  -0.919   0.179  1.00  0.00     0.004 A 
ATOM     10  C   UNL     1       5.283   1.352   0.904  1.00  0.00     0.000 A 
ATOM     11  C   UNL     1       6.066  -0.828   1.457  1.00  0.00     0.000 A 
ATOM     12  C   UNL     1       5.410   0.331   1.812  1.00  0.00     0.000 A 
ENDBRANCH   6   7
ENDBRANCH   1   6
TORSDOF 4
ENDMDL
MODEL 2
REMARK VINA RESULT:      -6.8      1.040      1.929
REMARK SMILES O=C(O)CCc1ccccc1
REMARK SMILES IDX 4 1 2 2 1 3 3 4 5 6 6 7 7 8 11 9 8 10 10 11 9 12
REMARK H PARENT 3 5
REMARK Flexibility Score: inf
ROOT
ATOM      1  C   UNL     1       7.299  -1.289  -2.185  1.00  0.00     0.127 C 
ENDROOT
BRANCH   1   2
ATOM      2  C   UNL     1       8.744  -1.370  -2.502  1.00  0.00     0.303 C 
ATOM      3  O   UNL     1       9.211  -2.325  -3.172  1.00  0.00    -0.252 OA
BRANCH   2   4
ATOM      4  O   UNL     1       9.623  -0.391  -2.067  1.00  0.00    -0.481 OA
ATOM      5  H   UNL     1       9.425   0.591  -2.280  1.00  0.00     0.296 HD
ENDBRANCH   2   4
ENDBRANCH   1   2
BRANCH   1   6
ATOM      6  C   UNL     1       7.135  -1.413  -0.701  1.00  0.00     0.047 C 
BRANCH   6   7
ATOM      7  C   UNL     1       6.396  -0.309  -0.090  1.00  0.00    -0.047 A 
ATOM      8  C   UNL     1       5.947  -0.396   1.207  1.00  0.00     0.004 A 
ATOM      9  C   UNL     1       6.154   0.826  -0.828  1.00  0.00     0.004 A 
ATOM     10  C   UNL     1       5.249   0.697   1.726  1.00  0.00     0.000 A 
ATOM     11  C   UNL     1       5.464   1.905  -0.314  1.00  0.00     0.000 A 
ATOM     12  C   UNL     1       5.010   1.826   0.985  1.00  0.00     0.000 A 
ENDBRANCH   6   7
ENDBRANCH   1   6
TORSDOF 4
ENDMDL
