@<TRIPOS>MOLECULE
/home/cewinharhar/GITHUB/reincatalyze/data/processed/docking_pred/2023-May-05-1615_maxeplen10_maxtrainstep1000_seadep16_gamma099_lrac9e-4_lrcr1e-3/feafc10279513d02e8af3e746adeb4d8bf3b3c68_ligand_2.pdbqt
 12 12 0 0 0
SMALL
GASTEIGER

@<TRIPOS>ATOM
      1  C          7.2630   -1.2850   -2.1570 C.3     1  UNL1        0.1270
      2  C          8.7020   -1.3230   -2.5090 C.2     1  UNL1        0.3030
      3  O          9.5020   -0.4590   -2.0710 O.2     1  UNL1       -0.2520
      4  O          9.2050   -2.3150   -3.3340 O.3     1  UNL1       -0.4810
      5  H          8.6680   -3.1760   -3.4680 H       1  UNL1        0.2960
      6  C          7.1410   -1.3610   -0.6650 C.3     1  UNL1        0.0470
      7  C          6.3790   -0.2620   -0.0750 C.2     1  UNL1       -0.0470
      8  C          5.9300   -0.3350    1.2230 C.2     1  UNL1        0.0040
      9  C          6.1150    0.8550   -0.8330 C.2     1  UNL1        0.0040
     10  C          5.2090    0.7520    1.7230 C.2     1  UNL1        0.0000
     11  C          5.4020    1.9290   -0.3380 C.2     1  UNL1        0.0000
     12  C          4.9480    1.8630    0.9620 C.2     1  UNL1        0.0000
@<TRIPOS>BOND
     1     5     4    1
     2     4     2    1
     3     2     1    1
     4     2     3    2
     5     1     6    1
     6     9    11    1
     7     9     7    2
     8     6     7    1
     9    11    12    2
    10     7     8    1
    11    12    10    1
    12     8    10    2
