MODEL 1
REMARK VINA RESULT:      -7.3      0.000      0.000
REMARK SMILES O=C(O)CCc1ccccc1
REMARK SMILES IDX 4 1 2 2 1 3 3 4 5 6 6 7 7 8 11 9 8 10 10 11 9 12
REMARK H PARENT 3 5
REMARK Flexibility Score: inf
ROOT
ATOM      1  C   UNL     1       8.398  -0.642  -2.093  1.00  0.00     0.127 C 
ENDROOT
BRANCH   1   2
ATOM      2  C   UNL     1       8.370  -1.897  -2.880  1.00  0.00     0.303 C 
ATOM      3  O   UNL     1       7.284  -2.409  -3.251  1.00  0.00    -0.252 OA
BRANCH   2   4
ATOM      4  O   UNL     1       9.545  -2.543  -3.230  1.00  0.00    -0.481 OA
ATOM      5  H   UNL     1      10.089  -3.019  -2.506  1.00  0.00     0.296 HD
ENDBRANCH   2   4
ENDBRANCH   1   2
BRANCH   1   6
ATOM      6  C   UNL     1       7.016  -0.063  -2.080  1.00  0.00     0.047 C 
BRANCH   6   7
ATOM      7  C   UNL     1       6.454   0.103  -0.741  1.00  0.00    -0.047 A 
ATOM      8  C   UNL     1       5.798   1.261  -0.392  1.00  0.00     0.004 A 
ATOM      9  C   UNL     1       6.584  -0.917   0.173  1.00  0.00     0.004 A 
ATOM     10  C   UNL     1       5.285   1.349   0.904  1.00  0.00     0.000 A 
ATOM     11  C   UNL     1       6.077  -0.827   1.454  1.00  0.00     0.000 A 
ATOM     12  C   UNL     1       5.419   0.329   1.812  1.00  0.00     0.000 A 
ENDBRANCH   6   7
ENDBRANCH   1   6
TORSDOF 4
ENDMDL
MODEL 2
REMARK VINA RESULT:      -7.0      1.033      1.954
REMARK SMILES O=C(O)CCc1ccccc1
REMARK SMILES IDX 4 1 2 2 1 3 3 4 5 6 6 7 7 8 11 9 8 10 10 11 9 12
REMARK H PARENT 3 5
REMARK Flexibility Score: inf
ROOT
ATOM      1  C   UNL     1       7.263  -1.285  -2.157  1.00  0.00     0.127 C 
ENDROOT
BRANCH   1   2
ATOM      2  C   UNL     1       8.702  -1.323  -2.509  1.00  0.00     0.303 C 
ATOM      3  O   UNL     1       9.502  -0.459  -2.071  1.00  0.00    -0.252 OA
BRANCH   2   4
ATOM      4  O   UNL     1       9.205  -2.315  -3.334  1.00  0.00    -0.481 OA
ATOM      5  H   UNL     1       8.668  -3.176  -3.468  1.00  0.00     0.296 HD
ENDBRANCH   2   4
ENDBRANCH   1   2
BRANCH   1   6
ATOM      6  C   UNL     1       7.141  -1.361  -0.665  1.00  0.00     0.047 C 
BRANCH   6   7
ATOM      7  C   UNL     1       6.379  -0.262  -0.075  1.00  0.00    -0.047 A 
ATOM      8  C   UNL     1       5.930  -0.335   1.223  1.00  0.00     0.004 A 
ATOM      9  C   UNL     1       6.115   0.855  -0.833  1.00  0.00     0.004 A 
ATOM     10  C   UNL     1       5.209   0.752   1.723  1.00  0.00     0.000 A 
ATOM     11  C   UNL     1       5.402   1.929  -0.338  1.00  0.00     0.000 A 
ATOM     12  C   UNL     1       4.948   1.863   0.962  1.00  0.00     0.000 A 
ENDBRANCH   6   7
ENDBRANCH   1   6
TORSDOF 4
ENDMDL
