
     RDKit          3D

 18 18  0  0  0  0  0  0  0  0999 V2000
    2.5535    1.1488    0.9213 O   0  0  0  0  0  0  0  0  0  0  0  0
    2.4338   -0.1718    0.6295 C   0  0  0  0  0  0  0  0  0  0  0  0
    3.3271   -0.9364    1.1420 O   0  0  0  0  0  0  0  0  0  0  0  0
    1.4122   -0.8564   -0.1937 C   0  0  0  0  0  0  0  0  0  0  0  0
    0.0853   -0.3000   -0.1890 C   0  0  0  0  0  0  0  0  0  0  0  0
   -0.2408    0.9996   -0.4590 C   0  0  0  0  0  0  0  0  0  0  0  0
   -1.5363    1.4290   -0.4619 C   0  0  0  0  0  0  0  0  0  0  0  0
   -2.5824    0.5487   -0.1921 C   0  0  0  0  0  0  0  0  0  0  0  0
   -2.2817   -0.7710    0.0904 C   0  0  0  0  0  0  0  0  0  0  0  0
   -0.9768   -1.1581    0.0856 C   0  0  0  0  0  0  0  0  0  0  0  0
    3.3535    1.6651    0.5632 H   0  0  0  0  0  0  0  0  0  0  0  0
    1.7670   -1.0186   -1.2252 H   0  0  0  0  0  0  0  0  0  0  0  0
    1.3446   -1.9259    0.2480 H   0  0  0  0  0  0  0  0  0  0  0  0
    0.5859    1.6824   -0.6797 H   0  0  0  0  0  0  0  0  0  0  0  0
   -1.7427    2.4828   -0.6856 H   0  0  0  0  0  0  0  0  0  0  0  0
   -3.5956    0.8881   -0.2093 H   0  0  0  0  0  0  0  0  0  0  0  0
   -3.0825   -1.4751    0.2934 H   0  0  0  0  0  0  0  0  0  0  0  0
   -0.8242   -2.2312    0.3221 H   0  0  0  0  0  0  0  0  0  0  0  0
  1  2  1  0
  2  3  2  0
  2  4  1  0
  4  5  1  0
  5  6  2  0
  6  7  1  0
  7  8  2  0
  8  9  1  0
  9 10  2  0
 10  5  1  0
  1 11  1  0
  4 12  1  0
  4 13  1  0
  6 14  1  0
  7 15  1  0
  8 16  1  0
  9 17  1  0
 10 18  1  0
M  END
