REMARK SMILES COc1cccc(CCC(=O)O)c1
REMARK SMILES IDX 8 1 7 2 3 3 4 4 13 5 5 6 6 7 2 8 1 9 9 10 10 11 11 12 12 13
REMARK H PARENT 12 14
REMARK Flexibility Score: inf
ROOT
ATOM      1  C   UNL     1      -1.622   0.902   0.260  1.00  0.00     0.047 C 
ENDROOT
BRANCH   1   2
ATOM      2  C   UNL     1      -0.316   0.443  -0.259  1.00  0.00    -0.044 A 
ATOM      3  C   UNL     1       1.999  -0.175   0.050  1.00  0.00     0.119 A 
ATOM      4  C   UNL     1       2.150  -0.434  -1.303  1.00  0.00     0.046 A 
ATOM      5  C   UNL     1       0.786   0.254   0.548  1.00  0.00     0.050 A 
ATOM      6  C   UNL     1       1.056  -0.249  -2.124  1.00  0.00     0.004 A 
ATOM      7  C   UNL     1      -0.153   0.181  -1.606  1.00  0.00     0.004 A 
BRANCH   3   8
ATOM      8  O   UNL     1       3.109  -0.361   0.887  1.00  0.00    -0.497 OA
ATOM      9  C   UNL     1       4.338  -0.797   0.371  1.00  0.00     0.278 C 
ENDBRANCH   3   8
ENDBRANCH   1   2
BRANCH   1  10
ATOM     10  C   UNL     1      -2.510  -0.249   0.673  1.00  0.00     0.127 C 
BRANCH  10  11
ATOM     11  C   UNL     1      -3.788   0.320   1.176  1.00  0.00     0.303 C 
ATOM     12  O   UNL     1      -3.997   1.560   1.212  1.00  0.00    -0.252 OA
BRANCH  11  13
ATOM     13  O   UNL     1      -4.794  -0.543   1.626  1.00  0.00    -0.481 OA
ATOM     14  H   UNL     1      -5.753  -0.188   1.529  1.00  0.00     0.296 HD
ENDBRANCH  11  13
ENDBRANCH  10  11
ENDBRANCH   1  10
TORSDOF 5
