REMARK SMILES COc1cc(CCC(=O)O)ccc1O
REMARK SMILES IDX 6 1 5 2 3 3 4 4 13 5 12 6 11 7 2 8 1 9 14 10 7 12 8 13 9 14
REMARK SMILES IDX 10 15
REMARK H PARENT 14 11 10 16
REMARK Flexibility Score: inf
ROOT
ATOM      1  C   UNL     1       1.847   0.500   0.567  1.00  0.00     0.047 C 
ENDROOT
BRANCH   1   2
ATOM      2  C   UNL     1       0.462  -0.102   0.595  1.00  0.00    -0.043 A 
ATOM      3  C   UNL     1      -1.878   0.001   0.013  1.00  0.00     0.160 A 
ATOM      4  C   UNL     1      -0.585   0.537  -0.001  1.00  0.00     0.054 A 
ATOM      5  C   UNL     1      -2.057  -1.246   0.678  1.00  0.00     0.157 A 
ATOM      6  C   UNL     1      -1.001  -1.881   1.273  1.00  0.00     0.050 A 
ATOM      7  C   UNL     1       0.245  -1.307   1.227  1.00  0.00     0.008 A 
BRANCH   3   8
ATOM      8  O   UNL     1      -2.857   0.603  -0.546  1.00  0.00    -0.493 OA
ATOM      9  C   UNL     1      -3.840   1.216  -1.112  1.00  0.00     0.278 C 
ENDBRANCH   3   8
BRANCH   5  10
ATOM     10  O   UNL     1      -3.324  -1.773   0.692  1.00  0.00    -0.504 OA
ATOM     11  H   UNL     1      -4.082  -1.281   0.247  1.00  0.00     0.293 HD
ENDBRANCH   5  10
ENDBRANCH   1   2
BRANCH   1  12
ATOM     12  C   UNL     1       2.576   0.019  -0.652  1.00  0.00     0.127 C 
BRANCH  12  13
ATOM     13  C   UNL     1       3.945   0.584  -0.713  1.00  0.00     0.303 C 
ATOM     14  O   UNL     1       4.167   1.736  -1.184  1.00  0.00    -0.252 OA
BRANCH  13  15
ATOM     15  O   UNL     1       5.013  -0.147  -0.251  1.00  0.00    -0.481 OA
ATOM     16  H   UNL     1       5.796   0.326   0.212  1.00  0.00     0.296 HD
ENDBRANCH  13  15
ENDBRANCH  12  13
ENDBRANCH   1  12
TORSDOF 6
