
     RDKit          3D

 23 23  0  0  0  0  0  0  0  0999 V2000
    3.8260    0.0144    0.4127 C   0  0  0  0  0  0  0  0  0  0  0  0
    2.6789   -0.8797    0.0481 C   0  0  0  0  0  0  0  0  0  0  0  0
    2.7906   -1.9148   -0.5740 O   0  0  0  0  0  0  0  0  0  0  0  0
    1.3216   -0.4606    0.4760 C   0  0  0  0  0  0  0  0  0  0  0  0
    0.4735   -0.3962   -0.7763 C   0  0  0  0  0  0  0  0  0  0  0  0
   -0.9319    0.0223   -0.4976 C   0  0  0  0  0  0  0  0  0  0  0  0
   -1.8788   -0.9406   -0.2599 C   0  0  0  0  0  0  0  0  0  0  0  0
   -3.2056   -0.6182    0.0058 C   0  0  0  0  0  0  0  0  0  0  0  0
   -3.5288    0.7217    0.0200 C   0  0  0  0  0  0  0  0  0  0  0  0
   -2.5999    1.7089   -0.2159 C   0  0  0  0  0  0  0  0  0  0  0  0
   -1.2960    1.3554   -0.4755 C   0  0  0  0  0  0  0  0  0  0  0  0
    4.7450   -0.5756    0.3594 H   0  0  0  0  0  0  0  0  0  0  0  0
    3.8007    0.8489   -0.3446 H   0  0  0  0  0  0  0  0  0  0  0  0
    3.6275    0.4645    1.4130 H   0  0  0  0  0  0  0  0  0  0  0  0
    0.9120   -1.2944    1.0855 H   0  0  0  0  0  0  0  0  0  0  0  0
    1.3024    0.5201    0.9785 H   0  0  0  0  0  0  0  0  0  0  0  0
    0.4985   -1.3952   -1.2630 H   0  0  0  0  0  0  0  0  0  0  0  0
    0.9427    0.3103   -1.4901 H   0  0  0  0  0  0  0  0  0  0  0  0
   -1.6152   -1.9856   -0.2762 H   0  0  0  0  0  0  0  0  0  0  0  0
   -3.9041   -1.4163    0.1855 H   0  0  0  0  0  0  0  0  0  0  0  0
   -4.5463    1.0399    0.2238 H   0  0  0  0  0  0  0  0  0  0  0  0
   -2.8827    2.7647   -0.1979 H   0  0  0  0  0  0  0  0  0  0  0  0
   -0.5303    2.1063   -0.6645 H   0  0  0  0  0  0  0  0  0  0  0  0
  1  2  1  0
  2  3  2  0
  2  4  1  0
  4  5  1  0
  5  6  1  0
  6  7  2  0
  7  8  1  0
  8  9  2  0
  9 10  1  0
 10 11  2  0
 11  6  1  0
  1 12  1  0
  1 13  1  0
  1 14  1  0
  4 15  1  0
  4 16  1  0
  5 17  1  0
  5 18  1  0
  7 19  1  0
  8 20  1  0
  9 21  1  0
 10 22  1  0
 11 23  1  0
M  END
