
     RDKit          3D

 23 23  0  0  0  0  0  0  0  0999 V2000
    3.6748    0.1971    0.9038 C   0  0  0  0  0  0  0  0  0  0  0  0
    2.7637    0.5577   -0.2201 C   0  0  0  0  0  0  0  0  0  0  0  0
    3.2355    0.8253   -1.3279 O   0  0  0  0  0  0  0  0  0  0  0  0
    1.2866    0.6209   -0.0982 C   0  0  0  0  0  0  0  0  0  0  0  0
    0.6115   -0.5648   -0.7471 C   0  0  0  0  0  0  0  0  0  0  0  0
   -0.8618   -0.3859   -0.5617 C   0  0  0  0  0  0  0  0  0  0  0  0
   -1.4976   -0.8786    0.5707 C   0  0  0  0  0  0  0  0  0  0  0  0
   -2.8618   -0.6967    0.7151 C   0  0  0  0  0  0  0  0  0  0  0  0
   -3.6093   -0.0410   -0.2334 C   0  0  0  0  0  0  0  0  0  0  0  0
   -2.9765    0.4557   -1.3722 C   0  0  0  0  0  0  0  0  0  0  0  0
   -1.6209    0.2691   -1.5034 C   0  0  0  0  0  0  0  0  0  0  0  0
    4.0315   -0.8524    0.8311 H   0  0  0  0  0  0  0  0  0  0  0  0
    3.1969    0.3739    1.8907 H   0  0  0  0  0  0  0  0  0  0  0  0
    4.5732    0.8513    0.8791 H   0  0  0  0  0  0  0  0  0  0  0  0
    1.0223    0.6090    0.9763 H   0  0  0  0  0  0  0  0  0  0  0  0
    0.9037    1.5279   -0.6215 H   0  0  0  0  0  0  0  0  0  0  0  0
    0.9296   -1.4786   -0.1947 H   0  0  0  0  0  0  0  0  0  0  0  0
    0.8858   -0.6702   -1.8172 H   0  0  0  0  0  0  0  0  0  0  0  0
   -0.9237   -1.4032    1.3434 H   0  0  0  0  0  0  0  0  0  0  0  0
   -3.3897   -1.0671    1.5936 H   0  0  0  0  0  0  0  0  0  0  0  0
   -4.6892    0.1115   -0.1453 H   0  0  0  0  0  0  0  0  0  0  0  0
   -3.5589    0.9825   -2.1446 H   0  0  0  0  0  0  0  0  0  0  0  0
   -1.1259    0.6566   -2.4027 H   0  0  0  0  0  0  0  0  0  0  0  0
  1  2  1  0
  2  3  2  0
  2  4  1  0
  4  5  1  0
  5  6  1  0
  6  7  2  0
  7  8  1  0
  8  9  2  0
  9 10  1  0
 10 11  2  0
 11  6  1  0
  1 12  1  0
  1 13  1  0
  1 14  1  0
  4 15  1  0
  4 16  1  0
  5 17  1  0
  5 18  1  0
  7 19  1  0
  8 20  1  0
  9 21  1  0
 10 22  1  0
 11 23  1  0
M  END
