
     RDKit          3D

 26 27  0  0  0  0  0  0  0  0999 V2000
   -4.3637    0.3379    1.1224 C   0  0  0  0  0  0  0  0  0  0  0  0
   -3.4637   -0.1816    0.0557 C   0  0  0  0  0  0  0  0  0  0  0  0
   -3.8610   -0.7996   -0.9105 O   0  0  0  0  0  0  0  0  0  0  0  0
   -2.0082    0.0878    0.2124 C   0  0  0  0  0  0  0  0  0  0  0  0
   -1.2033   -0.4873   -0.9293 C   0  0  0  0  0  0  0  0  0  0  0  0
    0.2226   -0.1677   -0.6812 C   0  0  0  0  0  0  0  0  0  0  0  0
    0.7192    1.0160   -1.1879 C   0  0  0  0  0  0  0  0  0  0  0  0
    2.0586    1.3628   -0.9806 C   0  0  0  0  0  0  0  0  0  0  0  0
    2.8436    0.4823   -0.2596 C   0  0  0  0  0  0  0  0  0  0  0  0
    4.2008    0.6343    0.0608 O   0  0  0  0  0  0  0  0  0  0  0  0
    4.6077   -0.5746    0.6720 C   0  0  0  0  0  0  0  0  0  0  0  0
    3.4272   -1.3190    0.9106 O   0  0  0  0  0  0  0  0  0  0  0  0
    2.3752   -0.6977    0.2535 C   0  0  0  0  0  0  0  0  0  0  0  0
    1.0364   -1.0216    0.0337 C   0  0  0  0  0  0  0  0  0  0  0  0
   -3.8112    0.3922    2.0827 H   0  0  0  0  0  0  0  0  0  0  0  0
   -4.6680    1.3888    0.8827 H   0  0  0  0  0  0  0  0  0  0  0  0
   -5.2389   -0.3357    1.2034 H   0  0  0  0  0  0  0  0  0  0  0  0
   -1.6962   -0.4237    1.1547 H   0  0  0  0  0  0  0  0  0  0  0  0
   -1.8646    1.1734    0.3239 H   0  0  0  0  0  0  0  0  0  0  0  0
   -1.3871   -1.5530   -1.0498 H   0  0  0  0  0  0  0  0  0  0  0  0
   -1.5726    0.0124   -1.8614 H   0  0  0  0  0  0  0  0  0  0  0  0
    0.1134    1.7114   -1.7530 H   0  0  0  0  0  0  0  0  0  0  0  0
    2.4637    2.2842   -1.3695 H   0  0  0  0  0  0  0  0  0  0  0  0
    5.1246   -0.2931    1.6232 H   0  0  0  0  0  0  0  0  0  0  0  0
    5.2941   -1.0846   -0.0382 H   0  0  0  0  0  0  0  0  0  0  0  0
    0.6514   -1.9444    0.4294 H   0  0  0  0  0  0  0  0  0  0  0  0
  1  2  1  0
  2  3  2  0
  2  4  1  0
  4  5  1  0
  5  6  1  0
  6  7  2  0
  7  8  1  0
  8  9  2  0
  9 10  1  0
 10 11  1  0
 11 12  1  0
 12 13  1  0
 13 14  2  0
 14  6  1  0
 13  9  1  0
  1 15  1  0
  1 16  1  0
  1 17  1  0
  4 18  1  0
  4 19  1  0
  5 20  1  0
  5 21  1  0
  7 22  1  0
  8 23  1  0
 11 24  1  0
 11 25  1  0
 14 26  1  0
M  END
