REMARK SMILES COc1cccc(CCC(=O)O)c1
REMARK SMILES IDX 8 1 7 2 3 3 4 4 13 5 5 6 6 7 2 8 1 9 9 10 10 11 11 12 12 13
REMARK H PARENT 12 14
REMARK Flexibility Score: inf
ROOT
ATOM      1  C   UNL     1      -1.461  -0.191   0.712  1.00  0.00     0.047 C 
ENDROOT
BRANCH   1   2
ATOM      2  C   UNL     1      -0.094  -0.657   0.373  1.00  0.00    -0.044 A 
ATOM      3  C   UNL     1       2.231  -0.221  -0.143  1.00  0.00     0.119 A 
ATOM      4  C   UNL     1       2.482  -1.571  -0.266  1.00  0.00     0.046 A 
ATOM      5  C   UNL     1       0.943   0.202   0.175  1.00  0.00     0.050 A 
ATOM      6  C   UNL     1       1.433  -2.449  -0.067  1.00  0.00     0.004 A 
ATOM      7  C   UNL     1       0.163  -2.006   0.248  1.00  0.00     0.004 A 
BRANCH   3   8
ATOM      8  O   UNL     1       3.291   0.646  -0.345  1.00  0.00    -0.497 OA
ATOM      9  C   UNL     1       3.135   2.057  -0.241  1.00  0.00     0.278 C 
ENDBRANCH   3   8
ENDBRANCH   1   2
BRANCH   1  10
ATOM     10  C   UNL     1      -2.279   0.047  -0.556  1.00  0.00     0.127 C 
BRANCH  10  11
ATOM     11  C   UNL     1      -3.622   0.507  -0.152  1.00  0.00     0.303 C 
ATOM     12  O   UNL     1      -4.427  -0.323   0.327  1.00  0.00    -0.252 OA
BRANCH  11  13
ATOM     13  O   UNL     1      -4.071   1.818  -0.265  1.00  0.00    -0.481 OA
ATOM     14  H   UNL     1      -4.561   2.243   0.539  1.00  0.00     0.296 HD
ENDBRANCH  11  13
ENDBRANCH  10  11
ENDBRANCH   1  10
TORSDOF 5
