REMARK SMILES COc1cc(CCCO)cc(OC)c1O
REMARK SMILES IDX 6 1 5 2 3 3 4 4 14 5 11 6 10 7 2 8 1 9 15 10 12 12 13 13
REMARK SMILES IDX 7 14 8 15 9 16
REMARK H PARENT 15 11 9 17
REMARK Flexibility Score: inf
ROOT
ATOM      1  C   UNL     1       1.656   0.388  -0.748  1.00  0.00     0.038 C 
ENDROOT
BRANCH   1   2
ATOM      2  C   UNL     1       0.231   0.005  -0.531  1.00  0.00    -0.040 A 
ATOM      3  C   UNL     1      -1.480  -1.597  -0.102  1.00  0.00     0.164 A 
ATOM      4  C   UNL     1      -0.141  -1.303  -0.296  1.00  0.00     0.054 A 
ATOM      5  C   UNL     1      -2.424  -0.571  -0.147  1.00  0.00     0.200 A 
ATOM      6  C   UNL     1      -2.061   0.739  -0.381  1.00  0.00     0.164 A 
ATOM      7  C   UNL     1      -0.718   1.003  -0.572  1.00  0.00     0.054 A 
BRANCH   3   8
ATOM      8  O   UNL     1      -1.930  -2.885   0.139  1.00  0.00    -0.493 OA
ATOM      9  C   UNL     1      -0.974  -3.921   0.185  1.00  0.00     0.278 C 
ENDBRANCH   3   8
BRANCH   5  10
ATOM     10  O   UNL     1      -3.782  -0.848   0.047  1.00  0.00    -0.502 OA
ATOM     11  H   UNL     1      -4.063  -1.803   0.219  1.00  0.00     0.293 HD
ENDBRANCH   5  10
BRANCH   6  12
ATOM     12  O   UNL     1      -3.036   1.713  -0.415  1.00  0.00    -0.493 OA
ATOM     13  C   UNL     1      -2.728   3.089  -0.654  1.00  0.00     0.278 C 
ENDBRANCH   6  12
ENDBRANCH   1   2
BRANCH   1  14
ATOM     14  C   UNL     1       2.274   0.722   0.603  1.00  0.00     0.033 C 
BRANCH  14  15
ATOM     15  C   UNL     1       3.716   1.103   0.334  1.00  0.00     0.156 C 
BRANCH  15  16
ATOM     16  O   UNL     1       4.386   1.431   1.504  1.00  0.00    -0.396 OA
ATOM     17  H   UNL     1       5.249   0.948   1.555  1.00  0.00     0.210 HD
ENDBRANCH  15  16
ENDBRANCH  14  15
ENDBRANCH   1  14
TORSDOF 7
