REMARK SMILES O=C(O)CCc1ccc2c(c1)OCO2
REMARK SMILES IDX 4 1 2 2 1 3 3 4 5 6 6 7 7 8 11 9 8 10 10 11 9 12 12 13 14 14
REMARK SMILES IDX 13 15
REMARK H PARENT 3 5
REMARK Flexibility Score: inf
ROOT
ATOM      1  C   UNL     1       2.331   0.423  -0.271  1.00  0.00     0.127 C 
ENDROOT
BRANCH   1   2
ATOM      2  C   UNL     1       3.783   0.309  -0.130  1.00  0.00     0.303 C 
ATOM      3  O   UNL     1       4.480  -0.162  -1.072  1.00  0.00    -0.252 OA
BRANCH   2   4
ATOM      4  O   UNL     1       4.476   0.697   1.008  1.00  0.00    -0.481 OA
ATOM      5  H   UNL     1       5.478   0.579   1.122  1.00  0.00     0.296 HD
ENDBRANCH   2   4
ENDBRANCH   1   2
BRANCH   1   6
ATOM      6  C   UNL     1       1.592  -0.872  -0.025  1.00  0.00     0.047 C 
BRANCH   6   7
ATOM      7  C   UNL     1       0.137  -0.614  -0.199  1.00  0.00    -0.043 A 
ATOM      8  C   UNL     1      -0.498  -0.754  -1.429  1.00  0.00     0.008 A 
ATOM      9  C   UNL     1      -0.651  -0.222   0.864  1.00  0.00     0.054 A 
ATOM     10  C   UNL     1      -1.842  -0.517  -1.600  1.00  0.00     0.051 A 
ATOM     11  C   UNL     1      -2.014   0.019   0.697  1.00  0.00     0.166 A 
ATOM     12  C   UNL     1      -2.587  -0.133  -0.533  1.00  0.00     0.165 A 
ATOM     13  O   UNL     1      -2.965   0.415   1.624  1.00  0.00    -0.454 OA
ATOM     14  O   UNL     1      -3.943   0.173  -0.396  1.00  0.00    -0.454 OA
ATOM     15  C   UNL     1      -4.068   0.864   0.848  1.00  0.00     0.468 C 
ENDBRANCH   6   7
ENDBRANCH   1   6
TORSDOF 4
