
     RDKit          3D

 23 23  0  0  0  0  0  0  0  0999 V2000
   -3.2740    0.8558    1.0860 C   0  0  0  0  0  0  0  0  0  0  0  0
   -2.1083    0.4209    0.2179 C   0  0  0  0  0  0  0  0  0  0  0  0
   -1.7865    1.2137   -0.6195 O   0  0  0  0  0  0  0  0  0  0  0  0
   -1.5531   -0.8892    0.5268 C   0  0  0  0  0  0  0  0  0  0  0  0
   -0.4102   -1.3671   -0.2783 C   0  0  0  0  0  0  0  0  0  0  0  0
    0.8104   -0.5432   -0.2408 C   0  0  0  0  0  0  0  0  0  0  0  0
    1.7122   -0.7703    0.7868 C   0  0  0  0  0  0  0  0  0  0  0  0
    2.8787   -0.0478    0.8766 C   0  0  0  0  0  0  0  0  0  0  0  0
    3.2063    0.9346   -0.0488 C   0  0  0  0  0  0  0  0  0  0  0  0
    2.3110    1.1598   -1.0691 C   0  0  0  0  0  0  0  0  0  0  0  0
    1.1376    0.4240   -1.1488 C   0  0  0  0  0  0  0  0  0  0  0  0
   -3.9029    1.6058    0.5785 H   0  0  0  0  0  0  0  0  0  0  0  0
   -2.8171    1.3003    2.0066 H   0  0  0  0  0  0  0  0  0  0  0  0
   -3.8670   -0.0247    1.3731 H   0  0  0  0  0  0  0  0  0  0  0  0
   -2.3899   -1.6396    0.3940 H   0  0  0  0  0  0  0  0  0  0  0  0
   -1.3316   -0.9556    1.6220 H   0  0  0  0  0  0  0  0  0  0  0  0
   -0.7381   -1.5740   -1.3232 H   0  0  0  0  0  0  0  0  0  0  0  0
   -0.1236   -2.3853    0.1243 H   0  0  0  0  0  0  0  0  0  0  0  0
    1.5177   -1.5288    1.5499 H   0  0  0  0  0  0  0  0  0  0  0  0
    3.5824   -0.2205    1.6730 H   0  0  0  0  0  0  0  0  0  0  0  0
    4.1345    1.4944    0.0415 H   0  0  0  0  0  0  0  0  0  0  0  0
    2.5368    1.9153   -1.8024 H   0  0  0  0  0  0  0  0  0  0  0  0
    0.4747    0.6215   -1.9587 H   0  0  0  0  0  0  0  0  0  0  0  0
  1  2  1  0
  2  3  2  0
  2  4  1  0
  4  5  1  0
  5  6  1  0
  6  7  2  0
  7  8  1  0
  8  9  2  0
  9 10  1  0
 10 11  2  0
 11  6  1  0
  1 12  1  0
  1 13  1  0
  1 14  1  0
  4 15  1  0
  4 16  1  0
  5 17  1  0
  5 18  1  0
  7 19  1  0
  8 20  1  0
  9 21  1  0
 10 22  1  0
 11 23  1  0
M  END
