
     RDKit          3D

 26 26  0  0  0  0  0  0  0  0999 V2000
   -2.9738    2.1243    0.0308 C   0  0  0  0  0  0  0  0  0  0  0  0
   -2.8765    0.9751    0.8504 O   0  0  0  0  0  0  0  0  0  0  0  0
   -1.8215    0.0730    0.6727 C   0  0  0  0  0  0  0  0  0  0  0  0
   -0.8840    0.3087   -0.2986 C   0  0  0  0  0  0  0  0  0  0  0  0
    0.2068   -0.5361   -0.5514 C   0  0  0  0  0  0  0  0  0  0  0  0
    1.1519   -0.2285   -1.6274 C   0  0  0  0  0  0  0  0  0  0  0  0
    2.2326    0.7375   -1.3065 C   0  0  0  0  0  0  0  0  0  0  0  0
    3.1558    0.4000   -0.2366 C   0  0  0  0  0  0  0  0  0  0  0  0
    4.1717    1.2818    0.1046 O   0  0  0  0  0  0  0  0  0  0  0  0
    3.0751   -0.6623    0.3981 O   0  0  0  0  0  0  0  0  0  0  0  0
    0.2997   -1.6553    0.2469 C   0  0  0  0  0  0  0  0  0  0  0  0
   -0.6426   -1.9199    1.2454 C   0  0  0  0  0  0  0  0  0  0  0  0
   -1.6930   -1.0529    1.4475 C   0  0  0  0  0  0  0  0  0  0  0  0
   -2.6281   -1.3135    2.4368 O   0  0  0  0  0  0  0  0  0  0  0  0
   -3.2180    1.8134   -0.9985 H   0  0  0  0  0  0  0  0  0  0  0  0
   -3.8008    2.7560    0.4551 H   0  0  0  0  0  0  0  0  0  0  0  0
   -2.0726    2.7427    0.0351 H   0  0  0  0  0  0  0  0  0  0  0  0
   -0.9367    1.1969   -0.9507 H   0  0  0  0  0  0  0  0  0  0  0  0
    1.5512   -1.1511   -2.1264 H   0  0  0  0  0  0  0  0  0  0  0  0
    0.5376    0.2513   -2.4488 H   0  0  0  0  0  0  0  0  0  0  0  0
    1.7268    1.7325   -1.1193 H   0  0  0  0  0  0  0  0  0  0  0  0
    2.7894    0.9077   -2.2855 H   0  0  0  0  0  0  0  0  0  0  0  0
    4.6767    1.1794    0.9990 H   0  0  0  0  0  0  0  0  0  0  0  0
    1.0702   -2.3802    0.1441 H   0  0  0  0  0  0  0  0  0  0  0  0
   -0.5514   -2.8093    1.8661 H   0  0  0  0  0  0  0  0  0  0  0  0
   -2.5466   -2.1408    3.0169 H   0  0  0  0  0  0  0  0  0  0  0  0
  1  2  1  0
  2  3  1  0
  3  4  2  0
  4  5  1  0
  5  6  1  0
  6  7  1  0
  7  8  1  0
  8  9  1  0
  8 10  2  0
  5 11  2  0
 11 12  1  0
 12 13  2  0
 13 14  1  0
 13  3  1  0
  1 15  1  0
  1 16  1  0
  1 17  1  0
  4 18  1  0
  6 19  1  0
  6 20  1  0
  7 21  1  0
  7 22  1  0
  9 23  1  0
 11 24  1  0
 12 25  1  0
 14 26  1  0
M  END
