REMARK SMILES CC(=O)CCc1ccc2c(c1)OCO2
REMARK SMILES IDX 4 1 2 2 1 3 3 4 5 5 6 6 7 7 11 8 8 9 10 10 9 11 12 12 14 13
REMARK SMILES IDX 13 14
REMARK H PARENT
REMARK Flexibility Score: inf
ROOT
ATOM      1  C   UNL     1       2.020  -0.474   0.544  1.00  0.00     0.080 C 
ENDROOT
BRANCH   1   2
ATOM      2  C   UNL     1       3.478  -0.534   0.245  1.00  0.00     0.130 C 
ATOM      3  C   UNL     1       4.326   0.688   0.245  1.00  0.00     0.087 C 
ATOM      4  O   UNL     1       4.022  -1.596  -0.011  1.00  0.00    -0.300 OA
ENDBRANCH   1   2
BRANCH   1   5
ATOM      5  C   UNL     1       1.194  -0.562  -0.724  1.00  0.00     0.043 C 
BRANCH   5   6
ATOM      6  C   UNL     1      -0.251  -0.504  -0.440  1.00  0.00    -0.044 A 
ATOM      7  C   UNL     1      -0.998  -1.663  -0.200  1.00  0.00     0.008 A 
ATOM      8  C   UNL     1      -0.891   0.714  -0.405  1.00  0.00     0.054 A 
ATOM      9  C   UNL     1      -2.351  -1.547   0.062  1.00  0.00     0.051 A 
ATOM     10  C   UNL     1      -2.259   0.826  -0.139  1.00  0.00     0.166 A 
ATOM     11  C   UNL     1      -2.995  -0.314   0.096  1.00  0.00     0.165 A 
ATOM     12  O   UNL     1      -3.114   1.904  -0.051  1.00  0.00    -0.454 OA
ATOM     13  O   UNL     1      -4.300   0.092   0.327  1.00  0.00    -0.454 OA
ATOM     14  C   UNL     1      -4.402   1.496   0.333  1.00  0.00     0.468 C 
ENDBRANCH   5   6
ENDBRANCH   1   5
TORSDOF 3
