REMARK SMILES O=C(O)CCc1ccccc1
REMARK SMILES IDX 4 1 2 2 1 3 3 4 5 6 6 7 7 8 11 9 8 10 10 11 9 12
REMARK H PARENT 3 5
REMARK Flexibility Score: inf
ROOT
ATOM      1  C   UNL     1       1.624  -0.371  -0.884  1.00  0.00     0.127 C 
ENDROOT
BRANCH   1   2
ATOM      2  C   UNL     1       3.081  -0.447  -0.618  1.00  0.00     0.303 C 
ATOM      3  O   UNL     1       3.548  -0.222   0.524  1.00  0.00    -0.252 OA
BRANCH   2   4
ATOM      4  O   UNL     1       3.974  -0.770  -1.623  1.00  0.00    -0.481 OA
ATOM      5  H   UNL     1       4.946  -0.522  -1.492  1.00  0.00     0.296 HD
ENDBRANCH   2   4
ENDBRANCH   1   2
BRANCH   1   6
ATOM      6  C   UNL     1       0.928  -0.006   0.379  1.00  0.00     0.047 C 
BRANCH   6   7
ATOM      7  C   UNL     1      -0.544   0.102   0.239  1.00  0.00    -0.047 A 
ATOM      8  C   UNL     1      -1.380  -0.969   0.442  1.00  0.00     0.004 A 
ATOM      9  C   UNL     1      -1.042   1.337  -0.109  1.00  0.00     0.004 A 
ATOM     10  C   UNL     1      -2.735  -0.814   0.297  1.00  0.00     0.000 A 
ATOM     11  C   UNL     1      -2.408   1.479  -0.251  1.00  0.00     0.000 A 
ATOM     12  C   UNL     1      -3.261   0.402  -0.048  1.00  0.00     0.000 A 
ENDBRANCH   6   7
ENDBRANCH   1   6
TORSDOF 4
