
     RDKit          3D

 21 21  0  0  0  0  0  0  0  0999 V2000
    3.9741   -0.7703   -1.6231 O   0  0  0  0  0  0  0  0  0  0  0  0
    3.0806   -0.4473   -0.6184 C   0  0  0  0  0  0  0  0  0  0  0  0
    3.5475   -0.2222    0.5235 O   0  0  0  0  0  0  0  0  0  0  0  0
    1.6241   -0.3707   -0.8844 C   0  0  0  0  0  0  0  0  0  0  0  0
    0.9275   -0.0056    0.3786 C   0  0  0  0  0  0  0  0  0  0  0  0
   -0.5445    0.1021    0.2390 C   0  0  0  0  0  0  0  0  0  0  0  0
   -1.3804   -0.9692    0.4418 C   0  0  0  0  0  0  0  0  0  0  0  0
   -2.7350   -0.8139    0.2972 C   0  0  0  0  0  0  0  0  0  0  0  0
   -3.2607    0.4016   -0.0480 C   0  0  0  0  0  0  0  0  0  0  0  0
   -2.4084    1.4789   -0.2511 C   0  0  0  0  0  0  0  0  0  0  0  0
   -1.0421    1.3373   -0.1090 C   0  0  0  0  0  0  0  0  0  0  0  0
    4.9456   -0.5222   -1.4921 H   0  0  0  0  0  0  0  0  0  0  0  0
    1.4412    0.3879   -1.6669 H   0  0  0  0  0  0  0  0  0  0  0  0
    1.3249   -1.3521   -1.2992 H   0  0  0  0  0  0  0  0  0  0  0  0
    1.3077    0.9709    0.7325 H   0  0  0  0  0  0  0  0  0  0  0  0
    1.1481   -0.7299    1.1959 H   0  0  0  0  0  0  0  0  0  0  0  0
   -0.9410   -1.9253    0.7154 H   0  0  0  0  0  0  0  0  0  0  0  0
   -3.3853   -1.6937    0.4666 H   0  0  0  0  0  0  0  0  0  0  0  0
   -4.3408    0.5030   -0.1577 H   0  0  0  0  0  0  0  0  0  0  0  0
   -2.8544    2.4288   -0.5236 H   0  0  0  0  0  0  0  0  0  0  0  0
   -0.4289    2.2121   -0.2800 H   0  0  0  0  0  0  0  0  0  0  0  0
  1  2  1  0
  2  3  2  0
  2  4  1  0
  4  5  1  0
  5  6  1  0
  6  7  2  0
  7  8  1  0
  8  9  2  0
  9 10  1  0
 10 11  2  0
 11  6  1  0
  1 12  1  0
  4 13  1  0
  4 14  1  0
  5 15  1  0
  5 16  1  0
  7 17  1  0
  8 18  1  0
  9 19  1  0
 10 20  1  0
 11 21  1  0
M  END
