REMARK SMILES O=C(O)CCc1ccc2c(c1)OCO2
REMARK SMILES IDX 4 1 2 2 1 3 3 4 5 6 6 7 7 8 11 9 8 10 10 11 9 12 12 13 14 14
REMARK SMILES IDX 13 15
REMARK H PARENT 3 5
REMARK Flexibility Score: inf
ROOT
ATOM      1  C   UNL     1       2.391   0.105   0.742  1.00  0.00     0.127 C 
ENDROOT
BRANCH   1   2
ATOM      2  C   UNL     1       3.743   0.652   0.509  1.00  0.00     0.303 C 
ATOM      3  O   UNL     1       3.974   1.226  -0.579  1.00  0.00    -0.252 OA
BRANCH   2   4
ATOM      4  O   UNL     1       4.774   0.569   1.421  1.00  0.00    -0.481 OA
ATOM      5  H   UNL     1       5.568   1.228   1.420  1.00  0.00     0.296 HD
ENDBRANCH   2   4
ENDBRANCH   1   2
BRANCH   1   6
ATOM      6  C   UNL     1       1.546   0.382  -0.462  1.00  0.00     0.047 C 
BRANCH   6   7
ATOM      7  C   UNL     1       0.174  -0.116  -0.348  1.00  0.00    -0.043 A 
ATOM      8  C   UNL     1      -0.215  -1.379  -0.751  1.00  0.00     0.008 A 
ATOM      9  C   UNL     1      -0.781   0.722   0.191  1.00  0.00     0.054 A 
ATOM     10  C   UNL     1      -1.521  -1.803  -0.622  1.00  0.00     0.051 A 
ATOM     11  C   UNL     1      -2.096   0.326   0.333  1.00  0.00     0.166 A 
ATOM     12  C   UNL     1      -2.455  -0.942  -0.078  1.00  0.00     0.165 A 
ATOM     13  O   UNL     1      -3.219   0.997   0.845  1.00  0.00    -0.454 OA
ATOM     14  O   UNL     1      -3.818  -1.044   0.188  1.00  0.00    -0.454 OA
ATOM     15  C   UNL     1      -4.350   0.251   0.424  1.00  0.00     0.468 C 
ENDBRANCH   6   7
ENDBRANCH   1   6
TORSDOF 4
