REMARK SMILES COc1cc(CCC(=O)O)ccc1O
REMARK SMILES IDX 6 1 5 2 3 3 4 4 13 5 12 6 11 7 2 8 1 9 14 10 7 12 8 13 9 14
REMARK SMILES IDX 10 15
REMARK H PARENT 14 11 10 16
REMARK Flexibility Score: inf
ROOT
ATOM      1  C   UNL     1       1.089  -1.360   0.961  1.00  0.00     0.047 C 
ENDROOT
BRANCH   1   2
ATOM      2  C   UNL     1       0.307  -0.164   0.655  1.00  0.00    -0.043 A 
ATOM      3  C   UNL     1      -1.737   0.730  -0.211  1.00  0.00     0.160 A 
ATOM      4  C   UNL     1      -0.953  -0.363   0.092  1.00  0.00     0.054 A 
ATOM      5  C   UNL     1      -1.237   1.983   0.059  1.00  0.00     0.157 A 
ATOM      6  C   UNL     1       0.028   2.179   0.625  1.00  0.00     0.050 A 
ATOM      7  C   UNL     1       0.813   1.089   0.928  1.00  0.00     0.008 A 
BRANCH   3   8
ATOM      8  O   UNL     1      -3.003   0.626  -0.772  1.00  0.00    -0.493 OA
ATOM      9  C   UNL     1      -3.635  -0.589  -1.096  1.00  0.00     0.278 C 
ENDBRANCH   3   8
BRANCH   5  10
ATOM     10  O   UNL     1      -2.007   3.097  -0.236  1.00  0.00    -0.504 OA
ATOM     11  H   UNL     1      -1.640   4.043  -0.036  1.00  0.00     0.293 HD
ENDBRANCH   5  10
ENDBRANCH   1   2
BRANCH   1  12
ATOM     12  C   UNL     1       1.977  -1.844  -0.154  1.00  0.00     0.127 C 
BRANCH  12  13
ATOM     13  C   UNL     1       2.970  -0.850  -0.562  1.00  0.00     0.303 C 
ATOM     14  O   UNL     1       2.888  -0.242  -1.628  1.00  0.00    -0.252 OA
BRANCH  13  15
ATOM     15  O   UNL     1       4.036  -0.591   0.291  1.00  0.00    -0.481 OA
ATOM     16  H   UNL     1       4.495   0.310   0.248  1.00  0.00     0.296 HD
ENDBRANCH  13  15
ENDBRANCH  12  13
ENDBRANCH   1  12
TORSDOF 6
