REMARK SMILES COc1cc(CCCO)cc(OC)c1O
REMARK SMILES IDX 6 1 5 2 3 3 4 4 14 5 11 6 10 7 2 8 1 9 15 10 12 12 13 13
REMARK SMILES IDX 7 14 8 15 9 16
REMARK H PARENT 15 11 9 17
REMARK Flexibility Score: inf
ROOT
ATOM      1  C   UNL     1       1.852  -0.810  -0.746  1.00  0.00     0.038 C 
ENDROOT
BRANCH   1   2
ATOM      2  C   UNL     1       0.441  -0.463  -0.529  1.00  0.00    -0.040 A 
ATOM      3  C   UNL     1      -1.824  -1.158   0.016  1.00  0.00     0.164 A 
ATOM      4  C   UNL     1      -0.486  -1.448  -0.194  1.00  0.00     0.054 A 
ATOM      5  C   UNL     1      -2.218   0.159  -0.118  1.00  0.00     0.200 A 
ATOM      6  C   UNL     1      -1.341   1.164  -0.447  1.00  0.00     0.164 A 
ATOM      7  C   UNL     1      -0.006   0.833  -0.651  1.00  0.00     0.054 A 
BRANCH   3   8
ATOM      8  O   UNL     1      -2.713  -2.160   0.347  1.00  0.00    -0.493 OA
ATOM      9  C   UNL     1      -2.376  -3.502   0.496  1.00  0.00     0.278 C 
ENDBRANCH   3   8
BRANCH   5  10
ATOM     10  O   UNL     1      -3.550   0.482   0.086  1.00  0.00    -0.502 OA
ATOM     11  H   UNL     1      -3.894   1.408   0.004  1.00  0.00     0.293 HD
ENDBRANCH   5  10
BRANCH   6  12
ATOM     12  O   UNL     1      -1.846   2.445  -0.554  1.00  0.00    -0.493 OA
ATOM     13  C   UNL     1      -1.064   3.572  -0.884  1.00  0.00     0.278 C 
ENDBRANCH   6  12
ENDBRANCH   1   2
BRANCH   1  14
ATOM     14  C   UNL     1       2.671  -0.740   0.517  1.00  0.00     0.033 C 
BRANCH  14  15
ATOM     15  C   UNL     1       2.660   0.649   1.120  1.00  0.00     0.156 C 
BRANCH  15  16
ATOM     16  O   UNL     1       3.190   1.552   0.209  1.00  0.00    -0.396 OA
ATOM     17  H   UNL     1       4.178   1.579   0.308  1.00  0.00     0.210 HD
ENDBRANCH  15  16
ENDBRANCH  14  15
ENDBRANCH   1  14
TORSDOF 7
