
     RDKit          3D

 23 23  0  0  0  0  0  0  0  0999 V2000
   -3.7229    0.2895   -0.0008 C   0  0  0  0  0  0  0  0  0  0  0  0
   -2.7168   -0.7194    0.3998 C   0  0  0  0  0  0  0  0  0  0  0  0
   -2.8841   -1.5869    1.2284 O   0  0  0  0  0  0  0  0  0  0  0  0
   -1.3637   -0.6884   -0.2607 C   0  0  0  0  0  0  0  0  0  0  0  0
   -0.4484    0.0232    0.7112 C   0  0  0  0  0  0  0  0  0  0  0  0
    0.9412    0.1241    0.1841 C   0  0  0  0  0  0  0  0  0  0  0  0
    1.3204    1.2107   -0.5707 C   0  0  0  0  0  0  0  0  0  0  0  0
    2.6008    1.2707   -1.0362 C   0  0  0  0  0  0  0  0  0  0  0  0
    3.5199    0.2791   -0.7734 C   0  0  0  0  0  0  0  0  0  0  0  0
    3.1142   -0.7984   -0.0151 C   0  0  0  0  0  0  0  0  0  0  0  0
    1.8265   -0.8835    0.4674 C   0  0  0  0  0  0  0  0  0  0  0  0
   -4.6066    0.2617    0.6731 H   0  0  0  0  0  0  0  0  0  0  0  0
   -3.2607    1.3182    0.0808 H   0  0  0  0  0  0  0  0  0  0  0  0
   -4.0164    0.0728   -1.0559 H   0  0  0  0  0  0  0  0  0  0  0  0
   -1.0033   -1.7352   -0.3841 H   0  0  0  0  0  0  0  0  0  0  0  0
   -1.3860   -0.1251   -1.1977 H   0  0  0  0  0  0  0  0  0  0  0  0
   -0.4306   -0.4984    1.6830 H   0  0  0  0  0  0  0  0  0  0  0  0
   -0.8435    1.0619    0.8285 H   0  0  0  0  0  0  0  0  0  0  0  0
    0.5757    1.9974   -0.7723 H   0  0  0  0  0  0  0  0  0  0  0  0
    2.9045    2.1389   -1.6370 H   0  0  0  0  0  0  0  0  0  0  0  0
    4.5511    0.3079   -1.1363 H   0  0  0  0  0  0  0  0  0  0  0  0
    3.8103   -1.5755    0.2006 H   0  0  0  0  0  0  0  0  0  0  0  0
    1.5185   -1.7453    1.0661 H   0  0  0  0  0  0  0  0  0  0  0  0
  1  2  1  0
  2  3  2  0
  2  4  1  0
  4  5  1  0
  5  6  1  0
  6  7  2  0
  7  8  1  0
  8  9  2  0
  9 10  1  0
 10 11  2  0
 11  6  1  0
  1 12  1  0
  1 13  1  0
  1 14  1  0
  4 15  1  0
  4 16  1  0
  5 17  1  0
  5 18  1  0
  7 19  1  0
  8 20  1  0
  9 21  1  0
 10 22  1  0
 11 23  1  0
M  END
