
     RDKit          3D

 21 21  0  0  0  0  0  0  0  0999 V2000
    4.0322    0.0789   -1.5608 O   0  0  0  0  0  0  0  0  0  0  0  0
    3.0653   -0.2683   -0.6123 C   0  0  0  0  0  0  0  0  0  0  0  0
    3.5119   -0.8931    0.4028 O   0  0  0  0  0  0  0  0  0  0  0  0
    1.6345    0.0680   -0.7823 C   0  0  0  0  0  0  0  0  0  0  0  0
    0.9043   -0.4713    0.4470 C   0  0  0  0  0  0  0  0  0  0  0  0
   -0.5396   -0.1442    0.2982 C   0  0  0  0  0  0  0  0  0  0  0  0
   -1.3598   -1.0471   -0.3341 C   0  0  0  0  0  0  0  0  0  0  0  0
   -2.7025   -0.7943   -0.4982 C   0  0  0  0  0  0  0  0  0  0  0  0
   -3.2263    0.3927   -0.0146 C   0  0  0  0  0  0  0  0  0  0  0  0
   -2.4104    1.2986    0.6184 C   0  0  0  0  0  0  0  0  0  0  0  0
   -1.0570    1.0191    0.7714 C   0  0  0  0  0  0  0  0  0  0  0  0
    4.9267    0.4826   -1.2520 H   0  0  0  0  0  0  0  0  0  0  0  0
    1.1887   -0.3253   -1.7012 H   0  0  0  0  0  0  0  0  0  0  0  0
    1.4701    1.1801   -0.7507 H   0  0  0  0  0  0  0  0  0  0  0  0
    1.3308   -0.0080    1.3546 H   0  0  0  0  0  0  0  0  0  0  0  0
    1.0755   -1.5589    0.4684 H   0  0  0  0  0  0  0  0  0  0  0  0
   -0.9626   -1.9843   -0.7195 H   0  0  0  0  0  0  0  0  0  0  0  0
   -3.3039   -1.5361   -1.0020 H   0  0  0  0  0  0  0  0  0  0  0  0
   -4.2906    0.5641   -0.1593 H   0  0  0  0  0  0  0  0  0  0  0  0
   -2.8625    2.2087    0.9782 H   0  0  0  0  0  0  0  0  0  0  0  0
   -0.4246    1.7379    1.2704 H   0  0  0  0  0  0  0  0  0  0  0  0
  1  2  1  0
  2  3  2  0
  2  4  1  0
  4  5  1  0
  5  6  1  0
  6  7  2  0
  7  8  1  0
  8  9  2  0
  9 10  1  0
 10 11  2  0
 11  6  1  0
  1 12  1  0
  4 13  1  0
  4 14  1  0
  5 15  1  0
  5 16  1  0
  7 17  1  0
  8 18  1  0
  9 19  1  0
 10 20  1  0
 11 21  1  0
M  END
