REMARK SMILES O=C(O)Cc1ccccc1
REMARK SMILES IDX 4 1 2 2 1 3 3 4 5 6 6 7 10 8 7 9 9 10 8 11
REMARK H PARENT 3 5
REMARK Flexibility Score: inf
ROOT
ATOM      1  C   UNL     1       1.412  -0.856  -0.194  1.00  0.00     0.158 C 
ENDROOT
BRANCH   1   2
ATOM      2  C   UNL     1       2.434  -0.172   0.629  1.00  0.00     0.307 C 
ATOM      3  O   UNL     1       3.327  -0.936   1.142  1.00  0.00    -0.252 OA
BRANCH   2   4
ATOM      4  O   UNL     1       2.554   1.149   0.921  1.00  0.00    -0.481 OA
ATOM      5  H   UNL     1       3.354   1.665   0.563  1.00  0.00     0.296 HD
ENDBRANCH   2   4
ENDBRANCH   1   2
BRANCH   1   6
ATOM      6  C   UNL     1       0.085  -0.300  -0.189  1.00  0.00    -0.037 A 
ATOM      7  C   UNL     1      -0.241   1.000  -0.459  1.00  0.00     0.004 A 
ATOM      8  C   UNL     1      -0.977  -1.158   0.086  1.00  0.00     0.004 A 
ATOM      9  C   UNL     1      -1.536   1.429  -0.462  1.00  0.00     0.000 A 
ATOM     10  C   UNL     1      -2.282  -0.771   0.090  1.00  0.00     0.000 A 
ATOM     11  C   UNL     1      -2.582   0.549  -0.192  1.00  0.00     0.000 A 
ENDBRANCH   1   6
TORSDOF 3
