REMARK SMILES CC(=O)CCc1ccccc1
REMARK SMILES IDX 4 1 2 2 1 3 3 4 5 5 6 6 7 7 11 8 8 9 10 10 9 11
REMARK H PARENT
REMARK Flexibility Score: inf
ROOT
ATOM      1  C   UNL     1       1.287   0.621  -0.098  1.00  0.00     0.080 C 
ENDROOT
BRANCH   1   2
ATOM      2  C   UNL     1       2.764   0.558  -0.220  1.00  0.00     0.130 C 
ATOM      3  C   UNL     1       3.675   0.197   0.904  1.00  0.00     0.087 C 
ATOM      4  O   UNL     1       3.235   0.825  -1.328  1.00  0.00    -0.300 OA
ENDBRANCH   1   2
BRANCH   1   5
ATOM      5  C   UNL     1       0.611  -0.565  -0.747  1.00  0.00     0.043 C 
BRANCH   5   6
ATOM      6  C   UNL     1      -0.862  -0.386  -0.562  1.00  0.00    -0.048 A 
ATOM      7  C   UNL     1      -1.498  -0.879   0.571  1.00  0.00     0.004 A 
ATOM      8  C   UNL     1      -1.621   0.269  -1.503  1.00  0.00     0.004 A 
ATOM      9  C   UNL     1      -2.862  -0.697   0.715  1.00  0.00     0.000 A 
ATOM     10  C   UNL     1      -2.976   0.456  -1.372  1.00  0.00     0.000 A 
ATOM     11  C   UNL     1      -3.609  -0.041  -0.233  1.00  0.00     0.000 A 
ENDBRANCH   5   6
ENDBRANCH   1   5
TORSDOF 3
