
     RDKit          3D

 18 18  0  0  0  0  0  0  0  0999 V2000
    3.6131    0.8448   -0.5083 O   0  0  0  0  0  0  0  0  0  0  0  0
    2.2444    0.7396   -0.3177 C   0  0  0  0  0  0  0  0  0  0  0  0
    1.6183    1.8133   -0.1295 O   0  0  0  0  0  0  0  0  0  0  0  0
    1.5219   -0.5499   -0.3281 C   0  0  0  0  0  0  0  0  0  0  0  0
    0.0699   -0.3555   -0.0982 C   0  0  0  0  0  0  0  0  0  0  0  0
   -0.4632   -0.3661    1.1785 C   0  0  0  0  0  0  0  0  0  0  0  0
   -1.8109   -0.1873    1.4158 C   0  0  0  0  0  0  0  0  0  0  0  0
   -2.6912    0.0119    0.3737 C   0  0  0  0  0  0  0  0  0  0  0  0
   -2.1602    0.0227   -0.8995 C   0  0  0  0  0  0  0  0  0  0  0  0
   -0.8135   -0.1555   -1.1449 C   0  0  0  0  0  0  0  0  0  0  0  0
    4.1655    1.0164    0.3357 H   0  0  0  0  0  0  0  0  0  0  0  0
    1.7101   -1.0028   -1.3458 H   0  0  0  0  0  0  0  0  0  0  0  0
    1.9638   -1.2952    0.3833 H   0  0  0  0  0  0  0  0  0  0  0  0
    0.2515   -0.5260    1.9971 H   0  0  0  0  0  0  0  0  0  0  0  0
   -2.1962   -0.2015    2.4334 H   0  0  0  0  0  0  0  0  0  0  0  0
   -3.7603    0.1561    0.5292 H   0  0  0  0  0  0  0  0  0  0  0  0
   -2.8567    0.1808   -1.7310 H   0  0  0  0  0  0  0  0  0  0  0  0
   -0.4064   -0.1457   -2.1437 H   0  0  0  0  0  0  0  0  0  0  0  0
  1  2  1  0
  2  3  2  0
  2  4  1  0
  4  5  1  0
  5  6  2  0
  6  7  1  0
  7  8  2  0
  8  9  1  0
  9 10  2  0
 10  5  1  0
  1 11  1  0
  4 12  1  0
  4 13  1  0
  6 14  1  0
  7 15  1  0
  8 16  1  0
  9 17  1  0
 10 18  1  0
M  END
