REMARK SMILES COc1cc(CCCO)ccc1O
REMARK SMILES IDX 6 1 5 2 3 3 4 4 12 5 11 6 10 7 2 8 1 9 13 10 7 12 8 13 9 14
REMARK H PARENT 13 11 9 15
REMARK Flexibility Score: inf
ROOT
ATOM      1  C   UNL     1      -1.699  -0.137   0.191  1.00  0.00     0.038 C 
ENDROOT
BRANCH   1   2
ATOM      2  C   UNL     1      -0.308  -0.648   0.063  1.00  0.00    -0.044 A 
ATOM      3  C   UNL     1       2.087  -0.393   0.303  1.00  0.00     0.160 A 
ATOM      4  C   UNL     1       0.798   0.094   0.428  1.00  0.00     0.054 A 
ATOM      5  C   UNL     1       2.319  -1.658  -0.198  1.00  0.00     0.157 A 
ATOM      6  C   UNL     1       1.223  -2.410  -0.566  1.00  0.00     0.050 A 
ATOM      7  C   UNL     1      -0.058  -1.911  -0.436  1.00  0.00     0.008 A 
BRANCH   3   8
ATOM      8  O   UNL     1       3.199   0.350   0.668  1.00  0.00    -0.493 OA
ATOM      9  C   UNL     1       3.138   1.650   1.193  1.00  0.00     0.278 C 
ENDBRANCH   3   8
BRANCH   5  10
ATOM     10  O   UNL     1       3.605  -2.175  -0.335  1.00  0.00    -0.504 OA
ATOM     11  H   UNL     1       4.413  -1.662  -0.080  1.00  0.00     0.293 HD
ENDBRANCH   5  10
ENDBRANCH   1   2
BRANCH   1  12
ATOM     12  C   UNL     1      -2.157   0.581  -1.047  1.00  0.00     0.033 C 
BRANCH  12  13
ATOM     13  C   UNL     1      -3.580   1.050  -0.793  1.00  0.00     0.156 C 
BRANCH  13  14
ATOM     14  O   UNL     1      -3.639   1.912   0.301  1.00  0.00    -0.396 OA
ATOM     15  H   UNL     1      -3.937   1.428   1.115  1.00  0.00     0.210 HD
ENDBRANCH  13  14
ENDBRANCH  12  13
ENDBRANCH   1  12
TORSDOF 6
