REMARK SMILES COc1cccc(CCC(=O)O)c1
REMARK SMILES IDX 8 1 7 2 3 3 4 4 13 5 5 6 6 7 2 8 1 9 9 10 10 11 11 12 12 13
REMARK H PARENT 12 14
REMARK Flexibility Score: inf
ROOT
ATOM      1  C   UNL     1      -1.845  -1.021  -1.046  1.00  0.00     0.047 C 
ENDROOT
BRANCH   1   2
ATOM      2  C   UNL     1      -0.483  -0.914  -0.470  1.00  0.00    -0.044 A 
ATOM      3  C   UNL     1       1.569   0.335  -0.044  1.00  0.00     0.119 A 
ATOM      4  C   UNL     1       2.098  -0.737   0.636  1.00  0.00     0.046 A 
ATOM      5  C   UNL     1       0.288   0.223  -0.583  1.00  0.00     0.050 A 
ATOM      6  C   UNL     1       1.342  -1.911   0.771  1.00  0.00     0.004 A 
ATOM      7  C   UNL     1       0.079  -1.976   0.221  1.00  0.00     0.004 A 
BRANCH   3   8
ATOM      8  O   UNL     1       2.254   1.521  -0.217  1.00  0.00    -0.497 OA
ATOM      9  C   UNL     1       3.525   1.843   0.231  1.00  0.00     0.278 C 
ENDBRANCH   3   8
ENDBRANCH   1   2
BRANCH   1  10
ATOM     10  C   UNL     1      -2.902  -0.564  -0.075  1.00  0.00     0.127 C 
BRANCH  10  11
ATOM     11  C   UNL     1      -2.614   0.858   0.250  1.00  0.00     0.303 C 
ATOM     12  O   UNL     1      -1.733   1.183   1.105  1.00  0.00    -0.252 OA
BRANCH  11  13
ATOM     13  O   UNL     1      -3.313   1.862  -0.385  1.00  0.00    -0.481 OA
ATOM     14  H   UNL     1      -3.321   2.822  -0.023  1.00  0.00     0.296 HD
ENDBRANCH  11  13
ENDBRANCH  10  11
ENDBRANCH   1  10
TORSDOF 5
