REMARK SMILES COc1cc(CCCO)cc(OC)c1O
REMARK SMILES IDX 6 1 5 2 3 3 4 4 14 5 11 6 10 7 2 8 1 9 15 10 12 12 13 13
REMARK SMILES IDX 7 14 8 15 9 16
REMARK H PARENT 15 11 9 17
REMARK Flexibility Score: inf
ROOT
ATOM      1  C   UNL     1       1.688  -0.567   0.332  1.00  0.00     0.038 C 
ENDROOT
BRANCH   1   2
ATOM      2  C   UNL     1       0.257  -0.208   0.283  1.00  0.00    -0.040 A 
ATOM      3  C   UNL     1      -1.590   1.311   0.597  1.00  0.00     0.164 A 
ATOM      4  C   UNL     1      -0.245   1.011   0.657  1.00  0.00     0.054 A 
ATOM      5  C   UNL     1      -2.472   0.352   0.144  1.00  0.00     0.200 A 
ATOM      6  C   UNL     1      -1.980  -0.890  -0.240  1.00  0.00     0.164 A 
ATOM      7  C   UNL     1      -0.626  -1.165  -0.171  1.00  0.00     0.054 A 
BRANCH   3   8
ATOM      8  O   UNL     1      -2.066   2.538   0.978  1.00  0.00    -0.493 OA
ATOM      9  C   UNL     1      -1.301   3.599   1.454  1.00  0.00     0.278 C 
ENDBRANCH   3   8
BRANCH   5  10
ATOM     10  O   UNL     1      -3.842   0.560   0.048  1.00  0.00    -0.502 OA
ATOM     11  H   UNL     1      -4.216   1.463   0.325  1.00  0.00     0.293 HD
ENDBRANCH   5  10
BRANCH   6  12
ATOM     12  O   UNL     1      -2.874  -1.854  -0.698  1.00  0.00    -0.493 OA
ATOM     13  C   UNL     1      -2.395  -3.110  -1.088  1.00  0.00     0.278 C 
ENDBRANCH   6  12
ENDBRANCH   1   2
BRANCH   1  14
ATOM     14  C   UNL     1       2.422  -0.246  -0.946  1.00  0.00     0.033 C 
BRANCH  14  15
ATOM     15  C   UNL     1       3.877  -0.679  -0.719  1.00  0.00     0.156 C 
BRANCH  15  16
ATOM     16  O   UNL     1       4.405   0.027   0.357  1.00  0.00    -0.396 OA
ATOM     17  H   UNL     1       3.951   0.898   0.492  1.00  0.00     0.210 HD
ENDBRANCH  15  16
ENDBRANCH  14  15
ENDBRANCH   1  14
TORSDOF 7
