REMARK SMILES CC(=O)CCc1ccccc1
REMARK SMILES IDX 4 1 2 2 1 3 3 4 5 5 6 6 7 7 11 8 8 9 10 10 9 11
REMARK H PARENT
REMARK Flexibility Score: inf
ROOT
ATOM      1  C   UNL     1       1.322  -0.461   0.476  1.00  0.00     0.080 C 
ENDROOT
BRANCH   1   2
ATOM      2  C   UNL     1       2.679  -0.880   0.048  1.00  0.00     0.130 C 
ATOM      3  C   UNL     1       3.826   0.014   0.413  1.00  0.00     0.087 C 
ATOM      4  O   UNL     1       2.791  -1.915  -0.574  1.00  0.00    -0.300 OA
ENDBRANCH   1   2
BRANCH   1   5
ATOM      5  C   UNL     1       0.474  -0.396  -0.776  1.00  0.00     0.043 C 
BRANCH   5   6
ATOM      6  C   UNL     1      -0.932   0.022  -0.498  1.00  0.00    -0.048 A 
ATOM      7  C   UNL     1      -1.879  -0.941  -0.260  1.00  0.00     0.004 A 
ATOM      8  C   UNL     1      -1.296   1.355  -0.476  1.00  0.00     0.004 A 
ATOM      9  C   UNL     1      -3.206  -0.618   0.006  1.00  0.00     0.000 A 
ATOM     10  C   UNL     1      -2.600   1.709  -0.216  1.00  0.00     0.000 A 
ATOM     11  C   UNL     1      -3.529   0.722   0.020  1.00  0.00     0.000 A 
ENDBRANCH   5   6
ENDBRANCH   1   5
TORSDOF 3
