REMARK SMILES COc1cc(CCCO)ccc1O
REMARK SMILES IDX 6 1 5 2 3 3 4 4 12 5 11 6 10 7 2 8 1 9 13 10 7 12 8 13 9 14
REMARK H PARENT 13 11 9 15
REMARK Flexibility Score: inf
ROOT
ATOM      1  C   UNL     1      -1.130  -1.544  -0.626  1.00  0.00     0.038 C 
ENDROOT
BRANCH   1   2
ATOM      2  C   UNL     1      -0.223  -0.385  -0.666  1.00  0.00    -0.044 A 
ATOM      3  C   UNL     1       1.834   0.738  -0.163  1.00  0.00     0.160 A 
ATOM      4  C   UNL     1       1.031  -0.380  -0.091  1.00  0.00     0.054 A 
ATOM      5  C   UNL     1       1.441   1.897  -0.800  1.00  0.00     0.157 A 
ATOM      6  C   UNL     1       0.187   1.892  -1.375  1.00  0.00     0.050 A 
ATOM      7  C   UNL     1      -0.629   0.766  -1.307  1.00  0.00     0.008 A 
BRANCH   3   8
ATOM      8  O   UNL     1       3.103   0.751   0.416  1.00  0.00    -0.493 OA
ATOM      9  C   UNL     1       3.554  -0.414   1.083  1.00  0.00     0.278 C 
ENDBRANCH   3   8
BRANCH   5  10
ATOM     10  O   UNL     1       2.266   3.020  -0.864  1.00  0.00    -0.504 OA
ATOM     11  H   UNL     1       3.167   3.019  -0.449  1.00  0.00     0.293 HD
ENDBRANCH   5  10
ENDBRANCH   1   2
BRANCH   1  12
ATOM     12  C   UNL     1      -2.038  -1.557   0.558  1.00  0.00     0.033 C 
BRANCH  12  13
ATOM     13  C   UNL     1      -2.938  -0.351   0.633  1.00  0.00     0.156 C 
BRANCH  13  14
ATOM     14  O   UNL     1      -3.770  -0.225  -0.472  1.00  0.00    -0.396 OA
ATOM     15  H   UNL     1      -4.065   0.735  -0.496  1.00  0.00     0.210 HD
ENDBRANCH  13  14
ENDBRANCH  12  13
ENDBRANCH   1  12
TORSDOF 6
