
     RDKit          3D

 26 27  0  0  0  0  0  0  0  0999 V2000
   -3.6006    1.3451   -0.8911 C   0  0  0  0  0  0  0  0  0  0  0  0
   -2.6392    0.5300   -0.0748 C   0  0  0  0  0  0  0  0  0  0  0  0
   -2.2941    0.9290    0.9891 O   0  0  0  0  0  0  0  0  0  0  0  0
   -2.1766   -0.7293   -0.6486 C   0  0  0  0  0  0  0  0  0  0  0  0
   -1.2168   -1.5147    0.1615 C   0  0  0  0  0  0  0  0  0  0  0  0
    0.0489   -0.8061    0.4539 C   0  0  0  0  0  0  0  0  0  0  0  0
    0.2497   -0.1826    1.6656 C   0  0  0  0  0  0  0  0  0  0  0  0
    1.4395    0.4954    1.8966 C   0  0  0  0  0  0  0  0  0  0  0  0
    2.4220    0.5534    0.9337 C   0  0  0  0  0  0  0  0  0  0  0  0
    3.6951    1.1454    0.8740 O   0  0  0  0  0  0  0  0  0  0  0  0
    4.4192    0.4075   -0.0957 C   0  0  0  0  0  0  0  0  0  0  0  0
    3.3911    0.1597   -1.0507 O   0  0  0  0  0  0  0  0  0  0  0  0
    2.2329   -0.0669   -0.2810 C   0  0  0  0  0  0  0  0  0  0  0  0
    1.0602   -0.7387   -0.5182 C   0  0  0  0  0  0  0  0  0  0  0  0
   -2.9900    2.0719   -1.4858 H   0  0  0  0  0  0  0  0  0  0  0  0
   -4.3017    1.9139   -0.2429 H   0  0  0  0  0  0  0  0  0  0  0  0
   -4.1985    0.6694   -1.5072 H   0  0  0  0  0  0  0  0  0  0  0  0
   -1.8112   -0.5637   -1.6978 H   0  0  0  0  0  0  0  0  0  0  0  0
   -3.1077   -1.3738   -0.7815 H   0  0  0  0  0  0  0  0  0  0  0  0
   -1.7034   -1.7207    1.1463 H   0  0  0  0  0  0  0  0  0  0  0  0
   -0.9550   -2.4858   -0.3483 H   0  0  0  0  0  0  0  0  0  0  0  0
   -0.4558   -0.1933    2.4865 H   0  0  0  0  0  0  0  0  0  0  0  0
    1.6254    1.0020    2.8531 H   0  0  0  0  0  0  0  0  0  0  0  0
    5.2724    0.9448   -0.5092 H   0  0  0  0  0  0  0  0  0  0  0  0
    4.7080   -0.5568    0.4128 H   0  0  0  0  0  0  0  0  0  0  0  0
    0.8864   -1.2350   -1.4655 H   0  0  0  0  0  0  0  0  0  0  0  0
  1  2  1  0
  2  3  2  0
  2  4  1  0
  4  5  1  0
  5  6  1  0
  6  7  2  0
  7  8  1  0
  8  9  2  0
  9 10  1  0
 10 11  1  0
 11 12  1  0
 12 13  1  0
 13 14  2  0
 14  6  1  0
 13  9  1  0
  1 15  1  0
  1 16  1  0
  1 17  1  0
  4 18  1  0
  4 19  1  0
  5 20  1  0
  5 21  1  0
  7 22  1  0
  8 23  1  0
 11 24  1  0
 11 25  1  0
 14 26  1  0
M  END
