REMARK SMILES O=C(O)Cc1ccccc1
REMARK SMILES IDX 4 1 2 2 1 3 3 4 5 6 6 7 10 8 7 9 9 10 8 11
REMARK H PARENT 3 5
REMARK Flexibility Score: inf
ROOT
ATOM      1  C   UNL     1       1.550  -0.638  -0.083  1.00  0.00     0.158 C 
ENDROOT
BRANCH   1   2
ATOM      2  C   UNL     1       2.231   0.629  -0.432  1.00  0.00     0.307 C 
ATOM      3  O   UNL     1       1.546   1.699  -0.579  1.00  0.00    -0.252 OA
BRANCH   2   4
ATOM      4  O   UNL     1       3.583   0.741  -0.615  1.00  0.00    -0.481 OA
ATOM      5  H   UNL     1       4.096   1.533  -0.272  1.00  0.00     0.296 HD
ENDBRANCH   2   4
ENDBRANCH   1   2
BRANCH   1   6
ATOM      6  C   UNL     1       0.087  -0.399   0.039  1.00  0.00    -0.037 A 
ATOM      7  C   UNL     1      -0.496  -0.040   1.235  1.00  0.00     0.004 A 
ATOM      8  C   UNL     1      -0.760  -0.526  -1.048  1.00  0.00     0.004 A 
ATOM      9  C   UNL     1      -1.850   0.187   1.375  1.00  0.00     0.000 A 
ATOM     10  C   UNL     1      -2.113  -0.299  -0.909  1.00  0.00     0.000 A 
ATOM     11  C   UNL     1      -2.689   0.060   0.292  1.00  0.00     0.000 A 
ENDBRANCH   1   6
TORSDOF 3
