REMARK SMILES O=C(O)CCc1ccccc1
REMARK SMILES IDX 4 1 2 2 1 3 3 4 5 6 6 7 7 8 11 9 8 10 10 11 9 12
REMARK H PARENT 3 5
REMARK Flexibility Score: inf
ROOT
ATOM      1  C   UNL     1       1.634   0.068  -0.782  1.00  0.00     0.127 C 
ENDROOT
BRANCH   1   2
ATOM      2  C   UNL     1       3.065  -0.268  -0.612  1.00  0.00     0.303 C 
ATOM      3  O   UNL     1       3.512  -0.893   0.403  1.00  0.00    -0.252 OA
BRANCH   2   4
ATOM      4  O   UNL     1       4.032   0.079  -1.561  1.00  0.00    -0.481 OA
ATOM      5  H   UNL     1       4.927   0.483  -1.252  1.00  0.00     0.296 HD
ENDBRANCH   2   4
ENDBRANCH   1   2
BRANCH   1   6
ATOM      6  C   UNL     1       0.904  -0.471   0.447  1.00  0.00     0.047 C 
BRANCH   6   7
ATOM      7  C   UNL     1      -0.540  -0.144   0.298  1.00  0.00    -0.047 A 
ATOM      8  C   UNL     1      -1.360  -1.047  -0.334  1.00  0.00     0.004 A 
ATOM      9  C   UNL     1      -1.057   1.019   0.771  1.00  0.00     0.004 A 
ATOM     10  C   UNL     1      -2.702  -0.794  -0.498  1.00  0.00     0.000 A 
ATOM     11  C   UNL     1      -2.410   1.299   0.618  1.00  0.00     0.000 A 
ATOM     12  C   UNL     1      -3.226   0.393  -0.015  1.00  0.00     0.000 A 
ENDBRANCH   6   7
ENDBRANCH   1   6
TORSDOF 4
