
     RDKit          3D

 24 25  0  0  0  0  0  0  0  0999 V2000
    4.2219    2.1158    0.8934 O   0  0  0  0  0  0  0  0  0  0  0  0
    3.6258    1.1373    0.1268 C   0  0  0  0  0  0  0  0  0  0  0  0
    4.3077    0.5515   -0.7424 O   0  0  0  0  0  0  0  0  0  0  0  0
    2.2252    0.7910    0.3255 C   0  0  0  0  0  0  0  0  0  0  0  0
    1.7392   -0.3021   -0.6019 C   0  0  0  0  0  0  0  0  0  0  0  0
    0.3046   -0.5508   -0.2898 C   0  0  0  0  0  0  0  0  0  0  0  0
   -0.0904   -1.4895    0.6613 C   0  0  0  0  0  0  0  0  0  0  0  0
   -1.4218   -1.7112    0.9420 C   0  0  0  0  0  0  0  0  0  0  0  0
   -2.4222   -1.0173    0.2974 C   0  0  0  0  0  0  0  0  0  0  0  0
   -3.8258   -1.0167    0.3604 O   0  0  0  0  0  0  0  0  0  0  0  0
   -4.3222    0.1371   -0.2838 C   0  0  0  0  0  0  0  0  0  0  0  0
   -3.2413    0.4639   -1.1381 O   0  0  0  0  0  0  0  0  0  0  0  0
   -2.0631   -0.0842   -0.6465 C   0  0  0  0  0  0  0  0  0  0  0  0
   -0.7147    0.1296   -0.9201 C   0  0  0  0  0  0  0  0  0  0  0  0
    5.0814    2.5878    0.6267 H   0  0  0  0  0  0  0  0  0  0  0  0
    1.5330    1.6753    0.2025 H   0  0  0  0  0  0  0  0  0  0  0  0
    2.0037    0.4303    1.3719 H   0  0  0  0  0  0  0  0  0  0  0  0
    1.8270    0.0214   -1.6583 H   0  0  0  0  0  0  0  0  0  0  0  0
    2.3095   -1.2181   -0.3704 H   0  0  0  0  0  0  0  0  0  0  0  0
    0.7169   -2.0219    1.1540 H   0  0  0  0  0  0  0  0  0  0  0  0
   -1.7127   -2.4401    1.6797 H   0  0  0  0  0  0  0  0  0  0  0  0
   -4.3861    0.9497    0.4978 H   0  0  0  0  0  0  0  0  0  0  0  0
   -5.2648   -0.0152   -0.8132 H   0  0  0  0  0  0  0  0  0  0  0  0
   -0.4307    0.8763   -1.6752 H   0  0  0  0  0  0  0  0  0  0  0  0
  1  2  1  0
  2  3  2  0
  2  4  1  0
  4  5  1  0
  5  6  1  0
  6  7  2  0
  7  8  1  0
  8  9  2  0
  9 10  1  0
 10 11  1  0
 11 12  1  0
 12 13  1  0
 13 14  2  0
 14  6  1  0
 13  9  1  0
  1 15  1  0
  4 16  1  0
  4 17  1  0
  5 18  1  0
  5 19  1  0
  7 20  1  0
  8 21  1  0
 11 22  1  0
 11 23  1  0
 14 24  1  0
M  END
