REMARK SMILES COc1cc(CCC(=O)O)ccc1O
REMARK SMILES IDX 6 1 5 2 3 3 4 4 13 5 12 6 11 7 2 8 1 9 14 10 7 12 8 13 9 14
REMARK SMILES IDX 10 15
REMARK H PARENT 14 11 10 16
REMARK Flexibility Score: inf
ROOT
ATOM      1  C   UNL     1      -1.710  -1.412  -0.932  1.00  0.00     0.047 C 
ENDROOT
BRANCH   1   2
ATOM      2  C   UNL     1      -0.422  -1.127  -0.241  1.00  0.00    -0.043 A 
ATOM      3  C   UNL     1       1.492   0.332   0.176  1.00  0.00     0.160 A 
ATOM      4  C   UNL     1       0.274   0.039  -0.466  1.00  0.00     0.054 A 
ATOM      5  C   UNL     1       1.939  -0.666   1.066  1.00  0.00     0.157 A 
ATOM      6  C   UNL     1       1.252  -1.830   1.295  1.00  0.00     0.050 A 
ATOM      7  C   UNL     1       0.064  -2.061   0.638  1.00  0.00     0.008 A 
BRANCH   3   8
ATOM      8  O   UNL     1       2.103   1.437  -0.071  1.00  0.00    -0.493 OA
ATOM      9  C   UNL     1       2.582   2.583  -0.428  1.00  0.00     0.278 C 
ENDBRANCH   3   8
BRANCH   5  10
ATOM     10  O   UNL     1       3.136  -0.396   1.706  1.00  0.00    -0.504 OA
ATOM     11  H   UNL     1       3.661   0.445   1.557  1.00  0.00     0.293 HD
ENDBRANCH   5  10
ENDBRANCH   1   2
BRANCH   1  12
ATOM     12  C   UNL     1      -2.903  -0.902  -0.139  1.00  0.00     0.127 C 
BRANCH  12  13
ATOM     13  C   UNL     1      -2.710   0.558   0.008  1.00  0.00     0.303 C 
ATOM     14  O   UNL     1      -2.903   1.340  -0.958  1.00  0.00    -0.252 OA
BRANCH  13  15
ATOM     15  O   UNL     1      -2.304   1.097   1.232  1.00  0.00    -0.481 OA
ATOM     16  H   UNL     1      -2.290   2.106   1.367  1.00  0.00     0.296 HD
ENDBRANCH  13  15
ENDBRANCH  12  13
ENDBRANCH   1  12
TORSDOF 6
