REMARK SMILES O=C(O)CCc1ccc2c(c1)OCO2
REMARK SMILES IDX 4 1 2 2 1 3 3 4 5 6 6 7 7 8 11 9 8 10 10 11 9 12 12 13 14 14
REMARK SMILES IDX 13 15
REMARK H PARENT 3 5
REMARK Flexibility Score: inf
ROOT
ATOM      1  C   UNL     1       2.622  -0.926  -0.042  1.00  0.00     0.127 C 
ENDROOT
BRANCH   1   2
ATOM      2  C   UNL     1       2.807   0.445   0.493  1.00  0.00     0.303 C 
ATOM      3  O   UNL     1       1.904   1.032   1.145  1.00  0.00    -0.252 OA
BRANCH   2   4
ATOM      4  O   UNL     1       3.995   1.151   0.298  1.00  0.00    -0.481 OA
ATOM      5  H   UNL     1       4.270   1.955   0.870  1.00  0.00     0.296 HD
ENDBRANCH   2   4
ENDBRANCH   1   2
BRANCH   1   6
ATOM      6  C   UNL     1       1.417  -1.078  -0.941  1.00  0.00     0.047 C 
BRANCH   6   7
ATOM      7  C   UNL     1       0.146  -0.746  -0.299  1.00  0.00    -0.043 A 
ATOM      8  C   UNL     1      -0.594  -1.696   0.399  1.00  0.00     0.008 A 
ATOM      9  C   UNL     1      -0.325   0.549  -0.399  1.00  0.00     0.054 A 
ATOM     10  C   UNL     1      -1.788  -1.350   0.988  1.00  0.00     0.051 A 
ATOM     11  C   UNL     1      -1.521   0.893   0.192  1.00  0.00     0.166 A 
ATOM     12  C   UNL     1      -2.248  -0.050   0.880  1.00  0.00     0.165 A 
ATOM     13  O   UNL     1      -2.196   2.123   0.230  1.00  0.00    -0.454 OA
ATOM     14  O   UNL     1      -3.385   0.596   1.350  1.00  0.00    -0.454 OA
ATOM     15  C   UNL     1      -3.525   1.815   0.614  1.00  0.00     0.468 C 
ENDBRANCH   6   7
ENDBRANCH   1   6
TORSDOF 4
