REMARK SMILES COc1cc(CCCO)ccc1O
REMARK SMILES IDX 6 1 5 2 3 3 4 4 12 5 11 6 10 7 2 8 1 9 13 10 7 12 8 13 9 14
REMARK H PARENT 13 11 9 15
REMARK Flexibility Score: inf
ROOT
ATOM      1  C   UNL     1      -1.547  -0.534   0.044  1.00  0.00     0.038 C 
ENDROOT
BRANCH   1   2
ATOM      2  C   UNL     1      -0.129  -0.649  -0.327  1.00  0.00    -0.044 A 
ATOM      3  C   UNL     1       2.215  -0.298   0.173  1.00  0.00     0.160 A 
ATOM      4  C   UNL     1       0.883  -0.197   0.506  1.00  0.00     0.054 A 
ATOM      5  C   UNL     1       2.523  -0.876  -1.040  1.00  0.00     0.157 A 
ATOM      6  C   UNL     1       1.560  -1.347  -1.917  1.00  0.00     0.050 A 
ATOM      7  C   UNL     1       0.223  -1.221  -1.533  1.00  0.00     0.008 A 
BRANCH   3   8
ATOM      8  O   UNL     1       3.205   0.167   1.034  1.00  0.00    -0.493 OA
ATOM      9  C   UNL     1       2.825   0.750   2.264  1.00  0.00     0.278 C 
ENDBRANCH   3   8
BRANCH   5  10
ATOM     10  O   UNL     1       3.883  -0.973  -1.367  1.00  0.00    -0.504 OA
ATOM     11  H   UNL     1       4.200  -1.382  -2.237  1.00  0.00     0.293 HD
ENDBRANCH   5  10
ENDBRANCH   1   2
BRANCH   1  12
ATOM     12  C   UNL     1      -2.146   0.790  -0.439  1.00  0.00     0.033 C 
BRANCH  12  13
ATOM     13  C   UNL     1      -3.610   0.799  -0.000  1.00  0.00     0.156 C 
BRANCH  13  14
ATOM     14  O   UNL     1      -4.247   1.957  -0.388  1.00  0.00    -0.396 OA
ATOM     15  H   UNL     1      -4.875   2.207   0.335  1.00  0.00     0.210 HD
ENDBRANCH  13  14
ENDBRANCH  12  13
ENDBRANCH   1  12
TORSDOF 6
