REMARK SMILES CC(=O)CCc1ccc2c(c1)OCO2
REMARK SMILES IDX 4 1 2 2 1 3 3 4 5 5 6 6 7 7 11 8 8 9 10 10 9 11 12 12 14 13
REMARK SMILES IDX 13 14
REMARK H PARENT
REMARK Flexibility Score: inf
ROOT
ATOM      1  C   UNL     1      -2.177  -0.729  -0.649  1.00  0.00     0.080 C 
ENDROOT
BRANCH   1   2
ATOM      2  C   UNL     1      -2.639   0.530  -0.075  1.00  0.00     0.130 C 
ATOM      3  C   UNL     1      -3.601   1.345  -0.891  1.00  0.00     0.087 C 
ATOM      4  O   UNL     1      -2.294   0.929   0.989  1.00  0.00    -0.300 OA
ENDBRANCH   1   2
BRANCH   1   5
ATOM      5  C   UNL     1      -1.217  -1.515   0.161  1.00  0.00     0.043 C 
BRANCH   5   6
ATOM      6  C   UNL     1       0.049  -0.806   0.454  1.00  0.00    -0.044 A 
ATOM      7  C   UNL     1       0.250  -0.183   1.666  1.00  0.00     0.008 A 
ATOM      8  C   UNL     1       1.060  -0.739  -0.518  1.00  0.00     0.054 A 
ATOM      9  C   UNL     1       1.440   0.495   1.897  1.00  0.00     0.051 A 
ATOM     10  C   UNL     1       2.233  -0.067  -0.281  1.00  0.00     0.166 A 
ATOM     11  C   UNL     1       2.422   0.553   0.934  1.00  0.00     0.165 A 
ATOM     12  O   UNL     1       3.391   0.160  -1.051  1.00  0.00    -0.454 OA
ATOM     13  O   UNL     1       3.695   1.145   0.874  1.00  0.00    -0.454 OA
ATOM     14  C   UNL     1       4.419   0.407  -0.096  1.00  0.00     0.468 C 
ENDBRANCH   5   6
ENDBRANCH   1   5
TORSDOF 3
