
     RDKit          3D

 26 27  0  0  0  0  0  0  0  0999 V2000
    3.7509    1.1186    0.8329 C   0  0  0  0  0  0  0  0  0  0  0  0
    2.4898    0.2759    0.7479 C   0  0  0  0  0  0  0  0  0  0  0  0
    1.6905    0.4102    1.6301 O   0  0  0  0  0  0  0  0  0  0  0  0
    2.4038   -0.6141   -0.4236 C   0  0  0  0  0  0  0  0  0  0  0  0
    1.1825   -1.4385   -0.5271 C   0  0  0  0  0  0  0  0  0  0  0  0
   -0.0988   -0.7319   -0.6095 C   0  0  0  0  0  0  0  0  0  0  0  0
   -0.5943   -0.2275   -1.8135 C   0  0  0  0  0  0  0  0  0  0  0  0
   -1.8133    0.3992   -1.8231 C   0  0  0  0  0  0  0  0  0  0  0  0
   -2.6043    0.5728   -0.7090 C   0  0  0  0  0  0  0  0  0  0  0  0
   -3.8517    1.1630   -0.4714 O   0  0  0  0  0  0  0  0  0  0  0  0
   -4.3067    0.5978    0.7411 C   0  0  0  0  0  0  0  0  0  0  0  0
   -3.0852    0.3741    1.4289 O   0  0  0  0  0  0  0  0  0  0  0  0
   -2.1164    0.0751    0.4793 C   0  0  0  0  0  0  0  0  0  0  0  0
   -0.8711   -0.5713    0.5167 C   0  0  0  0  0  0  0  0  0  0  0  0
    4.5710    0.4585    1.1792 H   0  0  0  0  0  0  0  0  0  0  0  0
    3.5858    1.9883    1.5145 H   0  0  0  0  0  0  0  0  0  0  0  0
    3.9754    1.4674   -0.1933 H   0  0  0  0  0  0  0  0  0  0  0  0
    3.2705   -1.3503   -0.4200 H   0  0  0  0  0  0  0  0  0  0  0  0
    2.6060   -0.0307   -1.3791 H   0  0  0  0  0  0  0  0  0  0  0  0
    1.1498   -2.1251    0.3710 H   0  0  0  0  0  0  0  0  0  0  0  0
    1.2021   -2.1433   -1.3975 H   0  0  0  0  0  0  0  0  0  0  0  0
   -0.0022   -0.3426   -2.7194 H   0  0  0  0  0  0  0  0  0  0  0  0
   -2.1784    0.7844   -2.7749 H   0  0  0  0  0  0  0  0  0  0  0  0
   -4.7542   -0.3996    0.4797 H   0  0  0  0  0  0  0  0  0  0  0  0
   -5.0088    1.2294    1.2909 H   0  0  0  0  0  0  0  0  0  0  0  0
   -0.5928   -0.9398    1.5080 H   0  0  0  0  0  0  0  0  0  0  0  0
  1  2  1  0
  2  3  2  0
  2  4  1  0
  4  5  1  0
  5  6  1  0
  6  7  2  0
  7  8  1  0
  8  9  2  0
  9 10  1  0
 10 11  1  0
 11 12  1  0
 12 13  1  0
 13 14  2  0
 14  6  1  0
 13  9  1  0
  1 15  1  0
  1 16  1  0
  1 17  1  0
  4 18  1  0
  4 19  1  0
  5 20  1  0
  5 21  1  0
  7 22  1  0
  8 23  1  0
 11 24  1  0
 11 25  1  0
 14 26  1  0
M  END
