REMARK SMILES O=C(O)Cc1ccccc1
REMARK SMILES IDX 4 1 2 2 1 3 3 4 5 6 6 7 10 8 7 9 9 10 8 11
REMARK H PARENT 3 5
REMARK Flexibility Score: inf
ROOT
ATOM      1  C   UNL     1      -1.440  -0.774   0.119  1.00  0.00     0.158 C 
ENDROOT
BRANCH   1   2
ATOM      2  C   UNL     1      -2.433   0.270   0.483  1.00  0.00     0.307 C 
ATOM      3  O   UNL     1      -2.648   0.523   1.684  1.00  0.00    -0.252 OA
BRANCH   2   4
ATOM      4  O   UNL     1      -3.139   0.979  -0.456  1.00  0.00    -0.481 OA
ATOM      5  H   UNL     1      -4.099   1.244  -0.444  1.00  0.00     0.296 HD
ENDBRANCH   2   4
ENDBRANCH   1   2
BRANCH   1   6
ATOM      6  C   UNL     1      -0.038  -0.336   0.263  1.00  0.00    -0.037 A 
ATOM      7  C   UNL     1       0.362   0.961   0.102  1.00  0.00     0.004 A 
ATOM      8  C   UNL     1       0.926  -1.300   0.484  1.00  0.00     0.004 A 
ATOM      9  C   UNL     1       1.694   1.305   0.158  1.00  0.00     0.000 A 
ATOM     10  C   UNL     1       2.249  -0.954   0.543  1.00  0.00     0.000 A 
ATOM     11  C   UNL     1       2.662   0.341   0.381  1.00  0.00     0.000 A 
ENDBRANCH   1   6
TORSDOF 3
