REMARK SMILES O=C(O)CCc1ccc2c(c1)OCO2
REMARK SMILES IDX 4 1 2 2 1 3 3 4 5 6 6 7 7 8 11 9 8 10 10 11 9 12 12 13 14 14
REMARK SMILES IDX 13 15
REMARK H PARENT 3 5
REMARK Flexibility Score: inf
ROOT
ATOM      1  C   UNL     1      -2.690  -0.475  -0.593  1.00  0.00     0.127 C 
ENDROOT
BRANCH   1   2
ATOM      2  C   UNL     1      -2.821  -0.057   0.794  1.00  0.00     0.303 C 
ATOM      3  O   UNL     1      -1.984  -0.239   1.680  1.00  0.00    -0.252 OA
BRANCH   2   4
ATOM      4  O   UNL     1      -4.001   0.611   1.157  1.00  0.00    -0.481 OA
ATOM      5  H   UNL     1      -4.859   0.094   1.041  1.00  0.00     0.296 HD
ENDBRANCH   2   4
ENDBRANCH   1   2
BRANCH   1   6
ATOM      6  C   UNL     1      -1.418  -1.166  -0.894  1.00  0.00     0.047 C 
BRANCH   6   7
ATOM      7  C   UNL     1      -0.175  -0.425  -0.669  1.00  0.00    -0.043 A 
ATOM      8  C   UNL     1       0.294   0.500  -1.589  1.00  0.00     0.008 A 
ATOM      9  C   UNL     1       0.585  -0.655   0.447  1.00  0.00     0.054 A 
ATOM     10  C   UNL     1       1.481   1.171  -1.396  1.00  0.00     0.051 A 
ATOM     11  C   UNL     1       1.779   0.007   0.662  1.00  0.00     0.166 A 
ATOM     12  C   UNL     1       2.231   0.922  -0.258  1.00  0.00     0.165 A 
ATOM     13  O   UNL     1       2.695  -0.063   1.697  1.00  0.00    -0.454 OA
ATOM     14  O   UNL     1       3.443   1.416   0.227  1.00  0.00    -0.454 OA
ATOM     15  C   UNL     1       3.900   0.594   1.276  1.00  0.00     0.468 C 
ENDBRANCH   6   7
ENDBRANCH   1   6
TORSDOF 4
