
     RDKit          3D

 25 25  0  0  0  0  0  0  0  0999 V2000
    3.5250    1.8430    0.2312 C   0  0  0  0  0  0  0  0  0  0  0  0
    2.2537    1.5211   -0.2167 O   0  0  0  0  0  0  0  0  0  0  0  0
    1.5687    0.3352   -0.0443 C   0  0  0  0  0  0  0  0  0  0  0  0
    2.0984   -0.7371    0.6359 C   0  0  0  0  0  0  0  0  0  0  0  0
    1.3419   -1.9108    0.7706 C   0  0  0  0  0  0  0  0  0  0  0  0
    0.0793   -1.9760    0.2210 C   0  0  0  0  0  0  0  0  0  0  0  0
   -0.4829   -0.9135   -0.4698 C   0  0  0  0  0  0  0  0  0  0  0  0
   -1.8454   -1.0212   -1.0461 C   0  0  0  0  0  0  0  0  0  0  0  0
   -2.9019   -0.5641   -0.0751 C   0  0  0  0  0  0  0  0  0  0  0  0
   -2.6140    0.8580    0.2501 C   0  0  0  0  0  0  0  0  0  0  0  0
   -3.3131    1.8618   -0.3849 O   0  0  0  0  0  0  0  0  0  0  0  0
   -1.7329    1.1829    1.1047 O   0  0  0  0  0  0  0  0  0  0  0  0
    0.2875    0.2225   -0.5826 C   0  0  0  0  0  0  0  0  0  0  0  0
    3.8702    1.1912    1.0536 H   0  0  0  0  0  0  0  0  0  0  0  0
    3.4888    2.8855    0.6185 H   0  0  0  0  0  0  0  0  0  0  0  0
    4.2788    1.8738   -0.5941 H   0  0  0  0  0  0  0  0  0  0  0  0
    3.0837   -0.6573    1.0503 H   0  0  0  0  0  0  0  0  0  0  0  0
    1.7743   -2.7384    1.3059 H   0  0  0  0  0  0  0  0  0  0  0  0
   -0.5383   -2.8809    0.3085 H   0  0  0  0  0  0  0  0  0  0  0  0
   -1.9004   -0.3762   -1.9439 H   0  0  0  0  0  0  0  0  0  0  0  0
   -2.0963   -2.0727   -1.3284 H   0  0  0  0  0  0  0  0  0  0  0  0
   -2.8827   -1.1984    0.8367 H   0  0  0  0  0  0  0  0  0  0  0  0
   -3.8970   -0.6142   -0.5632 H   0  0  0  0  0  0  0  0  0  0  0  0
   -3.3212    2.8220   -0.0230 H   0  0  0  0  0  0  0  0  0  0  0  0
   -0.1243    1.0638   -1.1150 H   0  0  0  0  0  0  0  0  0  0  0  0
  1  2  1  0
  2  3  1  0
  3  4  2  0
  4  5  1  0
  5  6  2  0
  6  7  1  0
  7  8  1  0
  8  9  1  0
  9 10  1  0
 10 11  1  0
 10 12  2  0
  7 13  2  0
 13  3  1  0
  1 14  1  0
  1 15  1  0
  1 16  1  0
  4 17  1  0
  5 18  1  0
  6 19  1  0
  8 20  1  0
  8 21  1  0
  9 22  1  0
  9 23  1  0
 11 24  1  0
 13 25  1  0
M  END
