
     RDKit          3D

 23 23  0  0  0  0  0  0  0  0999 V2000
    3.7560   -0.6213   -0.2665 C   0  0  0  0  0  0  0  0  0  0  0  0
    2.7867    0.4959   -0.1184 C   0  0  0  0  0  0  0  0  0  0  0  0
    3.1105    1.6223   -0.4554 O   0  0  0  0  0  0  0  0  0  0  0  0
    1.4200    0.3027    0.4296 C   0  0  0  0  0  0  0  0  0  0  0  0
    0.4622    0.2877   -0.7420 C   0  0  0  0  0  0  0  0  0  0  0  0
   -0.9485    0.0989   -0.3129 C   0  0  0  0  0  0  0  0  0  0  0  0
   -1.5322   -1.1473   -0.1862 C   0  0  0  0  0  0  0  0  0  0  0  0
   -2.8482   -1.2824    0.2162 C   0  0  0  0  0  0  0  0  0  0  0  0
   -3.6175   -0.1612    0.5038 C   0  0  0  0  0  0  0  0  0  0  0  0
   -3.0504    1.1009    0.3830 C   0  0  0  0  0  0  0  0  0  0  0  0
   -1.7268    1.2006   -0.0234 C   0  0  0  0  0  0  0  0  0  0  0  0
    3.2732   -1.5703   -0.5800 H   0  0  0  0  0  0  0  0  0  0  0  0
    4.3302   -0.8170    0.6642 H   0  0  0  0  0  0  0  0  0  0  0  0
    4.5215   -0.3941   -1.0486 H   0  0  0  0  0  0  0  0  0  0  0  0
    1.3311   -0.6132    1.0435 H   0  0  0  0  0  0  0  0  0  0  0  0
    1.1404    1.1473    1.0686 H   0  0  0  0  0  0  0  0  0  0  0  0
    0.7592   -0.5298   -1.4478 H   0  0  0  0  0  0  0  0  0  0  0  0
    0.6103    1.2380   -1.2954 H   0  0  0  0  0  0  0  0  0  0  0  0
   -0.9667   -2.0310   -0.4004 H   0  0  0  0  0  0  0  0  0  0  0  0
   -3.3092   -2.2563    0.3169 H   0  0  0  0  0  0  0  0  0  0  0  0
   -4.6451   -0.2467    0.8191 H   0  0  0  0  0  0  0  0  0  0  0  0
   -3.6080    1.9926    0.5947 H   0  0  0  0  0  0  0  0  0  0  0  0
   -1.2488    2.1839   -0.1288 H   0  0  0  0  0  0  0  0  0  0  0  0
  1  2  1  0
  2  3  2  0
  2  4  1  0
  4  5  1  0
  5  6  1  0
  6  7  2  0
  7  8  1  0
  8  9  2  0
  9 10  1  0
 10 11  2  0
 11  6  1  0
  1 12  1  0
  1 13  1  0
  1 14  1  0
  4 15  1  0
  4 16  1  0
  5 17  1  0
  5 18  1  0
  7 19  1  0
  8 20  1  0
  9 21  1  0
 10 22  1  0
 11 23  1  0
M  END
