
     RDKit          3D

 24 25  0  0  0  0  0  0  0  0999 V2000
    4.4765    0.6973    1.0075 O   0  0  0  0  0  0  0  0  0  0  0  0
    3.7829    0.3095   -0.1301 C   0  0  0  0  0  0  0  0  0  0  0  0
    4.4803   -0.1617   -1.0725 O   0  0  0  0  0  0  0  0  0  0  0  0
    2.3309    0.4227   -0.2706 C   0  0  0  0  0  0  0  0  0  0  0  0
    1.5921   -0.8725   -0.0247 C   0  0  0  0  0  0  0  0  0  0  0  0
    0.1374   -0.6144   -0.1986 C   0  0  0  0  0  0  0  0  0  0  0  0
   -0.4980   -0.7537   -1.4292 C   0  0  0  0  0  0  0  0  0  0  0  0
   -1.8420   -0.5173   -1.5996 C   0  0  0  0  0  0  0  0  0  0  0  0
   -2.5865   -0.1329   -0.5331 C   0  0  0  0  0  0  0  0  0  0  0  0
   -3.9427    0.1730   -0.3957 O   0  0  0  0  0  0  0  0  0  0  0  0
   -4.0675    0.8638    0.8478 C   0  0  0  0  0  0  0  0  0  0  0  0
   -2.9648    0.4153    1.6237 O   0  0  0  0  0  0  0  0  0  0  0  0
   -2.0140    0.0193    0.6972 C   0  0  0  0  0  0  0  0  0  0  0  0
   -0.6511   -0.2219    0.8635 C   0  0  0  0  0  0  0  0  0  0  0  0
    5.4776    0.5794    1.1225 H   0  0  0  0  0  0  0  0  0  0  0  0
    1.8583    1.2020    0.3476 H   0  0  0  0  0  0  0  0  0  0  0  0
    2.1148    0.7249   -1.3369 H   0  0  0  0  0  0  0  0  0  0  0  0
    1.7128   -1.1574    1.0574 H   0  0  0  0  0  0  0  0  0  0  0  0
    1.9577   -1.7175   -0.6056 H   0  0  0  0  0  0  0  0  0  0  0  0
    0.1063   -1.0577   -2.2594 H   0  0  0  0  0  0  0  0  0  0  0  0
   -2.3407   -0.6258   -2.5631 H   0  0  0  0  0  0  0  0  0  0  0  0
   -3.9693    1.9430    0.6304 H   0  0  0  0  0  0  0  0  0  0  0  0
   -4.9865    0.5946    1.3900 H   0  0  0  0  0  0  0  0  0  0  0  0
   -0.1644   -0.1119    1.8260 H   0  0  0  0  0  0  0  0  0  0  0  0
  1  2  1  0
  2  3  2  0
  2  4  1  0
  4  5  1  0
  5  6  1  0
  6  7  2  0
  7  8  1  0
  8  9  2  0
  9 10  1  0
 10 11  1  0
 11 12  1  0
 12 13  1  0
 13 14  2  0
 14  6  1  0
 13  9  1  0
  1 15  1  0
  4 16  1  0
  4 17  1  0
  5 18  1  0
  5 19  1  0
  7 20  1  0
  8 21  1  0
 11 22  1  0
 11 23  1  0
 14 24  1  0
M  END
