
     RDKit          3D

 26 27  0  0  0  0  0  0  0  0999 V2000
    4.3261    0.6884    0.2453 C   0  0  0  0  0  0  0  0  0  0  0  0
    3.4776   -0.5344    0.2447 C   0  0  0  0  0  0  0  0  0  0  0  0
    4.0219   -1.5960   -0.0114 O   0  0  0  0  0  0  0  0  0  0  0  0
    2.0200   -0.4742    0.5436 C   0  0  0  0  0  0  0  0  0  0  0  0
    1.1944   -0.5625   -0.7244 C   0  0  0  0  0  0  0  0  0  0  0  0
   -0.2515   -0.5042   -0.4396 C   0  0  0  0  0  0  0  0  0  0  0  0
   -0.9982   -1.6634   -0.2002 C   0  0  0  0  0  0  0  0  0  0  0  0
   -2.3507   -1.5472    0.0623 C   0  0  0  0  0  0  0  0  0  0  0  0
   -2.9954   -0.3136    0.0964 C   0  0  0  0  0  0  0  0  0  0  0  0
   -4.3005    0.0919    0.3270 O   0  0  0  0  0  0  0  0  0  0  0  0
   -4.4022    1.4958    0.3326 C   0  0  0  0  0  0  0  0  0  0  0  0
   -3.1140    1.9043   -0.0511 O   0  0  0  0  0  0  0  0  0  0  0  0
   -2.2594    0.8264   -0.1393 C   0  0  0  0  0  0  0  0  0  0  0  0
   -0.8908    0.7136   -0.4053 C   0  0  0  0  0  0  0  0  0  0  0  0
    3.9467    1.3586    1.0386 H   0  0  0  0  0  0  0  0  0  0  0  0
    5.3878    0.4583    0.4768 H   0  0  0  0  0  0  0  0  0  0  0  0
    4.2798    1.2251   -0.7290 H   0  0  0  0  0  0  0  0  0  0  0  0
    1.8319    0.4580    1.0773 H   0  0  0  0  0  0  0  0  0  0  0  0
    1.7220   -1.3360    1.1930 H   0  0  0  0  0  0  0  0  0  0  0  0
    1.4749   -1.4306   -1.3433 H   0  0  0  0  0  0  0  0  0  0  0  0
    1.4580    0.3463   -1.3316 H   0  0  0  0  0  0  0  0  0  0  0  0
   -0.4813   -2.5939   -0.2322 H   0  0  0  0  0  0  0  0  0  0  0  0
   -2.9386   -2.4224    0.2478 H   0  0  0  0  0  0  0  0  0  0  0  0
   -5.1993    1.8741   -0.3401 H   0  0  0  0  0  0  0  0  0  0  0  0
   -4.6183    1.9100    1.3397 H   0  0  0  0  0  0  0  0  0  0  0  0
   -0.3411    1.6275   -0.5860 H   0  0  0  0  0  0  0  0  0  0  0  0
  1  2  1  0
  2  3  2  0
  2  4  1  0
  4  5  1  0
  5  6  1  0
  6  7  2  0
  7  8  1  0
  8  9  2  0
  9 10  1  0
 10 11  1  0
 11 12  1  0
 12 13  1  0
 13 14  2  0
 14  6  1  0
 13  9  1  0
  1 15  1  0
  1 16  1  0
  1 17  1  0
  4 18  1  0
  4 19  1  0
  5 20  1  0
  5 21  1  0
  7 22  1  0
  8 23  1  0
 11 24  1  0
 11 25  1  0
 14 26  1  0
M  END
