REMARK SMILES COc1cccc(CCC(=O)O)c1
REMARK SMILES IDX 8 1 7 2 3 3 4 4 13 5 5 6 6 7 2 8 1 9 9 10 10 11 11 12 12 13
REMARK H PARENT 12 14
REMARK Flexibility Score: inf
ROOT
ATOM      1  C   UNL     1      -1.745   0.084  -0.422  1.00  0.00     0.047 C 
ENDROOT
BRANCH   1   2
ATOM      2  C   UNL     1      -0.398   0.438   0.018  1.00  0.00    -0.044 A 
ATOM      3  C   UNL     1       1.970  -0.010  -0.102  1.00  0.00     0.119 A 
ATOM      4  C   UNL     1       2.252   1.013   0.763  1.00  0.00     0.046 A 
ATOM      5  C   UNL     1       0.681  -0.302  -0.473  1.00  0.00     0.050 A 
ATOM      6  C   UNL     1       1.162   1.742   1.243  1.00  0.00     0.004 A 
ATOM      7  C   UNL     1      -0.140   1.476   0.891  1.00  0.00     0.004 A 
BRANCH   3   8
ATOM      8  O   UNL     1       3.009  -0.760  -0.605  1.00  0.00    -0.497 OA
ATOM      9  C   UNL     1       4.353  -0.551  -0.298  1.00  0.00     0.278 C 
ENDBRANCH   3   8
ENDBRANCH   1   2
BRANCH   1  10
ATOM     10  C   UNL     1      -2.467  -0.889   0.463  1.00  0.00     0.127 C 
BRANCH  10  11
ATOM     11  C   UNL     1      -3.800  -1.143  -0.153  1.00  0.00     0.303 C 
ATOM     12  O   UNL     1      -4.075  -2.200  -0.784  1.00  0.00    -0.252 OA
BRANCH  11  13
ATOM     13  O   UNL     1      -4.778  -0.158  -0.021  1.00  0.00    -0.481 OA
ATOM     14  H   UNL     1      -5.657  -0.272  -0.541  1.00  0.00     0.296 HD
ENDBRANCH  11  13
ENDBRANCH  10  11
ENDBRANCH   1  10
TORSDOF 5
