REMARK SMILES CC(=O)CCc1ccccc1
REMARK SMILES IDX 4 1 2 2 1 3 3 4 5 5 6 6 7 7 11 8 8 9 10 10 9 11
REMARK H PARENT
REMARK Flexibility Score: inf
ROOT
ATOM      1  C   UNL     1      -1.553  -0.889   0.527  1.00  0.00     0.080 C 
ENDROOT
BRANCH   1   2
ATOM      2  C   UNL     1      -2.108   0.421   0.218  1.00  0.00     0.130 C 
ATOM      3  C   UNL     1      -3.274   0.856   1.086  1.00  0.00     0.087 C 
ATOM      4  O   UNL     1      -1.787   1.214  -0.620  1.00  0.00    -0.300 OA
ENDBRANCH   1   2
BRANCH   1   5
ATOM      5  C   UNL     1      -0.410  -1.367  -0.278  1.00  0.00     0.043 C 
BRANCH   5   6
ATOM      6  C   UNL     1       0.810  -0.543  -0.241  1.00  0.00    -0.048 A 
ATOM      7  C   UNL     1       1.712  -0.770   0.787  1.00  0.00     0.004 A 
ATOM      8  C   UNL     1       1.138   0.424  -1.149  1.00  0.00     0.004 A 
ATOM      9  C   UNL     1       2.879  -0.048   0.877  1.00  0.00     0.000 A 
ATOM     10  C   UNL     1       2.311   1.160  -1.069  1.00  0.00     0.000 A 
ATOM     11  C   UNL     1       3.206   0.935  -0.049  1.00  0.00     0.000 A 
ENDBRANCH   5   6
ENDBRANCH   1   5
TORSDOF 3
