REMARK SMILES O=C(O)CCc1ccccc1
REMARK SMILES IDX 4 1 2 2 1 3 3 4 5 6 6 7 7 8 11 9 8 10 10 11 9 12
REMARK H PARENT 3 5
REMARK Flexibility Score: inf
ROOT
ATOM      1  C   UNL     1       1.726  -0.247  -0.602  1.00  0.00     0.127 C 
ENDROOT
BRANCH   1   2
ATOM      2  C   UNL     1       3.150  -0.374  -0.261  1.00  0.00     0.303 C 
ATOM      3  O   UNL     1       3.858   0.644  -0.126  1.00  0.00    -0.252 OA
BRANCH   2   4
ATOM      4  O   UNL     1       3.730  -1.611  -0.083  1.00  0.00    -0.481 OA
ATOM      5  H   UNL     1       4.492  -1.788   0.572  1.00  0.00     0.296 HD
ENDBRANCH   2   4
ENDBRANCH   1   2
BRANCH   1   6
ATOM      6  C   UNL     1       0.940   0.037   0.654  1.00  0.00     0.047 C 
BRANCH   6   7
ATOM      7  C   UNL     1      -0.513   0.188   0.411  1.00  0.00    -0.047 A 
ATOM      8  C   UNL     1      -1.358  -0.904   0.459  1.00  0.00     0.004 A 
ATOM      9  C   UNL     1      -1.082   1.404   0.131  1.00  0.00     0.004 A 
ATOM     10  C   UNL     1      -2.719  -0.774   0.234  1.00  0.00     0.000 A 
ATOM     11  C   UNL     1      -2.433   1.568  -0.098  1.00  0.00     0.000 A 
ATOM     12  C   UNL     1      -3.245   0.456  -0.041  1.00  0.00     0.000 A 
ENDBRANCH   6   7
ENDBRANCH   1   6
TORSDOF 4
