REMARK SMILES O=C(O)Cc1ccccc1
REMARK SMILES IDX 4 1 2 2 1 3 3 4 5 6 6 7 10 8 7 9 9 10 8 11
REMARK H PARENT 3 5
REMARK Flexibility Score: inf
ROOT
ATOM      1  C   UNL     1      -1.417   0.534   0.630  1.00  0.00     0.158 C 
ENDROOT
BRANCH   1   2
ATOM      2  C   UNL     1      -2.332   0.067  -0.421  1.00  0.00     0.307 C 
ATOM      3  O   UNL     1      -1.866  -0.579  -1.388  1.00  0.00    -0.252 OA
BRANCH   2   4
ATOM      4  O   UNL     1      -3.694   0.299  -0.406  1.00  0.00    -0.481 OA
ATOM      5  H   UNL     1      -4.368  -0.238  -0.938  1.00  0.00     0.296 HD
ENDBRANCH   2   4
ENDBRANCH   1   2
BRANCH   1   6
ATOM      6  C   UNL     1      -0.016   0.164   0.391  1.00  0.00    -0.037 A 
ATOM      7  C   UNL     1       0.769   1.043  -0.326  1.00  0.00     0.004 A 
ATOM      8  C   UNL     1       0.543  -1.020   0.852  1.00  0.00     0.004 A 
ATOM      9  C   UNL     1       2.109   0.767  -0.597  1.00  0.00     0.000 A 
ATOM     10  C   UNL     1       1.877  -1.305   0.588  1.00  0.00     0.000 A 
ATOM     11  C   UNL     1       2.661  -0.417  -0.134  1.00  0.00     0.000 A 
ENDBRANCH   1   6
TORSDOF 3
