REMARK SMILES COc1cccc(CCC(=O)O)c1
REMARK SMILES IDX 8 1 7 2 3 3 4 4 13 5 5 6 6 7 2 8 1 9 9 10 10 11 11 12 12 13
REMARK H PARENT 12 14
REMARK Flexibility Score: inf
ROOT
ATOM      1  C   UNL     1      -1.964  -0.046  -1.145  1.00  0.00     0.047 C 
ENDROOT
BRANCH   1   2
ATOM      2  C   UNL     1      -0.539  -0.219  -0.892  1.00  0.00    -0.044 A 
ATOM      3  C   UNL     1       1.598   0.448   0.077  1.00  0.00     0.119 A 
ATOM      4  C   UNL     1       2.249  -0.657  -0.498  1.00  0.00     0.046 A 
ATOM      5  C   UNL     1       0.240   0.629  -0.136  1.00  0.00     0.050 A 
ATOM      6  C   UNL     1       1.472  -1.499  -1.250  1.00  0.00     0.004 A 
ATOM      7  C   UNL     1       0.115  -1.300  -1.451  1.00  0.00     0.004 A 
BRANCH   3   8
ATOM      8  O   UNL     1       2.277   1.358   0.848  1.00  0.00    -0.497 OA
ATOM      9  C   UNL     1       3.623   1.367   1.180  1.00  0.00     0.278 C 
ENDBRANCH   3   8
ENDBRANCH   1   2
BRANCH   1  10
ATOM     10  C   UNL     1      -2.913  -0.696  -0.200  1.00  0.00     0.127 C 
BRANCH  10  11
ATOM     11  C   UNL     1      -2.704  -0.145   1.187  1.00  0.00     0.303 C 
ATOM     12  O   UNL     1      -2.140  -0.798   2.068  1.00  0.00    -0.252 OA
BRANCH  11  13
ATOM     13  O   UNL     1      -3.161   1.145   1.492  1.00  0.00    -0.481 OA
ATOM     14  H   UNL     1      -3.567   1.401   2.388  1.00  0.00     0.296 HD
ENDBRANCH  11  13
ENDBRANCH  10  11
ENDBRANCH   1  10
TORSDOF 5
