
     RDKit          3D

 21 21  0  0  0  0  0  0  0  0999 V2000
   -4.0629   -0.6350   -0.0243 O   0  0  0  0  0  0  0  0  0  0  0  0
   -3.1423    0.3436   -0.3662 C   0  0  0  0  0  0  0  0  0  0  0  0
   -3.5417    1.5435   -0.2915 O   0  0  0  0  0  0  0  0  0  0  0  0
   -1.7491    0.0331   -0.8025 C   0  0  0  0  0  0  0  0  0  0  0  0
   -0.8458    0.3128    0.3856 C   0  0  0  0  0  0  0  0  0  0  0  0
    0.5734    0.0477    0.0963 C   0  0  0  0  0  0  0  0  0  0  0  0
    1.3547    1.0600   -0.4052 C   0  0  0  0  0  0  0  0  0  0  0  0
    2.6919    0.8417   -0.6869 C   0  0  0  0  0  0  0  0  0  0  0  0
    3.2563   -0.3763   -0.4730 C   0  0  0  0  0  0  0  0  0  0  0  0
    2.4708   -1.3901    0.0300 C   0  0  0  0  0  0  0  0  0  0  0  0
    1.1410   -1.1792    0.3120 C   0  0  0  0  0  0  0  0  0  0  0  0
   -4.7794   -0.3923    0.6495 H   0  0  0  0  0  0  0  0  0  0  0  0
   -1.4923    0.8080   -1.5692 H   0  0  0  0  0  0  0  0  0  0  0  0
   -1.6519   -0.9769   -1.1959 H   0  0  0  0  0  0  0  0  0  0  0  0
   -1.0046    1.3843    0.6490 H   0  0  0  0  0  0  0  0  0  0  0  0
   -1.2022   -0.2570    1.2852 H   0  0  0  0  0  0  0  0  0  0  0  0
    0.9002    2.0265   -0.5733 H   0  0  0  0  0  0  0  0  0  0  0  0
    3.2558    1.6551   -1.0733 H   0  0  0  0  0  0  0  0  0  0  0  0
    4.3088   -0.5094   -0.7060 H   0  0  0  0  0  0  0  0  0  0  0  0
    2.9682   -2.3539    0.1862 H   0  0  0  0  0  0  0  0  0  0  0  0
    0.5512   -1.9861    0.7031 H   0  0  0  0  0  0  0  0  0  0  0  0
  1  2  1  0
  2  3  2  0
  2  4  1  0
  4  5  1  0
  5  6  1  0
  6  7  2  0
  7  8  1  0
  8  9  2  0
  9 10  1  0
 10 11  2  0
 11  6  1  0
  1 12  1  0
  4 13  1  0
  4 14  1  0
  5 15  1  0
  5 16  1  0
  7 17  1  0
  8 18  1  0
  9 19  1  0
 10 20  1  0
 11 21  1  0
M  END
