
     RDKit          3D

 21 21  0  0  0  0  0  0  0  0999 V2000
    3.7304   -1.6111   -0.0830 O   0  0  0  0  0  0  0  0  0  0  0  0
    3.1504   -0.3736   -0.2609 C   0  0  0  0  0  0  0  0  0  0  0  0
    3.8581    0.6439   -0.1258 O   0  0  0  0  0  0  0  0  0  0  0  0
    1.7257   -0.2471   -0.6017 C   0  0  0  0  0  0  0  0  0  0  0  0
    0.9401    0.0369    0.6536 C   0  0  0  0  0  0  0  0  0  0  0  0
   -0.5126    0.1885    0.4110 C   0  0  0  0  0  0  0  0  0  0  0  0
   -1.3576   -0.9036    0.4587 C   0  0  0  0  0  0  0  0  0  0  0  0
   -2.7191   -0.7737    0.2338 C   0  0  0  0  0  0  0  0  0  0  0  0
   -3.2446    0.4556   -0.0414 C   0  0  0  0  0  0  0  0  0  0  0  0
   -2.4333    1.5683   -0.0976 C   0  0  0  0  0  0  0  0  0  0  0  0
   -1.0817    1.4042    0.1308 C   0  0  0  0  0  0  0  0  0  0  0  0
    4.4923   -1.7884    0.5718 H   0  0  0  0  0  0  0  0  0  0  0  0
    1.6244    0.6014   -1.3035 H   0  0  0  0  0  0  0  0  0  0  0  0
    1.3831   -1.1679   -1.0928 H   0  0  0  0  0  0  0  0  0  0  0  0
    1.0792   -0.8298    1.3116 H   0  0  0  0  0  0  0  0  0  0  0  0
    1.3783    0.9139    1.1617 H   0  0  0  0  0  0  0  0  0  0  0  0
   -0.9782   -1.8937    0.6758 H   0  0  0  0  0  0  0  0  0  0  0  0
   -3.3730   -1.6162    0.2639 H   0  0  0  0  0  0  0  0  0  0  0  0
   -4.3230    0.5717   -0.2270 H   0  0  0  0  0  0  0  0  0  0  0  0
   -2.8866    2.5366   -0.3263 H   0  0  0  0  0  0  0  0  0  0  0  0
   -0.4522    2.2841    0.0844 H   0  0  0  0  0  0  0  0  0  0  0  0
  1  2  1  0
  2  3  2  0
  2  4  1  0
  4  5  1  0
  5  6  1  0
  6  7  2  0
  7  8  1  0
  8  9  2  0
  9 10  1  0
 10 11  2  0
 11  6  1  0
  1 12  1  0
  4 13  1  0
  4 14  1  0
  5 15  1  0
  5 16  1  0
  7 17  1  0
  8 18  1  0
  9 19  1  0
 10 20  1  0
 11 21  1  0
M  END
