REMARK SMILES COc1cc(CCCO)cc(OC)c1O
REMARK SMILES IDX 6 1 5 2 3 3 4 4 14 5 11 6 10 7 2 8 1 9 15 10 12 12 13 13
REMARK SMILES IDX 7 14 8 15 9 16
REMARK H PARENT 15 11 9 17
REMARK Flexibility Score: inf
ROOT
ATOM      1  C   UNL     1       1.728  -0.007  -0.340  1.00  0.00     0.038 C 
ENDROOT
BRANCH   1   2
ATOM      2  C   UNL     1       0.267   0.049  -0.233  1.00  0.00    -0.040 A 
ATOM      3  C   UNL     1      -1.808  -1.146   0.111  1.00  0.00     0.164 A 
ATOM      4  C   UNL     1      -0.419  -1.127  -0.002  1.00  0.00     0.054 A 
ATOM      5  C   UNL     1      -2.551   0.008  -0.004  1.00  0.00     0.200 A 
ATOM      6  C   UNL     1      -1.872   1.185  -0.234  1.00  0.00     0.164 A 
ATOM      7  C   UNL     1      -0.488   1.195  -0.345  1.00  0.00     0.054 A 
BRANCH   3   8
ATOM      8  O   UNL     1      -2.503  -2.322   0.342  1.00  0.00    -0.493 OA
ATOM      9  C   UNL     1      -1.842  -3.579   0.478  1.00  0.00     0.278 C 
ENDBRANCH   3   8
BRANCH   5  10
ATOM     10  O   UNL     1      -3.945   0.002   0.107  1.00  0.00    -0.502 OA
ATOM     11  H   UNL     1      -4.492   0.829   0.027  1.00  0.00     0.293 HD
ENDBRANCH   5  10
BRANCH   6  12
ATOM     12  O   UNL     1      -2.617   2.341  -0.348  1.00  0.00    -0.493 OA
ATOM     13  C   UNL     1      -2.010   3.604  -0.586  1.00  0.00     0.278 C 
ENDBRANCH   6  12
ENDBRANCH   1   2
BRANCH   1  14
ATOM     14  C   UNL     1       2.449   0.171   0.963  1.00  0.00     0.033 C 
BRANCH  14  15
ATOM     15  C   UNL     1       3.946   0.080   0.633  1.00  0.00     0.156 C 
BRANCH  15  16
ATOM     16  O   UNL     1       4.179  -1.174   0.075  1.00  0.00    -0.396 OA
ATOM     17  H   UNL     1       4.974  -1.603   0.468  1.00  0.00     0.210 HD
ENDBRANCH  15  16
ENDBRANCH  14  15
ENDBRANCH   1  14
TORSDOF 7
