REMARK SMILES O=C(O)CCc1ccc2c(c1)OCO2
REMARK SMILES IDX 4 1 2 2 1 3 3 4 5 6 6 7 7 8 11 9 8 10 10 11 9 12 12 13 14 14
REMARK SMILES IDX 13 15
REMARK H PARENT 3 5
REMARK Flexibility Score: inf
ROOT
ATOM      1  C   UNL     1       2.225   0.791   0.325  1.00  0.00     0.127 C 
ENDROOT
BRANCH   1   2
ATOM      2  C   UNL     1       3.626   1.137   0.127  1.00  0.00     0.303 C 
ATOM      3  O   UNL     1       4.308   0.551  -0.742  1.00  0.00    -0.252 OA
BRANCH   2   4
ATOM      4  O   UNL     1       4.222   2.116   0.893  1.00  0.00    -0.481 OA
ATOM      5  H   UNL     1       5.081   2.588   0.627  1.00  0.00     0.296 HD
ENDBRANCH   2   4
ENDBRANCH   1   2
BRANCH   1   6
ATOM      6  C   UNL     1       1.739  -0.302  -0.602  1.00  0.00     0.047 C 
BRANCH   6   7
ATOM      7  C   UNL     1       0.305  -0.551  -0.290  1.00  0.00    -0.043 A 
ATOM      8  C   UNL     1      -0.090  -1.490   0.661  1.00  0.00     0.008 A 
ATOM      9  C   UNL     1      -0.715   0.130  -0.920  1.00  0.00     0.054 A 
ATOM     10  C   UNL     1      -1.422  -1.711   0.942  1.00  0.00     0.051 A 
ATOM     11  C   UNL     1      -2.063  -0.084  -0.646  1.00  0.00     0.166 A 
ATOM     12  C   UNL     1      -2.422  -1.017   0.297  1.00  0.00     0.165 A 
ATOM     13  O   UNL     1      -3.241   0.464  -1.138  1.00  0.00    -0.454 OA
ATOM     14  O   UNL     1      -3.826  -1.017   0.360  1.00  0.00    -0.454 OA
ATOM     15  C   UNL     1      -4.322   0.137  -0.284  1.00  0.00     0.468 C 
ENDBRANCH   6   7
ENDBRANCH   1   6
TORSDOF 4
