REMARK SMILES CC(=O)CCc1ccccc1
REMARK SMILES IDX 4 1 2 2 1 3 3 4 5 5 6 6 7 7 11 8 8 9 10 10 9 11
REMARK H PARENT
REMARK Flexibility Score: inf
ROOT
ATOM      1  C   UNL     1      -1.364  -0.688  -0.261  1.00  0.00     0.080 C 
ENDROOT
BRANCH   1   2
ATOM      2  C   UNL     1      -2.717  -0.719   0.400  1.00  0.00     0.130 C 
ATOM      3  C   UNL     1      -3.723   0.289  -0.001  1.00  0.00     0.087 C 
ATOM      4  O   UNL     1      -2.884  -1.587   1.228  1.00  0.00    -0.300 OA
ENDBRANCH   1   2
BRANCH   1   5
ATOM      5  C   UNL     1      -0.448   0.023   0.711  1.00  0.00     0.043 C 
BRANCH   5   6
ATOM      6  C   UNL     1       0.941   0.124   0.184  1.00  0.00    -0.048 A 
ATOM      7  C   UNL     1       1.320   1.211  -0.571  1.00  0.00     0.004 A 
ATOM      8  C   UNL     1       1.827  -0.883   0.467  1.00  0.00     0.004 A 
ATOM      9  C   UNL     1       2.601   1.271  -1.036  1.00  0.00     0.000 A 
ATOM     10  C   UNL     1       3.114  -0.798  -0.015  1.00  0.00     0.000 A 
ATOM     11  C   UNL     1       3.520   0.279  -0.773  1.00  0.00     0.000 A 
ENDBRANCH   5   6
ENDBRANCH   1   5
TORSDOF 3
