REMARK SMILES COc1cc(CCCO)ccc1O
REMARK SMILES IDX 6 1 5 2 3 3 4 4 12 5 11 6 10 7 2 8 1 9 13 10 7 12 8 13 9 14
REMARK H PARENT 13 11 9 15
REMARK Flexibility Score: inf
ROOT
ATOM      1  C   UNL     1       1.460  -0.569  -0.491  1.00  0.00     0.038 C 
ENDROOT
BRANCH   1   2
ATOM      2  C   UNL     1       0.283   0.329  -0.354  1.00  0.00    -0.044 A 
ATOM      3  C   UNL     1      -2.096   0.662  -0.053  1.00  0.00     0.160 A 
ATOM      4  C   UNL     1      -1.004  -0.169  -0.179  1.00  0.00     0.054 A 
ATOM      5  C   UNL     1      -1.935   2.030  -0.096  1.00  0.00     0.157 A 
ATOM      6  C   UNL     1      -0.655   2.573  -0.271  1.00  0.00     0.050 A 
ATOM      7  C   UNL     1       0.409   1.702  -0.393  1.00  0.00     0.008 A 
BRANCH   3   8
ATOM      8  O   UNL     1      -3.369   0.149   0.120  1.00  0.00    -0.493 OA
ATOM      9  C   UNL     1      -3.641  -1.237   0.179  1.00  0.00     0.278 C 
ENDBRANCH   3   8
BRANCH   5  10
ATOM     10  O   UNL     1      -2.990   2.914   0.025  1.00  0.00    -0.504 OA
ATOM     11  H   UNL     1      -2.868   3.903  -0.008  1.00  0.00     0.293 HD
ENDBRANCH   5  10
ENDBRANCH   1   2
BRANCH   1  12
ATOM     12  C   UNL     1       2.076  -0.877   0.856  1.00  0.00     0.033 C 
BRANCH  12  13
ATOM     13  C   UNL     1       3.271  -1.786   0.732  1.00  0.00     0.156 C 
BRANCH  13  14
ATOM     14  O   UNL     1       4.287  -1.263  -0.040  1.00  0.00    -0.396 OA
ATOM     15  H   UNL     1       4.507  -0.330   0.246  1.00  0.00     0.210 HD
ENDBRANCH  13  14
ENDBRANCH  12  13
ENDBRANCH   1  12
TORSDOF 6
