
     RDKit          3D

 31 31  0  0  0  0  0  0  0  0999 V2000
   -0.7256    4.0882    0.7248 C   0  0  0  0  0  0  0  0  0  0  0  0
   -1.4670    3.0628    0.1446 O   0  0  0  0  0  0  0  0  0  0  0  0
   -1.1564    1.7239    0.1569 C   0  0  0  0  0  0  0  0  0  0  0  0
   -0.0182    1.2554    0.7811 C   0  0  0  0  0  0  0  0  0  0  0  0
    0.2646   -0.0936    0.7754 C   0  0  0  0  0  0  0  0  0  0  0  0
    1.4425   -0.6955    1.4060 C   0  0  0  0  0  0  0  0  0  0  0  0
    2.6385   -0.7950    0.5013 C   0  0  0  0  0  0  0  0  0  0  0  0
    2.3310   -1.6406   -0.7142 C   0  0  0  0  0  0  0  0  0  0  0  0
    3.4876   -1.6903   -1.5118 O   0  0  0  0  0  0  0  0  0  0  0  0
   -0.6231   -0.9430    0.1301 C   0  0  0  0  0  0  0  0  0  0  0  0
   -1.7677   -0.4787   -0.4985 C   0  0  0  0  0  0  0  0  0  0  0  0
   -2.6143   -1.3992   -1.1283 O   0  0  0  0  0  0  0  0  0  0  0  0
   -2.3112   -2.7660   -1.1241 C   0  0  0  0  0  0  0  0  0  0  0  0
   -2.0380    0.8655   -0.4859 C   0  0  0  0  0  0  0  0  0  0  0  0
   -3.1901    1.3139   -1.1210 O   0  0  0  0  0  0  0  0  0  0  0  0
   -0.0816    3.7705    1.5666 H   0  0  0  0  0  0  0  0  0  0  0  0
   -0.0542    4.5081   -0.0763 H   0  0  0  0  0  0  0  0  0  0  0  0
   -1.3380    4.9426    1.0738 H   0  0  0  0  0  0  0  0  0  0  0  0
    0.6728    1.8983    1.2809 H   0  0  0  0  0  0  0  0  0  0  0  0
    1.1829   -1.7253    1.7522 H   0  0  0  0  0  0  0  0  0  0  0  0
    1.6799   -0.1241    2.3259 H   0  0  0  0  0  0  0  0  0  0  0  0
    3.0653    0.1782    0.2396 H   0  0  0  0  0  0  0  0  0  0  0  0
    3.4277   -1.3432    1.0709 H   0  0  0  0  0  0  0  0  0  0  0  0
    2.0274   -2.6455   -0.3775 H   0  0  0  0  0  0  0  0  0  0  0  0
    1.5494   -1.1201   -1.3047 H   0  0  0  0  0  0  0  0  0  0  0  0
    4.1442   -0.9914   -1.2191 H   0  0  0  0  0  0  0  0  0  0  0  0
   -0.4306   -2.0127    0.1064 H   0  0  0  0  0  0  0  0  0  0  0  0
   -3.1561   -3.3540   -1.5049 H   0  0  0  0  0  0  0  0  0  0  0  0
   -2.1158   -3.1541   -0.0846 H   0  0  0  0  0  0  0  0  0  0  0  0
   -1.4054   -2.9388   -1.7549 H   0  0  0  0  0  0  0  0  0  0  0  0
   -3.4205    2.3035   -1.1307 H   0  0  0  0  0  0  0  0  0  0  0  0
  1  2  1  0
  2  3  1  0
  3  4  2  0
  4  5  1  0
  5  6  1  0
  6  7  1  0
  7  8  1  0
  8  9  1  0
  5 10  2  0
 10 11  1  0
 11 12  1  0
 12 13  1  0
 11 14  2  0
 14 15  1  0
 14  3  1  0
  1 16  1  0
  1 17  1  0
  1 18  1  0
  4 19  1  0
  6 20  1  0
  6 21  1  0
  7 22  1  0
  7 23  1  0
  8 24  1  0
  8 25  1  0
  9 26  1  0
 10 27  1  0
 13 28  1  0
 13 29  1  0
 13 30  1  0
 15 31  1  0
M  END
