REMARK SMILES COc1cc(CCCO)ccc1O
REMARK SMILES IDX 6 1 5 2 3 3 4 4 12 5 11 6 10 7 2 8 1 9 13 10 7 12 8 13 9 14
REMARK H PARENT 13 11 9 15
REMARK Flexibility Score: inf
ROOT
ATOM      1  C   UNL     1       1.671  -0.522  -1.078  1.00  0.00     0.038 C 
ENDROOT
BRANCH   1   2
ATOM      2  C   UNL     1       0.310  -0.800  -0.571  1.00  0.00    -0.044 A 
ATOM      3  C   UNL     1      -1.866  -0.016   0.139  1.00  0.00     0.160 A 
ATOM      4  C   UNL     1      -0.581   0.226  -0.340  1.00  0.00     0.054 A 
ATOM      5  C   UNL     1      -2.215  -1.325   0.374  1.00  0.00     0.157 A 
ATOM      6  C   UNL     1      -1.363  -2.387   0.160  1.00  0.00     0.050 A 
ATOM      7  C   UNL     1      -0.095  -2.097  -0.316  1.00  0.00     0.008 A 
BRANCH   3   8
ATOM      8  O   UNL     1      -2.714   1.057   0.350  1.00  0.00    -0.493 OA
ATOM      9  C   UNL     1      -2.365   2.388   0.113  1.00  0.00     0.278 C 
ENDBRANCH   3   8
BRANCH   5  10
ATOM     10  O   UNL     1      -3.490  -1.587   0.851  1.00  0.00    -0.504 OA
ATOM     11  H   UNL     1      -3.837  -2.515   1.054  1.00  0.00     0.293 HD
ENDBRANCH   5  10
ENDBRANCH   1   2
BRANCH   1  12
ATOM     12  C   UNL     1       2.693  -0.313  -0.015  1.00  0.00     0.033 C 
BRANCH  12  13
ATOM     13  C   UNL     1       2.339   0.848   0.853  1.00  0.00     0.156 C 
BRANCH  13  14
ATOM     14  O   UNL     1       2.270   1.992   0.083  1.00  0.00    -0.396 OA
ATOM     15  H   UNL     1       3.060   2.559   0.270  1.00  0.00     0.210 HD
ENDBRANCH  13  14
ENDBRANCH  12  13
ENDBRANCH   1  12
TORSDOF 6
