REMARK SMILES O=C(O)CCc1ccc2c(c1)OCO2
REMARK SMILES IDX 4 1 2 2 1 3 3 4 5 6 6 7 7 8 11 9 8 10 10 11 9 12 12 13 14 14
REMARK SMILES IDX 13 15
REMARK H PARENT 3 5
REMARK Flexibility Score: inf
ROOT
ATOM      1  C   UNL     1      -2.715  -0.728  -0.558  1.00  0.00     0.127 C 
ENDROOT
BRANCH   1   2
ATOM      2  C   UNL     1      -2.697  -0.285   0.854  1.00  0.00     0.303 C 
ATOM      3  O   UNL     1      -2.520  -1.117   1.770  1.00  0.00    -0.252 OA
BRANCH   2   4
ATOM      4  O   UNL     1      -2.871   1.039   1.222  1.00  0.00    -0.481 OA
ATOM      5  H   UNL     1      -3.362   1.323   2.062  1.00  0.00     0.296 HD
ENDBRANCH   2   4
ENDBRANCH   1   2
BRANCH   1   6
ATOM      6  C   UNL     1      -1.429  -1.399  -0.890  1.00  0.00     0.047 C 
BRANCH   6   7
ATOM      7  C   UNL     1      -0.244  -0.558  -0.752  1.00  0.00    -0.043 A 
ATOM      8  C   UNL     1       0.247   0.259  -1.758  1.00  0.00     0.008 A 
ATOM      9  C   UNL     1       0.445  -0.564   0.434  1.00  0.00     0.054 A 
ATOM     10  C   UNL     1       1.367   1.038  -1.602  1.00  0.00     0.051 A 
ATOM     11  C   UNL     1       1.584   0.218   0.613  1.00  0.00     0.166 A 
ATOM     12  C   UNL     1       2.034   1.012  -0.408  1.00  0.00     0.165 A 
ATOM     13  O   UNL     1       2.458   0.399   1.696  1.00  0.00    -0.454 OA
ATOM     14  O   UNL     1       3.186   1.668   0.075  1.00  0.00    -0.454 OA
ATOM     15  C   UNL     1       3.692   0.904   1.161  1.00  0.00     0.468 C 
ENDBRANCH   6   7
ENDBRANCH   1   6
TORSDOF 4
