
     RDKit          3D

 31 31  0  0  0  0  0  0  0  0999 V2000
   -1.3007    3.5988    1.4536 C   0  0  0  0  0  0  0  0  0  0  0  0
   -2.0660    2.5376    0.9779 O   0  0  0  0  0  0  0  0  0  0  0  0
   -1.5901    1.3110    0.5973 C   0  0  0  0  0  0  0  0  0  0  0  0
   -0.2452    1.0107    0.6572 C   0  0  0  0  0  0  0  0  0  0  0  0
    0.2575   -0.2084    0.2826 C   0  0  0  0  0  0  0  0  0  0  0  0
    1.6875   -0.5672    0.3320 C   0  0  0  0  0  0  0  0  0  0  0  0
    2.4219   -0.2457   -0.9459 C   0  0  0  0  0  0  0  0  0  0  0  0
    3.8769   -0.6793   -0.7192 C   0  0  0  0  0  0  0  0  0  0  0  0
    4.4055    0.0273    0.3575 O   0  0  0  0  0  0  0  0  0  0  0  0
   -0.6259   -1.1653   -0.1706 C   0  0  0  0  0  0  0  0  0  0  0  0
   -1.9803   -0.8896   -0.2404 C   0  0  0  0  0  0  0  0  0  0  0  0
   -2.8735   -1.8540   -0.6975 O   0  0  0  0  0  0  0  0  0  0  0  0
   -2.3948   -3.1102   -1.0883 C   0  0  0  0  0  0  0  0  0  0  0  0
   -2.4722    0.3521    0.1436 C   0  0  0  0  0  0  0  0  0  0  0  0
   -3.8421    0.5603    0.0476 O   0  0  0  0  0  0  0  0  0  0  0  0
   -1.1232    3.4437    2.5388 H   0  0  0  0  0  0  0  0  0  0  0  0
   -0.3067    3.6244    0.9190 H   0  0  0  0  0  0  0  0  0  0  0  0
   -1.7532    4.5957    1.2533 H   0  0  0  0  0  0  0  0  0  0  0  0
    0.4756    1.7440    1.0100 H   0  0  0  0  0  0  0  0  0  0  0  0
    1.7903   -1.6599    0.4945 H   0  0  0  0  0  0  0  0  0  0  0  0
    2.1624   -0.0034    1.1428 H   0  0  0  0  0  0  0  0  0  0  0  0
    2.0417   -0.7963   -1.8160 H   0  0  0  0  0  0  0  0  0  0  0  0
    2.3961    0.8524   -1.0971 H   0  0  0  0  0  0  0  0  0  0  0  0
    4.4719   -0.5539   -1.6412 H   0  0  0  0  0  0  0  0  0  0  0  0
    3.9020   -1.7524   -0.4404 H   0  0  0  0  0  0  0  0  0  0  0  0
    3.9508    0.8984    0.4915 H   0  0  0  0  0  0  0  0  0  0  0  0
   -0.2511   -2.1435   -0.4747 H   0  0  0  0  0  0  0  0  0  0  0  0
   -1.6336   -3.0265   -1.9029 H   0  0  0  0  0  0  0  0  0  0  0  0
   -1.9204   -3.6858   -0.2707 H   0  0  0  0  0  0  0  0  0  0  0  0
   -3.2447   -3.6777   -1.5187 H   0  0  0  0  0  0  0  0  0  0  0  0
   -4.2163    1.4626    0.3246 H   0  0  0  0  0  0  0  0  0  0  0  0
  1  2  1  0
  2  3  1  0
  3  4  2  0
  4  5  1  0
  5  6  1  0
  6  7  1  0
  7  8  1  0
  8  9  1  0
  5 10  2  0
 10 11  1  0
 11 12  1  0
 12 13  1  0
 11 14  2  0
 14 15  1  0
 14  3  1  0
  1 16  1  0
  1 17  1  0
  1 18  1  0
  4 19  1  0
  6 20  1  0
  6 21  1  0
  7 22  1  0
  7 23  1  0
  8 24  1  0
  8 25  1  0
  9 26  1  0
 10 27  1  0
 13 28  1  0
 13 29  1  0
 13 30  1  0
 15 31  1  0
M  END
