
     RDKit          3D

 18 18  0  0  0  0  0  0  0  0999 V2000
   -3.6938    0.2988   -0.4059 O   0  0  0  0  0  0  0  0  0  0  0  0
   -2.3324    0.0666   -0.4208 C   0  0  0  0  0  0  0  0  0  0  0  0
   -1.8659   -0.5788   -1.3880 O   0  0  0  0  0  0  0  0  0  0  0  0
   -1.4172    0.5343    0.6299 C   0  0  0  0  0  0  0  0  0  0  0  0
   -0.0156    0.1637    0.3910 C   0  0  0  0  0  0  0  0  0  0  0  0
    0.7689    1.0433   -0.3263 C   0  0  0  0  0  0  0  0  0  0  0  0
    2.1091    0.7668   -0.5966 C   0  0  0  0  0  0  0  0  0  0  0  0
    2.6613   -0.4170   -0.1336 C   0  0  0  0  0  0  0  0  0  0  0  0
    1.8775   -1.3050    0.5880 C   0  0  0  0  0  0  0  0  0  0  0  0
    0.5430   -1.0198    0.8517 C   0  0  0  0  0  0  0  0  0  0  0  0
   -4.3684   -0.2379   -0.9381 H   0  0  0  0  0  0  0  0  0  0  0  0
   -1.4954    1.6493    0.6789 H   0  0  0  0  0  0  0  0  0  0  0  0
   -1.7698    0.1220    1.5931 H   0  0  0  0  0  0  0  0  0  0  0  0
    0.3695    1.9934   -0.7115 H   0  0  0  0  0  0  0  0  0  0  0  0
    2.7149    1.4794   -1.1683 H   0  0  0  0  0  0  0  0  0  0  0  0
    3.7174   -0.6474   -0.3398 H   0  0  0  0  0  0  0  0  0  0  0  0
    2.2993   -2.2332    0.9545 H   0  0  0  0  0  0  0  0  0  0  0  0
   -0.1023   -1.6783    1.4069 H   0  0  0  0  0  0  0  0  0  0  0  0
  1  2  1  0
  2  3  2  0
  2  4  1  0
  4  5  1  0
  5  6  2  0
  6  7  1  0
  7  8  2  0
  8  9  1  0
  9 10  2  0
 10  5  1  0
  1 11  1  0
  4 12  1  0
  4 13  1  0
  6 14  1  0
  7 15  1  0
  8 16  1  0
  9 17  1  0
 10 18  1  0
M  END
