REMARK SMILES O=C(O)CCc1ccccc1
REMARK SMILES IDX 4 1 2 2 1 3 3 4 5 6 6 7 7 8 11 9 8 10 10 11 9 12
REMARK H PARENT 3 5
REMARK Flexibility Score: inf
ROOT
ATOM      1  C   UNL     1      -1.749   0.033  -0.803  1.00  0.00     0.127 C 
ENDROOT
BRANCH   1   2
ATOM      2  C   UNL     1      -3.142   0.344  -0.366  1.00  0.00     0.303 C 
ATOM      3  O   UNL     1      -3.542   1.543  -0.291  1.00  0.00    -0.252 OA
BRANCH   2   4
ATOM      4  O   UNL     1      -4.063  -0.635  -0.024  1.00  0.00    -0.481 OA
ATOM      5  H   UNL     1      -4.779  -0.392   0.649  1.00  0.00     0.296 HD
ENDBRANCH   2   4
ENDBRANCH   1   2
BRANCH   1   6
ATOM      6  C   UNL     1      -0.846   0.313   0.386  1.00  0.00     0.047 C 
BRANCH   6   7
ATOM      7  C   UNL     1       0.573   0.048   0.096  1.00  0.00    -0.047 A 
ATOM      8  C   UNL     1       1.355   1.060  -0.405  1.00  0.00     0.004 A 
ATOM      9  C   UNL     1       1.141  -1.179   0.312  1.00  0.00     0.004 A 
ATOM     10  C   UNL     1       2.692   0.842  -0.687  1.00  0.00     0.000 A 
ATOM     11  C   UNL     1       2.471  -1.390   0.030  1.00  0.00     0.000 A 
ATOM     12  C   UNL     1       3.256  -0.376  -0.473  1.00  0.00     0.000 A 
ENDBRANCH   6   7
ENDBRANCH   1   6
TORSDOF 4
