REMARK SMILES CC(=O)CCc1ccc2c(c1)OCO2
REMARK SMILES IDX 4 1 2 2 1 3 3 4 5 5 6 6 7 7 11 8 8 9 10 10 9 11 12 12 14 13
REMARK SMILES IDX 13 14
REMARK H PARENT
REMARK Flexibility Score: inf
ROOT
ATOM      1  C   UNL     1      -2.048  -0.041   0.005  1.00  0.00     0.080 C 
ENDROOT
BRANCH   1   2
ATOM      2  C   UNL     1      -3.460  -0.254  -0.371  1.00  0.00     0.130 C 
ATOM      3  C   UNL     1      -4.488  -0.305   0.688  1.00  0.00     0.087 C 
ATOM      4  O   UNL     1      -3.745  -0.382  -1.536  1.00  0.00    -0.300 OA
ENDBRANCH   1   2
BRANCH   1   5
ATOM      5  C   UNL     1      -1.152  -0.020  -1.216  1.00  0.00     0.043 C 
BRANCH   5   6
ATOM      6  C   UNL     1       0.245   0.192  -0.826  1.00  0.00    -0.044 A 
ATOM      7  C   UNL     1       0.756   1.470  -0.733  1.00  0.00     0.008 A 
ATOM      8  C   UNL     1       1.094  -0.863  -0.541  1.00  0.00     0.054 A 
ATOM      9  C   UNL     1       2.077   1.714  -0.367  1.00  0.00     0.051 A 
ATOM     10  C   UNL     1       2.420  -0.650  -0.172  1.00  0.00     0.166 A 
ATOM     11  C   UNL     1       2.901   0.640  -0.088  1.00  0.00     0.165 A 
ATOM     12  O   UNL     1       3.481  -1.490   0.165  1.00  0.00    -0.454 OA
ATOM     13  O   UNL     1       4.233   0.570   0.294  1.00  0.00    -0.454 OA
ATOM     14  C   UNL     1       4.690  -0.776   0.195  1.00  0.00     0.468 C 
ENDBRANCH   5   6
ENDBRANCH   1   5
TORSDOF 3
