REMARK SMILES O=C(O)CCc1ccccc1
REMARK SMILES IDX 4 1 2 2 1 3 3 4 5 6 6 7 7 8 11 9 8 10 10 11 9 12
REMARK H PARENT 3 5
REMARK Flexibility Score: inf
ROOT
ATOM      1  C   UNL     1       1.666  -0.500   0.586  1.00  0.00     0.127 C 
ENDROOT
BRANCH   1   2
ATOM      2  C   UNL     1       3.122  -0.313   0.349  1.00  0.00     0.303 C 
ATOM      3  O   UNL     1       3.567   0.442  -0.574  1.00  0.00    -0.252 OA
BRANCH   2   4
ATOM      4  O   UNL     1       4.088  -0.948   1.120  1.00  0.00    -0.481 OA
ATOM      5  H   UNL     1       4.951  -0.466   1.338  1.00  0.00     0.296 HD
ENDBRANCH   2   4
ENDBRANCH   1   2
BRANCH   1   6
ATOM      6  C   UNL     1       0.919   0.336  -0.430  1.00  0.00     0.047 C 
BRANCH   6   7
ATOM      7  C   UNL     1      -0.537   0.234  -0.298  1.00  0.00    -0.047 A 
ATOM      8  C   UNL     1      -1.206   1.110   0.520  1.00  0.00     0.004 A 
ATOM      9  C   UNL     1      -1.249  -0.719  -0.973  1.00  0.00     0.004 A 
ATOM     10  C   UNL     1      -2.583   1.053   0.678  1.00  0.00     0.000 A 
ATOM     11  C   UNL     1      -2.641  -0.795  -0.829  1.00  0.00     0.000 A 
ATOM     12  C   UNL     1      -3.302   0.109   0.010  1.00  0.00     0.000 A 
ENDBRANCH   6   7
ENDBRANCH   1   6
TORSDOF 4
