REMARK SMILES COc1cc(CCC(=O)O)ccc1O
REMARK SMILES IDX 6 1 5 2 3 3 4 4 13 5 12 6 11 7 2 8 1 9 14 10 7 12 8 13 9 14
REMARK SMILES IDX 10 15
REMARK H PARENT 14 11 10 16
REMARK Flexibility Score: inf
ROOT
ATOM      1  C   UNL     1       1.595  -0.912  -0.213  1.00  0.00     0.047 C 
ENDROOT
BRANCH   1   2
ATOM      2  C   UNL     1       0.197  -0.557  -0.583  1.00  0.00    -0.043 A 
ATOM      3  C   UNL     1      -2.050  -0.088   0.103  1.00  0.00     0.160 A 
ATOM      4  C   UNL     1      -0.749  -0.415   0.402  1.00  0.00     0.054 A 
ATOM      5  C   UNL     1      -2.414   0.102  -1.210  1.00  0.00     0.157 A 
ATOM      6  C   UNL     1      -1.462  -0.042  -2.192  1.00  0.00     0.050 A 
ATOM      7  C   UNL     1      -0.157  -0.370  -1.894  1.00  0.00     0.008 A 
BRANCH   3   8
ATOM      8  O   UNL     1      -3.027   0.061   1.094  1.00  0.00    -0.493 OA
ATOM      9  C   UNL     1      -2.695  -0.126   2.465  1.00  0.00     0.278 C 
ENDBRANCH   3   8
BRANCH   5  10
ATOM     10  O   UNL     1      -3.744   0.434  -1.490  1.00  0.00    -0.504 OA
ATOM     11  H   UNL     1      -4.008   0.573  -2.461  1.00  0.00     0.293 HD
ENDBRANCH   5  10
ENDBRANCH   1   2
BRANCH   1  12
ATOM     12  C   UNL     1       2.333   0.391   0.008  1.00  0.00     0.127 C 
BRANCH  12  13
ATOM     13  C   UNL     1       3.759   0.148   0.387  1.00  0.00     0.303 C 
ATOM     14  O   UNL     1       4.262  -0.979   0.504  1.00  0.00    -0.252 OA
BRANCH  13  15
ATOM     15  O   UNL     1       4.536   1.276   0.616  1.00  0.00    -0.481 OA
ATOM     16  H   UNL     1       5.498   1.260   0.863  1.00  0.00     0.296 HD
ENDBRANCH  13  15
ENDBRANCH  12  13
ENDBRANCH   1  12
TORSDOF 6
