
     RDKit          3D

 25 25  0  0  0  0  0  0  0  0999 V2000
    4.3526   -0.5506   -0.2978 C   0  0  0  0  0  0  0  0  0  0  0  0
    3.0093   -0.7602   -0.6045 O   0  0  0  0  0  0  0  0  0  0  0  0
    1.9698   -0.0104   -0.1016 C   0  0  0  0  0  0  0  0  0  0  0  0
    2.2518    1.0133    0.7625 C   0  0  0  0  0  0  0  0  0  0  0  0
    1.1622    1.7420    1.2427 C   0  0  0  0  0  0  0  0  0  0  0  0
   -0.1404    1.4761    0.8907 C   0  0  0  0  0  0  0  0  0  0  0  0
   -0.3983    0.4382    0.0182 C   0  0  0  0  0  0  0  0  0  0  0  0
   -1.7449    0.0837   -0.4216 C   0  0  0  0  0  0  0  0  0  0  0  0
   -2.4673   -0.8888    0.4626 C   0  0  0  0  0  0  0  0  0  0  0  0
   -3.8002   -1.1434   -0.1535 C   0  0  0  0  0  0  0  0  0  0  0  0
   -4.7780   -0.1584   -0.0207 O   0  0  0  0  0  0  0  0  0  0  0  0
   -4.0745   -2.2002   -0.7836 O   0  0  0  0  0  0  0  0  0  0  0  0
    0.6814   -0.3024   -0.4732 C   0  0  0  0  0  0  0  0  0  0  0  0
    4.6737   -0.9700    0.6749 H   0  0  0  0  0  0  0  0  0  0  0  0
    4.5310    0.5545   -0.2744 H   0  0  0  0  0  0  0  0  0  0  0  0
    4.9769   -1.0152   -1.1142 H   0  0  0  0  0  0  0  0  0  0  0  0
    3.2319    1.3092    1.1058 H   0  0  0  0  0  0  0  0  0  0  0  0
    1.3170    2.5753    1.9403 H   0  0  0  0  0  0  0  0  0  0  0  0
   -0.9904    2.0302    1.2560 H   0  0  0  0  0  0  0  0  0  0  0  0
   -1.6746   -0.4120   -1.4255 H   0  0  0  0  0  0  0  0  0  0  0  0
   -2.3908    0.9957   -0.5881 H   0  0  0  0  0  0  0  0  0  0  0  0
   -1.9624   -1.8727    0.5225 H   0  0  0  0  0  0  0  0  0  0  0  0
   -2.6194   -0.5323    1.4855 H   0  0  0  0  0  0  0  0  0  0  0  0
   -5.6572   -0.2718   -0.5406 H   0  0  0  0  0  0  0  0  0  0  0  0
    0.5404   -1.1298   -1.1600 H   0  0  0  0  0  0  0  0  0  0  0  0
  1  2  1  0
  2  3  1  0
  3  4  2  0
  4  5  1  0
  5  6  2  0
  6  7  1  0
  7  8  1  0
  8  9  1  0
  9 10  1  0
 10 11  1  0
 10 12  2  0
  7 13  2  0
 13  3  1  0
  1 14  1  0
  1 15  1  0
  1 16  1  0
  4 17  1  0
  5 18  1  0
  6 19  1  0
  8 20  1  0
  8 21  1  0
  9 22  1  0
  9 23  1  0
 11 24  1  0
 13 25  1  0
M  END
