REMARK SMILES COc1cc(CCCO)cc(OC)c1O
REMARK SMILES IDX 6 1 5 2 3 3 4 4 14 5 11 6 10 7 2 8 1 9 15 10 12 12 13 13
REMARK SMILES IDX 7 14 8 15 9 16
REMARK H PARENT 15 11 9 17
REMARK Flexibility Score: inf
ROOT
ATOM      1  C   UNL     1       1.442  -0.696   1.406  1.00  0.00     0.038 C 
ENDROOT
BRANCH   1   2
ATOM      2  C   UNL     1       0.265  -0.094   0.775  1.00  0.00    -0.040 A 
ATOM      3  C   UNL     1      -1.156   1.724   0.157  1.00  0.00     0.164 A 
ATOM      4  C   UNL     1      -0.018   1.255   0.781  1.00  0.00     0.054 A 
ATOM      5  C   UNL     1      -2.038   0.865  -0.486  1.00  0.00     0.200 A 
ATOM      6  C   UNL     1      -1.768  -0.479  -0.498  1.00  0.00     0.164 A 
ATOM      7  C   UNL     1      -0.623  -0.943   0.130  1.00  0.00     0.054 A 
BRANCH   3   8
ATOM      8  O   UNL     1      -1.467   3.063   0.145  1.00  0.00    -0.493 OA
ATOM      9  C   UNL     1      -0.726   4.088   0.725  1.00  0.00     0.278 C 
ENDBRANCH   3   8
BRANCH   5  10
ATOM     10  O   UNL     1      -3.190   1.314  -1.121  1.00  0.00    -0.502 OA
ATOM     11  H   UNL     1      -3.420   2.304  -1.131  1.00  0.00     0.293 HD
ENDBRANCH   5  10
BRANCH   6  12
ATOM     12  O   UNL     1      -2.614  -1.399  -1.128  1.00  0.00    -0.493 OA
ATOM     13  C   UNL     1      -2.311  -2.766  -1.124  1.00  0.00     0.278 C 
ENDBRANCH   6  12
ENDBRANCH   1   2
BRANCH   1  14
ATOM     14  C   UNL     1       2.638  -0.795   0.501  1.00  0.00     0.033 C 
BRANCH  14  15
ATOM     15  C   UNL     1       2.331  -1.641  -0.714  1.00  0.00     0.156 C 
BRANCH  15  16
ATOM     16  O   UNL     1       3.488  -1.690  -1.512  1.00  0.00    -0.396 OA
ATOM     17  H   UNL     1       4.144  -0.991  -1.219  1.00  0.00     0.210 HD
ENDBRANCH  15  16
ENDBRANCH  14  15
ENDBRANCH   1  14
TORSDOF 7
