REMARK SMILES CC(=O)CCc1ccc2c(c1)OCO2
REMARK SMILES IDX 4 1 2 2 1 3 3 4 5 5 6 6 7 7 11 8 8 9 10 10 9 11 12 12 14 13
REMARK SMILES IDX 13 14
REMARK H PARENT
REMARK Flexibility Score: inf
ROOT
ATOM      1  C   UNL     1       2.404  -0.614  -0.424  1.00  0.00     0.080 C 
ENDROOT
BRANCH   1   2
ATOM      2  C   UNL     1       2.490   0.276   0.748  1.00  0.00     0.130 C 
ATOM      3  C   UNL     1       3.751   1.119   0.833  1.00  0.00     0.087 C 
ATOM      4  O   UNL     1       1.690   0.410   1.630  1.00  0.00    -0.300 OA
ENDBRANCH   1   2
BRANCH   1   5
ATOM      5  C   UNL     1       1.182  -1.439  -0.527  1.00  0.00     0.043 C 
BRANCH   5   6
ATOM      6  C   UNL     1      -0.099  -0.732  -0.610  1.00  0.00    -0.044 A 
ATOM      7  C   UNL     1      -0.594  -0.228  -1.814  1.00  0.00     0.008 A 
ATOM      8  C   UNL     1      -0.871  -0.571   0.517  1.00  0.00     0.054 A 
ATOM      9  C   UNL     1      -1.813   0.399  -1.823  1.00  0.00     0.051 A 
ATOM     10  C   UNL     1      -2.116   0.075   0.479  1.00  0.00     0.166 A 
ATOM     11  C   UNL     1      -2.604   0.573  -0.709  1.00  0.00     0.165 A 
ATOM     12  O   UNL     1      -3.085   0.374   1.429  1.00  0.00    -0.454 OA
ATOM     13  O   UNL     1      -3.852   1.163  -0.471  1.00  0.00    -0.454 OA
ATOM     14  C   UNL     1      -4.307   0.598   0.741  1.00  0.00     0.468 C 
ENDBRANCH   5   6
ENDBRANCH   1   5
TORSDOF 3
