REMARK SMILES CC(=O)CCc1ccccc1
REMARK SMILES IDX 4 1 2 2 1 3 3 4 5 5 6 6 7 7 11 8 8 9 10 10 9 11
REMARK H PARENT
REMARK Flexibility Score: inf
ROOT
ATOM      1  C   UNL     1       1.420   0.303   0.430  1.00  0.00     0.080 C 
ENDROOT
BRANCH   1   2
ATOM      2  C   UNL     1       2.787   0.496  -0.118  1.00  0.00     0.130 C 
ATOM      3  C   UNL     1       3.756  -0.621  -0.266  1.00  0.00     0.087 C 
ATOM      4  O   UNL     1       3.110   1.622  -0.455  1.00  0.00    -0.300 OA
ENDBRANCH   1   2
BRANCH   1   5
ATOM      5  C   UNL     1       0.462   0.288  -0.742  1.00  0.00     0.043 C 
BRANCH   5   6
ATOM      6  C   UNL     1      -0.948   0.099  -0.313  1.00  0.00    -0.048 A 
ATOM      7  C   UNL     1      -1.532  -1.147  -0.186  1.00  0.00     0.004 A 
ATOM      8  C   UNL     1      -1.727   1.201  -0.023  1.00  0.00     0.004 A 
ATOM      9  C   UNL     1      -2.848  -1.282   0.216  1.00  0.00     0.000 A 
ATOM     10  C   UNL     1      -3.050   1.101   0.383  1.00  0.00     0.000 A 
ATOM     11  C   UNL     1      -3.618  -0.161   0.504  1.00  0.00     0.000 A 
ENDBRANCH   5   6
ENDBRANCH   1   5
TORSDOF 3
