REMARK SMILES CC(=O)CCc1ccc2c(c1)OCO2
REMARK SMILES IDX 4 1 2 2 1 3 3 4 5 5 6 6 7 7 11 8 8 9 10 10 9 11 12 12 14 13
REMARK SMILES IDX 13 14
REMARK H PARENT
REMARK Flexibility Score: inf
ROOT
ATOM      1  C   UNL     1      -2.008   0.088   0.212  1.00  0.00     0.080 C 
ENDROOT
BRANCH   1   2
ATOM      2  C   UNL     1      -3.464  -0.182   0.056  1.00  0.00     0.130 C 
ATOM      3  C   UNL     1      -4.364   0.338   1.122  1.00  0.00     0.087 C 
ATOM      4  O   UNL     1      -3.861  -0.800  -0.910  1.00  0.00    -0.300 OA
ENDBRANCH   1   2
BRANCH   1   5
ATOM      5  C   UNL     1      -1.203  -0.487  -0.929  1.00  0.00     0.043 C 
BRANCH   5   6
ATOM      6  C   UNL     1       0.223  -0.168  -0.681  1.00  0.00    -0.044 A 
ATOM      7  C   UNL     1       0.719   1.016  -1.188  1.00  0.00     0.008 A 
ATOM      8  C   UNL     1       1.036  -1.022   0.034  1.00  0.00     0.054 A 
ATOM      9  C   UNL     1       2.059   1.363  -0.981  1.00  0.00     0.051 A 
ATOM     10  C   UNL     1       2.375  -0.698   0.254  1.00  0.00     0.166 A 
ATOM     11  C   UNL     1       2.844   0.482  -0.260  1.00  0.00     0.165 A 
ATOM     12  O   UNL     1       3.427  -1.319   0.911  1.00  0.00    -0.454 OA
ATOM     13  O   UNL     1       4.201   0.634   0.061  1.00  0.00    -0.454 OA
ATOM     14  C   UNL     1       4.608  -0.575   0.672  1.00  0.00     0.468 C 
ENDBRANCH   5   6
ENDBRANCH   1   5
TORSDOF 3
