
     RDKit          3D

 27 27  0  0  0  0  0  0  0  0999 V2000
    3.1376    1.6500    1.1933 C   0  0  0  0  0  0  0  0  0  0  0  0
    3.1992    0.3495    0.6682 O   0  0  0  0  0  0  0  0  0  0  0  0
    2.0871   -0.3929    0.3031 C   0  0  0  0  0  0  0  0  0  0  0  0
    0.7978    0.0940    0.4276 C   0  0  0  0  0  0  0  0  0  0  0  0
   -0.3076   -0.6479    0.0631 C   0  0  0  0  0  0  0  0  0  0  0  0
   -1.6995   -0.1373    0.1914 C   0  0  0  0  0  0  0  0  0  0  0  0
   -2.1572    0.5806   -1.0467 C   0  0  0  0  0  0  0  0  0  0  0  0
   -3.5803    1.0501   -0.7933 C   0  0  0  0  0  0  0  0  0  0  0  0
   -3.6387    1.9118    0.3013 O   0  0  0  0  0  0  0  0  0  0  0  0
   -0.0582   -1.9111   -0.4362 C   0  0  0  0  0  0  0  0  0  0  0  0
    1.2231   -2.4099   -0.5660 C   0  0  0  0  0  0  0  0  0  0  0  0
    2.3190   -1.6580   -0.1980 C   0  0  0  0  0  0  0  0  0  0  0  0
    3.6045   -2.1751   -0.3349 O   0  0  0  0  0  0  0  0  0  0  0  0
    2.3737    1.6696    2.0007 H   0  0  0  0  0  0  0  0  0  0  0  0
    2.9799    2.4337    0.4316 H   0  0  0  0  0  0  0  0  0  0  0  0
    4.1514    1.8636    1.6328 H   0  0  0  0  0  0  0  0  0  0  0  0
    0.6444    1.1050    0.8298 H   0  0  0  0  0  0  0  0  0  0  0  0
   -1.7923    0.5863    1.0468 H   0  0  0  0  0  0  0  0  0  0  0  0
   -2.3495   -1.0068    0.3612 H   0  0  0  0  0  0  0  0  0  0  0  0
   -2.1781   -0.0861   -1.9269 H   0  0  0  0  0  0  0  0  0  0  0  0
   -1.5386    1.4896   -1.2402 H   0  0  0  0  0  0  0  0  0  0  0  0
   -4.2382    0.1898   -0.5627 H   0  0  0  0  0  0  0  0  0  0  0  0
   -3.9471    1.6381   -1.6771 H   0  0  0  0  0  0  0  0  0  0  0  0
   -3.9368    1.4280    1.1153 H   0  0  0  0  0  0  0  0  0  0  0  0
   -0.9056   -2.5349   -0.7380 H   0  0  0  0  0  0  0  0  0  0  0  0
    1.3966   -3.4175   -0.9657 H   0  0  0  0  0  0  0  0  0  0  0  0
    4.4133   -1.6621   -0.0804 H   0  0  0  0  0  0  0  0  0  0  0  0
  1  2  1  0
  2  3  1  0
  3  4  2  0
  4  5  1  0
  5  6  1  0
  6  7  1  0
  7  8  1  0
  8  9  1  0
  5 10  2  0
 10 11  1  0
 11 12  2  0
 12 13  1  0
 12  3  1  0
  1 14  1  0
  1 15  1  0
  1 16  1  0
  4 17  1  0
  6 18  1  0
  6 19  1  0
  7 20  1  0
  7 21  1  0
  8 22  1  0
  8 23  1  0
  9 24  1  0
 10 25  1  0
 11 26  1  0
 13 27  1  0
M  END
