REMARK SMILES COc1cc(CCC(=O)O)ccc1O
REMARK SMILES IDX 6 1 5 2 3 3 4 4 13 5 12 6 11 7 2 8 1 9 14 10 7 12 8 13 9 14
REMARK SMILES IDX 10 15
REMARK H PARENT 14 11 10 16
REMARK Flexibility Score: inf
ROOT
ATOM      1  C   UNL     1       1.152  -0.228  -1.627  1.00  0.00     0.047 C 
ENDROOT
BRANCH   1   2
ATOM      2  C   UNL     1       0.207  -0.536  -0.551  1.00  0.00    -0.043 A 
ATOM      3  C   UNL     1      -1.822   0.073   0.673  1.00  0.00     0.160 A 
ATOM      4  C   UNL     1      -0.884   0.309  -0.299  1.00  0.00     0.054 A 
ATOM      5  C   UNL     1      -1.693  -1.053   1.447  1.00  0.00     0.157 A 
ATOM      6  C   UNL     1      -0.643  -1.920   1.245  1.00  0.00     0.050 A 
ATOM      7  C   UNL     1       0.300  -1.655   0.247  1.00  0.00     0.008 A 
BRANCH   3   8
ATOM      8  O   UNL     1      -2.877   0.975   0.850  1.00  0.00    -0.493 OA
ATOM      9  C   UNL     1      -2.974   2.124   0.031  1.00  0.00     0.278 C 
ENDBRANCH   3   8
BRANCH   5  10
ATOM     10  O   UNL     1      -2.628  -1.313   2.437  1.00  0.00    -0.504 OA
ATOM     11  H   UNL     1      -2.547  -2.141   3.017  1.00  0.00     0.293 HD
ENDBRANCH   5  10
ENDBRANCH   1   2
BRANCH   1  12
ATOM     12  C   UNL     1       2.233   0.738  -1.306  1.00  0.00     0.127 C 
BRANCH  12  13
ATOM     13  C   UNL     1       3.156   0.400  -0.237  1.00  0.00     0.303 C 
ATOM     14  O   UNL     1       3.075  -0.662   0.398  1.00  0.00    -0.252 OA
BRANCH  13  15
ATOM     15  O   UNL     1       4.172   1.282   0.105  1.00  0.00    -0.481 OA
ATOM     16  H   UNL     1       4.677   1.179   0.999  1.00  0.00     0.296 HD
ENDBRANCH  13  15
ENDBRANCH  12  13
ENDBRANCH   1  12
TORSDOF 6
