
     RDKit          3D

 26 27  0  0  0  0  0  0  0  0999 V2000
   -4.4875   -0.3048    0.6877 C   0  0  0  0  0  0  0  0  0  0  0  0
   -3.4595   -0.2539   -0.3706 C   0  0  0  0  0  0  0  0  0  0  0  0
   -3.7451   -0.3818   -1.5359 O   0  0  0  0  0  0  0  0  0  0  0  0
   -2.0477   -0.0412    0.0053 C   0  0  0  0  0  0  0  0  0  0  0  0
   -1.1516   -0.0203   -1.2159 C   0  0  0  0  0  0  0  0  0  0  0  0
    0.2454    0.1915   -0.8265 C   0  0  0  0  0  0  0  0  0  0  0  0
    0.7560    1.4700   -0.7335 C   0  0  0  0  0  0  0  0  0  0  0  0
    2.0766    1.7137   -0.3671 C   0  0  0  0  0  0  0  0  0  0  0  0
    2.9011    0.6401   -0.0880 C   0  0  0  0  0  0  0  0  0  0  0  0
    4.2326    0.5700    0.2943 O   0  0  0  0  0  0  0  0  0  0  0  0
    4.6900   -0.7755    0.1949 C   0  0  0  0  0  0  0  0  0  0  0  0
    3.4811   -1.4901    0.1648 O   0  0  0  0  0  0  0  0  0  0  0  0
    2.4199   -0.6503   -0.1722 C   0  0  0  0  0  0  0  0  0  0  0  0
    1.0939   -0.8631   -0.5413 C   0  0  0  0  0  0  0  0  0  0  0  0
   -5.4211    0.2527    0.3957 H   0  0  0  0  0  0  0  0  0  0  0  0
   -4.1540    0.1769    1.6323 H   0  0  0  0  0  0  0  0  0  0  0  0
   -4.8247   -1.3599    0.8719 H   0  0  0  0  0  0  0  0  0  0  0  0
   -1.8926    0.9191    0.5493 H   0  0  0  0  0  0  0  0  0  0  0  0
   -1.7451   -0.9177    0.6310 H   0  0  0  0  0  0  0  0  0  0  0  0
   -1.4648    0.8303   -1.8831 H   0  0  0  0  0  0  0  0  0  0  0  0
   -1.3217   -0.9441   -1.7957 H   0  0  0  0  0  0  0  0  0  0  0  0
    0.1034    2.2814   -0.9528 H   0  0  0  0  0  0  0  0  0  0  0  0
    2.4493    2.7343   -0.3028 H   0  0  0  0  0  0  0  0  0  0  0  0
    5.2300   -0.9851    1.1361 H   0  0  0  0  0  0  0  0  0  0  0  0
    5.3060   -0.9167   -0.7063 H   0  0  0  0  0  0  0  0  0  0  0  0
    0.7301   -1.8757   -0.6034 H   0  0  0  0  0  0  0  0  0  0  0  0
  1  2  1  0
  2  3  2  0
  2  4  1  0
  4  5  1  0
  5  6  1  0
  6  7  2  0
  7  8  1  0
  8  9  2  0
  9 10  1  0
 10 11  1  0
 11 12  1  0
 12 13  1  0
 13 14  2  0
 14  6  1  0
 13  9  1  0
  1 15  1  0
  1 16  1  0
  1 17  1  0
  4 18  1  0
  4 19  1  0
  5 20  1  0
  5 21  1  0
  7 22  1  0
  8 23  1  0
 11 24  1  0
 11 25  1  0
 14 26  1  0
M  END
