MODEL 1
REMARK VINA RESULT:      -7.6      0.000      0.000
REMARK SMILES O=C(O)CCc1ccc2c(c1)OCO2
REMARK SMILES IDX 4 1 2 2 1 3 3 4 5 6 6 7 7 8 11 9 8 10 10 11 9 12 12 13 14 14
REMARK SMILES IDX 13 15
REMARK H PARENT 3 5
REMARK Flexibility Score: inf
ROOT
ATOM      1  C   UNL     1       5.377   2.894   0.103  1.00  0.00     0.127 C 
ENDROOT
BRANCH   1   2
ATOM      2  C   UNL     1       6.206   3.873   0.788  1.00  0.00     0.303 C 
ATOM      3  O   UNL     1       6.852   4.771   0.245  1.00  0.00    -0.252 OA
BRANCH   2   4
ATOM      4  O   UNL     1       6.279   3.789   2.187  1.00  0.00    -0.481 OA
ATOM      5  H   UNL     1       5.819   4.525   2.701  1.00  0.00     0.296 HD
ENDBRANCH   2   4
ENDBRANCH   1   2
BRANCH   1   6
ATOM      6  C   UNL     1       5.304   1.585   0.787  1.00  0.00     0.047 C 
BRANCH   6   7
ATOM      7  C   UNL     1       6.080   0.480   0.219  1.00  0.00    -0.043 A 
ATOM      8  C   UNL     1       6.507  -0.582   1.001  1.00  0.00     0.008 A 
ATOM      9  C   UNL     1       6.442   0.485  -1.102  1.00  0.00     0.054 A 
ATOM     10  C   UNL     1       7.268  -1.603   0.477  1.00  0.00     0.051 A 
ATOM     11  C   UNL     1       7.205  -0.529  -1.650  1.00  0.00     0.166 A 
ATOM     12  C   UNL     1       7.620  -1.577  -0.863  1.00  0.00     0.165 A 
ATOM     13  O   UNL     1       7.680  -0.731  -2.934  1.00  0.00    -0.454 OA
ATOM     14  O   UNL     1       8.360  -2.429  -1.684  1.00  0.00    -0.454 OA
ATOM     15  C   UNL     1       8.671  -1.768  -2.889  1.00  0.00     0.468 C 
ENDBRANCH   6   7
ENDBRANCH   1   6
TORSDOF 4
ENDMDL
MODEL 2
REMARK VINA RESULT:      -7.6      2.128      2.518
REMARK SMILES O=C(O)CCc1ccc2c(c1)OCO2
REMARK SMILES IDX 4 1 2 2 1 3 3 4 5 6 6 7 7 8 11 9 8 10 10 11 9 12 12 13 14 14
REMARK SMILES IDX 13 15
REMARK H PARENT 3 5
REMARK Flexibility Score: inf
ROOT
ATOM      1  C   UNL     1       4.711   1.891   0.684  1.00  0.00     0.127 C 
ENDROOT
BRANCH   1   2
ATOM      2  C   UNL     1       4.396   1.175   1.910  1.00  0.00     0.303 C 
ATOM      3  O   UNL     1       5.115   0.335   2.455  1.00  0.00    -0.252 OA
BRANCH   2   4
ATOM      4  O   UNL     1       3.169   1.463   2.528  1.00  0.00    -0.481 OA
ATOM      5  H   UNL     1       2.481   0.726   2.517  1.00  0.00     0.296 HD
ENDBRANCH   2   4
ENDBRANCH   1   2
BRANCH   1   6
ATOM      6  C   UNL     1       6.141   2.241   0.544  1.00  0.00     0.047 C 
BRANCH   6   7
ATOM      7  C   UNL     1       6.987   1.331  -0.231  1.00  0.00    -0.043 A 
ATOM      8  C   UNL     1       8.351   1.543  -0.361  1.00  0.00     0.008 A 
ATOM      9  C   UNL     1       6.445   0.258  -0.887  1.00  0.00     0.054 A 
ATOM     10  C   UNL     1       9.142   0.709  -1.119  1.00  0.00     0.051 A 
ATOM     11  C   UNL     1       7.219  -0.593  -1.653  1.00  0.00     0.166 A 
ATOM     12  C   UNL     1       8.570  -0.371  -1.771  1.00  0.00     0.165 A 
ATOM     13  O   UNL     1       6.894  -1.719  -2.389  1.00  0.00    -0.454 OA
ATOM     14  O   UNL     1       9.073  -1.379  -2.594  1.00  0.00    -0.454 OA
ATOM     15  C   UNL     1       8.007  -2.038  -3.238  1.00  0.00     0.468 C 
ENDBRANCH   6   7
ENDBRANCH   1   6
TORSDOF 4
ENDMDL
MODEL 3
REMARK VINA RESULT:      -7.5      1.979      2.900
REMARK SMILES O=C(O)CCc1ccc2c(c1)OCO2
REMARK SMILES IDX 4 1 2 2 1 3 3 4 5 6 6 7 7 8 11 9 8 10 10 11 9 12 12 13 14 14
REMARK SMILES IDX 13 15
REMARK H PARENT 3 5
REMARK Flexibility Score: inf
ROOT
ATOM      1  C   UNL     1       6.393   1.301   0.642  1.00  0.00     0.127 C 
ENDROOT
BRANCH   1   2
ATOM      2  C   UNL     1       5.184   1.310   1.452  1.00  0.00     0.303 C 
ATOM      3  O   UNL     1       4.256   2.114   1.346  1.00  0.00    -0.252 OA
BRANCH   2   4
ATOM      4  O   UNL     1       5.062   0.319   2.438  1.00  0.00    -0.481 OA
ATOM      5  H   UNL     1       4.140  -0.069   2.568  1.00  0.00     0.296 HD
ENDBRANCH   2   4
ENDBRANCH   1   2
BRANCH   1   6
ATOM      6  C   UNL     1       6.187   0.808  -0.737  1.00  0.00     0.047 C 
BRANCH   6   7
ATOM      7  C   UNL     1       6.953  -0.369  -1.156  1.00  0.00    -0.043 A 
ATOM      8  C   UNL     1       7.251  -0.601  -2.490  1.00  0.00     0.008 A 
ATOM      9  C   UNL     1       7.365  -1.299  -0.240  1.00  0.00     0.054 A 
ATOM     10  C   UNL     1       7.939  -1.725  -2.890  1.00  0.00     0.051 A 
ATOM     11  C   UNL     1       8.057  -2.434  -0.618  1.00  0.00     0.166 A 
ATOM     12  C   UNL     1       8.346  -2.651  -1.943  1.00  0.00     0.165 A 
ATOM     13  O   UNL     1       8.564  -3.490   0.120  1.00  0.00    -0.454 OA
ATOM     14  O   UNL     1       9.041  -3.860  -2.012  1.00  0.00    -0.454 OA
ATOM     15  C   UNL     1       8.912  -4.546  -0.788  1.00  0.00     0.468 C 
ENDBRANCH   6   7
ENDBRANCH   1   6
TORSDOF 4
ENDMDL
MODEL 4
REMARK VINA RESULT:      -7.5      1.039      2.142
REMARK SMILES O=C(O)CCc1ccc2c(c1)OCO2
REMARK SMILES IDX 4 1 2 2 1 3 3 4 5 6 6 7 7 8 11 9 8 10 10 11 9 12 12 13 14 14
REMARK SMILES IDX 13 15
REMARK H PARENT 3 5
REMARK Flexibility Score: inf
ROOT
ATOM      1  C   UNL     1       5.569   2.521   0.122  1.00  0.00     0.127 C 
ENDROOT
BRANCH   1   2
ATOM      2  C   UNL     1       6.187   3.593   0.886  1.00  0.00     0.303 C 
ATOM      3  O   UNL     1       6.251   3.653   2.115  1.00  0.00    -0.252 OA
BRANCH   2   4
ATOM      4  O   UNL     1       6.761   4.651   0.164  1.00  0.00    -0.481 OA
ATOM      5  H   UNL     1       7.224   4.403  -0.697  1.00  0.00     0.296 HD
ENDBRANCH   2   4
ENDBRANCH   1   2
BRANCH   1   6
ATOM      6  C   UNL     1       5.649   1.196   0.773  1.00  0.00     0.047 C 
BRANCH   6   7
ATOM      7  C   UNL     1       6.428   0.156   0.097  1.00  0.00    -0.043 A 
ATOM      8  C   UNL     1       6.569   0.137  -1.282  1.00  0.00     0.008 A 
ATOM      9  C   UNL     1       7.010  -0.858   0.811  1.00  0.00     0.054 A 
ATOM     10  C   UNL     1       7.270  -0.861  -1.921  1.00  0.00     0.051 A 
ATOM     11  C   UNL     1       7.719  -1.869   0.191  1.00  0.00     0.166 A 
ATOM     12  C   UNL     1       7.852  -1.874  -1.176  1.00  0.00     0.165 A 
ATOM     13  O   UNL     1       8.381  -2.973   0.700  1.00  0.00    -0.454 OA
ATOM     14  O   UNL     1       8.607  -3.002  -1.504  1.00  0.00    -0.454 OA
ATOM     15  C   UNL     1       8.678  -3.860  -0.389  1.00  0.00     0.468 C 
ENDBRANCH   6   7
ENDBRANCH   1   6
TORSDOF 4
ENDMDL
MODEL 5
REMARK VINA RESULT:      -7.4      1.798      5.285
REMARK SMILES O=C(O)CCc1ccc2c(c1)OCO2
REMARK SMILES IDX 4 1 2 2 1 3 3 4 5 6 6 7 7 8 11 9 8 10 10 11 9 12 12 13 14 14
REMARK SMILES IDX 13 15
REMARK H PARENT 3 5
REMARK Flexibility Score: inf
ROOT
ATOM      1  C   UNL     1       8.304  -0.317  -2.875  1.00  0.00     0.127 C 
ENDROOT
BRANCH   1   2
ATOM      2  C   UNL     1       8.470  -1.748  -3.079  1.00  0.00     0.303 C 
ATOM      3  O   UNL     1       9.538  -2.360  -3.032  1.00  0.00    -0.252 OA
BRANCH   2   4
ATOM      4  O   UNL     1       7.315  -2.498  -3.352  1.00  0.00    -0.481 OA
ATOM      5  H   UNL     1       7.250  -2.893  -4.278  1.00  0.00     0.296 HD
ENDBRANCH   2   4
ENDBRANCH   1   2
BRANCH   1   6
ATOM      6  C   UNL     1       8.753   0.157  -1.549  1.00  0.00     0.047 C 
BRANCH   6   7
ATOM      7  C   UNL     1       7.786   0.109  -0.450  1.00  0.00    -0.043 A 
ATOM      8  C   UNL     1       7.735  -0.965   0.426  1.00  0.00     0.008 A 
ATOM      9  C   UNL     1       6.872   1.115  -0.278  1.00  0.00     0.054 A 
ATOM     10  C   UNL     1       6.803  -1.027   1.437  1.00  0.00     0.051 A 
ATOM     11  C   UNL     1       5.928   1.074   0.731  1.00  0.00     0.166 A 
ATOM     12  C   UNL     1       5.890   0.003   1.591  1.00  0.00     0.165 A 
ATOM     13  O   UNL     1       4.925   1.959   1.088  1.00  0.00    -0.454 OA
ATOM     14  O   UNL     1       4.846   0.243   2.486  1.00  0.00    -0.454 OA
ATOM     15  C   UNL     1       4.041   1.291   2.000  1.00  0.00     0.468 C 
ENDBRANCH   6   7
ENDBRANCH   1   6
TORSDOF 4
ENDMDL
