@<TRIPOS>MOLECULE
/home/cewinharhar/GITHUB/reincatalyze/data/processed/docking_pred/2023-May-17-1006_maxeplen10_maxtrainstep1000_seadep16_gamma099_lrac9e-4_lrcr1e-3_sub6/00fabcb6e86abbd64330e8a307762c5d347247e8_ligand_6.pdbqt
 15 16 0 0 0
SMALL
GASTEIGER

@<TRIPOS>ATOM
      1  C          4.7110    1.8910    0.6840 C.3     1  UNL1        0.1270
      2  C          4.3960    1.1750    1.9100 C.2     1  UNL1        0.3030
      3  O          5.1150    0.3350    2.4550 O.2     1  UNL1       -0.2520
      4  O          3.1690    1.4630    2.5280 O.3     1  UNL1       -0.4810
      5  H          2.4810    0.7260    2.5170 H       1  UNL1        0.2960
      6  C          6.1410    2.2410    0.5440 C.3     1  UNL1        0.0470
      7  C          6.9870    1.3310   -0.2310 C.2     1  UNL1       -0.0430
      8  C          8.3510    1.5430   -0.3610 C.2     1  UNL1        0.0080
      9  C          6.4450    0.2580   -0.8870 C.2     1  UNL1        0.0540
     10  C          9.1420    0.7090   -1.1190 C.2     1  UNL1        0.0510
     11  C          7.2190   -0.5930   -1.6530 C.2     1  UNL1        0.1660
     12  C          8.5700   -0.3710   -1.7710 C.2     1  UNL1        0.1650
     13  O          6.8940   -1.7190   -2.3890 O.2     1  UNL1       -0.4540
     14  O          9.0730   -1.3790   -2.5940 O.2     1  UNL1       -0.4540
     15  C          8.0070   -2.0380   -3.2380 C.3     1  UNL1        0.4680
@<TRIPOS>BOND
     1    15    14    1
     2    15    13    1
     3    14    12    1
     4    13    11    1
     5    12    11    2
     6    12    10    1
     7    11     9    1
     8    10     8    2
     9     9     7    2
    10     8     7    1
    11     7     6    1
    12     6     1    1
    13     1     2    1
    14     2     3    2
    15     2     4    1
    16     5     4    1
