@<TRIPOS>MOLECULE
/home/cewinharhar/GITHUB/reincatalyze/data/processed/docking_pred/2023-May-17-1006_maxeplen10_maxtrainstep1000_seadep16_gamma099_lrac9e-4_lrcr1e-3_sub6/00fabcb6e86abbd64330e8a307762c5d347247e8_ligand_6.pdbqt
 15 16 0 0 0
SMALL
GASTEIGER

@<TRIPOS>ATOM
      1  C          6.3930    1.3010    0.6420 C.3     1  UNL1        0.1270
      2  C          5.1840    1.3100    1.4520 C.2     1  UNL1        0.3030
      3  O          4.2560    2.1140    1.3460 O.2     1  UNL1       -0.2520
      4  O          5.0620    0.3190    2.4380 O.3     1  UNL1       -0.4810
      5  H          4.1400   -0.0690    2.5680 H       1  UNL1        0.2960
      6  C          6.1870    0.8080   -0.7370 C.3     1  UNL1        0.0470
      7  C          6.9530   -0.3690   -1.1560 C.2     1  UNL1       -0.0430
      8  C          7.2510   -0.6010   -2.4900 C.2     1  UNL1        0.0080
      9  C          7.3650   -1.2990   -0.2400 C.2     1  UNL1        0.0540
     10  C          7.9390   -1.7250   -2.8900 C.2     1  UNL1        0.0510
     11  C          8.0570   -2.4340   -0.6180 C.2     1  UNL1        0.1660
     12  C          8.3460   -2.6510   -1.9430 C.2     1  UNL1        0.1650
     13  O          8.5640   -3.4900    0.1200 O.2     1  UNL1       -0.4540
     14  O          9.0410   -3.8600   -2.0120 O.2     1  UNL1       -0.4540
     15  C          8.9120   -4.5460   -0.7880 C.3     1  UNL1        0.4680
@<TRIPOS>BOND
     1    10     8    1
     2    10    12    2
     3     8     7    2
     4    14    12    1
     5    14    15    1
     6    12    11    1
     7     7     6    1
     8     7     9    1
     9    15    13    1
    10     6     1    1
    11    11     9    2
    12    11    13    1
    13     1     2    1
    14     3     2    2
    15     2     4    1
    16     4     5    1
