@<TRIPOS>MOLECULE
/home/cewinharhar/GITHUB/reincatalyze/data/processed/docking_pred/2023-May-17-1006_maxeplen10_maxtrainstep1000_seadep16_gamma099_lrac9e-4_lrcr1e-3_sub6/00fabcb6e86abbd64330e8a307762c5d347247e8_ligand_6.pdbqt
 15 16 0 0 0
SMALL
GASTEIGER

@<TRIPOS>ATOM
      1  C          5.5690    2.5210    0.1220 C.3     1  UNL1        0.1270
      2  C          6.1870    3.5930    0.8860 C.2     1  UNL1        0.3030
      3  O          6.2510    3.6530    2.1150 O.2     1  UNL1       -0.2520
      4  O          6.7610    4.6510    0.1640 O.3     1  UNL1       -0.4810
      5  H          7.2240    4.4030   -0.6970 H       1  UNL1        0.2960
      6  C          5.6490    1.1960    0.7730 C.3     1  UNL1        0.0470
      7  C          6.4280    0.1560    0.0970 C.2     1  UNL1       -0.0430
      8  C          6.5690    0.1370   -1.2820 C.2     1  UNL1        0.0080
      9  C          7.0100   -0.8580    0.8110 C.2     1  UNL1        0.0540
     10  C          7.2700   -0.8610   -1.9210 C.2     1  UNL1        0.0510
     11  C          7.7190   -1.8690    0.1910 C.2     1  UNL1        0.1660
     12  C          7.8520   -1.8740   -1.1760 C.2     1  UNL1        0.1650
     13  O          8.3810   -2.9730    0.7000 O.2     1  UNL1       -0.4540
     14  O          8.6070   -3.0020   -1.5040 O.2     1  UNL1       -0.4540
     15  C          8.6780   -3.8600   -0.3890 C.3     1  UNL1        0.4680
@<TRIPOS>BOND
     1    10     8    1
     2    10    12    2
     3    14    12    1
     4    14    15    1
     5     8     7    2
     6    12    11    1
     7     5     4    1
     8    15    13    1
     9     7     6    1
    10     7     9    1
    11     1     6    1
    12     1     2    1
    13     4     2    1
    14    11    13    1
    15    11     9    2
    16     2     3    2
