@<TRIPOS>MOLECULE
/home/cewinharhar/GITHUB/reincatalyze/data/processed/docking_pred/2023-May-17-1006_maxeplen10_maxtrainstep1000_seadep16_gamma099_lrac9e-4_lrcr1e-3_sub6/00fabcb6e86abbd64330e8a307762c5d347247e8_ligand_6.pdbqt
 15 16 0 0 0
SMALL
GASTEIGER

@<TRIPOS>ATOM
      1  C          5.3770    2.8940    0.1030 C.3     1  UNL1        0.1270
      2  C          6.2060    3.8730    0.7880 C.2     1  UNL1        0.3030
      3  O          6.8520    4.7710    0.2450 O.2     1  UNL1       -0.2520
      4  O          6.2790    3.7890    2.1870 O.3     1  UNL1       -0.4810
      5  H          5.8190    4.5250    2.7010 H       1  UNL1        0.2960
      6  C          5.3040    1.5850    0.7870 C.3     1  UNL1        0.0470
      7  C          6.0800    0.4800    0.2190 C.2     1  UNL1       -0.0430
      8  C          6.5070   -0.5820    1.0010 C.2     1  UNL1        0.0080
      9  C          6.4420    0.4850   -1.1020 C.2     1  UNL1        0.0540
     10  C          7.2680   -1.6030    0.4770 C.2     1  UNL1        0.0510
     11  C          7.2050   -0.5290   -1.6500 C.2     1  UNL1        0.1660
     12  C          7.6200   -1.5770   -0.8630 C.2     1  UNL1        0.1650
     13  O          7.6800   -0.7310   -2.9340 O.2     1  UNL1       -0.4540
     14  O          8.3600   -2.4290   -1.6840 O.2     1  UNL1       -0.4540
     15  C          8.6710   -1.7680   -2.8890 C.3     1  UNL1        0.4680
@<TRIPOS>BOND
     1    13    15    1
     2    13    11    1
     3    15    14    1
     4    14    12    1
     5    11     9    1
     6    11    12    2
     7     9     7    2
     8    12    10    1
     9     1     6    1
    10     1     2    1
    11     7     6    1
    12     7     8    1
    13     3     2    2
    14    10     8    2
    15     2     4    1
    16     4     5    1
