MODEL 1
REMARK VINA RESULT:      -7.6      0.000      0.000
REMARK SMILES O=C(O)CCc1ccc2c(c1)OCO2
REMARK SMILES IDX 4 1 2 2 1 3 3 4 5 6 6 7 7 8 11 9 8 10 10 11 9 12 12 13 14 14
REMARK SMILES IDX 13 15
REMARK H PARENT 3 5
REMARK Flexibility Score: inf
ROOT
ATOM      1  C   UNL     1       5.422   2.869   0.114  1.00  0.00     0.127 C 
ENDROOT
BRANCH   1   2
ATOM      2  C   UNL     1       6.244   3.845   0.811  1.00  0.00     0.303 C 
ATOM      3  O   UNL     1       6.893   4.747   0.279  1.00  0.00    -0.252 OA
BRANCH   2   4
ATOM      4  O   UNL     1       6.304   3.755   2.211  1.00  0.00    -0.481 OA
ATOM      5  H   UNL     1       5.429   3.591   2.684  1.00  0.00     0.296 HD
ENDBRANCH   2   4
ENDBRANCH   1   2
BRANCH   1   6
ATOM      6  C   UNL     1       5.332   1.562   0.799  1.00  0.00     0.047 C 
BRANCH   6   7
ATOM      7  C   UNL     1       6.106   0.450   0.243  1.00  0.00    -0.043 A 
ATOM      8  C   UNL     1       6.553  -0.592   1.040  1.00  0.00     0.008 A 
ATOM      9  C   UNL     1       6.447   0.429  -1.083  1.00  0.00     0.054 A 
ATOM     10  C   UNL     1       7.313  -1.619   0.526  1.00  0.00     0.051 A 
ATOM     11  C   UNL     1       7.208  -0.591  -1.622  1.00  0.00     0.166 A 
ATOM     12  C   UNL     1       7.643  -1.619  -0.820  1.00  0.00     0.165 A 
ATOM     13  O   UNL     1       7.664  -0.817  -2.909  1.00  0.00    -0.454 OA
ATOM     14  O   UNL     1       8.376  -2.483  -1.635  1.00  0.00    -0.454 OA
ATOM     15  C   UNL     1       8.663  -1.846  -2.858  1.00  0.00     0.468 C 
ENDBRANCH   6   7
ENDBRANCH   1   6
TORSDOF 4
ENDMDL
MODEL 2
REMARK VINA RESULT:      -7.6      2.138      2.525
REMARK SMILES O=C(O)CCc1ccc2c(c1)OCO2
REMARK SMILES IDX 4 1 2 2 1 3 3 4 5 6 6 7 7 8 11 9 8 10 10 11 9 12 12 13 14 14
REMARK SMILES IDX 13 15
REMARK H PARENT 3 5
REMARK Flexibility Score: inf
ROOT
ATOM      1  C   UNL     1       4.745   1.863   0.708  1.00  0.00     0.127 C 
ENDROOT
BRANCH   1   2
ATOM      2  C   UNL     1       4.427   1.133   1.925  1.00  0.00     0.303 C 
ATOM      3  O   UNL     1       5.146   0.290   2.464  1.00  0.00    -0.252 OA
BRANCH   2   4
ATOM      4  O   UNL     1       3.197   1.412   2.541  1.00  0.00    -0.481 OA
ATOM      5  H   UNL     1       2.451   0.757   2.363  1.00  0.00     0.296 HD
ENDBRANCH   2   4
ENDBRANCH   1   2
BRANCH   1   6
ATOM      6  C   UNL     1       6.176   2.204   0.569  1.00  0.00     0.047 C 
BRANCH   6   7
ATOM      7  C   UNL     1       7.015   1.300  -0.221  1.00  0.00    -0.043 A 
ATOM      8  C   UNL     1       8.376   1.516  -0.368  1.00  0.00     0.008 A 
ATOM      9  C   UNL     1       6.466   0.227  -0.874  1.00  0.00     0.054 A 
ATOM     10  C   UNL     1       9.159   0.687  -1.140  1.00  0.00     0.051 A 
ATOM     11  C   UNL     1       7.233  -0.619  -1.653  1.00  0.00     0.166 A 
ATOM     12  C   UNL     1       8.581  -0.392  -1.788  1.00  0.00     0.165 A 
ATOM     13  O   UNL     1       6.901  -1.742  -2.389  1.00  0.00    -0.454 OA
ATOM     14  O   UNL     1       9.076  -1.396  -2.622  1.00  0.00    -0.454 OA
ATOM     15  C   UNL     1       8.003  -2.055  -3.254  1.00  0.00     0.468 C 
ENDBRANCH   6   7
ENDBRANCH   1   6
TORSDOF 4
ENDMDL
MODEL 3
REMARK VINA RESULT:      -7.5      1.961      2.877
REMARK SMILES O=C(O)CCc1ccc2c(c1)OCO2
REMARK SMILES IDX 4 1 2 2 1 3 3 4 5 6 6 7 7 8 11 9 8 10 10 11 9 12 12 13 14 14
REMARK SMILES IDX 13 15
REMARK H PARENT 3 5
REMARK Flexibility Score: inf
ROOT
ATOM      1  C   UNL     1       6.409   1.293   0.658  1.00  0.00     0.127 C 
ENDROOT
BRANCH   1   2
ATOM      2  C   UNL     1       5.188   1.307   1.449  1.00  0.00     0.303 C 
ATOM      3  O   UNL     1       4.274   2.127   1.343  1.00  0.00    -0.252 OA
BRANCH   2   4
ATOM      4  O   UNL     1       5.035   0.301   2.416  1.00  0.00    -0.481 OA
ATOM      5  H   UNL     1       4.953   0.611   3.372  1.00  0.00     0.296 HD
ENDBRANCH   2   4
ENDBRANCH   1   2
BRANCH   1   6
ATOM      6  C   UNL     1       6.218   0.826  -0.732  1.00  0.00     0.047 C 
BRANCH   6   7
ATOM      7  C   UNL     1       6.969  -0.357  -1.157  1.00  0.00    -0.043 A 
ATOM      8  C   UNL     1       7.244  -0.599  -2.495  1.00  0.00     0.008 A 
ATOM      9  C   UNL     1       7.389  -1.286  -0.243  1.00  0.00     0.054 A 
ATOM     10  C   UNL     1       7.918  -1.729  -2.899  1.00  0.00     0.051 A 
ATOM     11  C   UNL     1       8.068  -2.428  -0.626  1.00  0.00     0.166 A 
ATOM     12  C   UNL     1       8.335  -2.653  -1.955  1.00  0.00     0.165 A 
ATOM     13  O   UNL     1       8.579  -3.483   0.109  1.00  0.00    -0.454 OA
ATOM     14  O   UNL     1       9.020  -3.867  -2.028  1.00  0.00    -0.454 OA
ATOM     15  C   UNL     1       8.906  -4.546  -0.798  1.00  0.00     0.468 C 
ENDBRANCH   6   7
ENDBRANCH   1   6
TORSDOF 4
ENDMDL
MODEL 4
REMARK VINA RESULT:      -7.5      1.799      5.279
REMARK SMILES O=C(O)CCc1ccc2c(c1)OCO2
REMARK SMILES IDX 4 1 2 2 1 3 3 4 5 6 6 7 7 8 11 9 8 10 10 11 9 12 12 13 14 14
REMARK SMILES IDX 13 15
REMARK H PARENT 3 5
REMARK Flexibility Score: inf
ROOT
ATOM      1  C   UNL     1       8.302  -0.313  -2.824  1.00  0.00     0.127 C 
ENDROOT
BRANCH   1   2
ATOM      2  C   UNL     1       8.468  -1.739  -3.059  1.00  0.00     0.303 C 
ATOM      3  O   UNL     1       9.536  -2.352  -3.026  1.00  0.00    -0.252 OA
BRANCH   2   4
ATOM      4  O   UNL     1       7.313  -2.483  -3.348  1.00  0.00    -0.481 OA
ATOM      5  H   UNL     1       6.933  -3.028  -2.590  1.00  0.00     0.296 HD
ENDBRANCH   2   4
ENDBRANCH   1   2
BRANCH   1   6
ATOM      6  C   UNL     1       8.760   0.133  -1.491  1.00  0.00     0.047 C 
BRANCH   6   7
ATOM      7  C   UNL     1       7.789   0.100  -0.396  1.00  0.00    -0.043 A 
ATOM      8  C   UNL     1       7.747  -0.953   0.505  1.00  0.00     0.008 A 
ATOM      9  C   UNL     1       6.862   1.099  -0.252  1.00  0.00     0.054 A 
ATOM     10  C   UNL     1       6.811  -1.002   1.514  1.00  0.00     0.051 A 
ATOM     11  C   UNL     1       5.914   1.070   0.753  1.00  0.00     0.166 A 
ATOM     12  C   UNL     1       5.885   0.021   1.639  1.00  0.00     0.165 A 
ATOM     13  O   UNL     1       4.899   1.952   1.084  1.00  0.00    -0.454 OA
ATOM     14  O   UNL     1       4.834   0.269   2.524  1.00  0.00    -0.454 OA
ATOM     15  C   UNL     1       4.018   1.296   2.009  1.00  0.00     0.468 C 
ENDBRANCH   6   7
ENDBRANCH   1   6
TORSDOF 4
ENDMDL
MODEL 5
REMARK VINA RESULT:      -7.2      1.137      2.186
REMARK SMILES O=C(O)CCc1ccc2c(c1)OCO2
REMARK SMILES IDX 4 1 2 2 1 3 3 4 5 6 6 7 7 8 11 9 8 10 10 11 9 12 12 13 14 14
REMARK SMILES IDX 13 15
REMARK H PARENT 3 5
REMARK Flexibility Score: inf
ROOT
ATOM      1  C   UNL     1       5.426   2.194   0.673  1.00  0.00     0.127 C 
ENDROOT
BRANCH   1   2
ATOM      2  C   UNL     1       6.248   3.318   1.094  1.00  0.00     0.303 C 
ATOM      3  O   UNL     1       6.643   3.527   2.243  1.00  0.00    -0.252 OA
BRANCH   2   4
ATOM      4  O   UNL     1       6.626   4.245   0.110  1.00  0.00    -0.481 OA
ATOM      5  H   UNL     1       7.216   3.895  -0.629  1.00  0.00     0.296 HD
ENDBRANCH   2   4
ENDBRANCH   1   2
BRANCH   1   6
ATOM      6  C   UNL     1       5.786   0.913   1.316  1.00  0.00     0.047 C 
BRANCH   6   7
ATOM      7  C   UNL     1       6.515  -0.069   0.510  1.00  0.00    -0.043 A 
ATOM      8  C   UNL     1       6.514  -0.012  -0.875  1.00  0.00     0.008 A 
ATOM      9  C   UNL     1       7.190  -1.101   1.105  1.00  0.00     0.054 A 
ATOM     10  C   UNL     1       7.169  -0.955  -1.636  1.00  0.00     0.051 A 
ATOM     11  C   UNL     1       7.855  -2.058   0.362  1.00  0.00     0.166 A 
ATOM     12  C   UNL     1       7.847  -1.989  -1.010  1.00  0.00     0.165 A 
ATOM     13  O   UNL     1       8.590  -3.168   0.740  1.00  0.00    -0.454 OA
ATOM     14  O   UNL     1       8.590  -3.076  -1.473  1.00  0.00    -0.454 OA
ATOM     15  C   UNL     1       8.794  -3.989  -0.420  1.00  0.00     0.468 C 
ENDBRANCH   6   7
ENDBRANCH   1   6
TORSDOF 4
ENDMDL
