@<TRIPOS>MOLECULE
/home/cewinharhar/GITHUB/reincatalyze/data/processed/docking_pred/2023-May-17-1006_maxeplen10_maxtrainstep1000_seadep16_gamma099_lrac9e-4_lrcr1e-3_sub6/01f25cbd7413d58f388abe94d9cfceb48e05f66f_ligand_6.pdbqt
 15 16 0 0 0
SMALL
GASTEIGER

@<TRIPOS>ATOM
      1  C          8.3020   -0.3130   -2.8240 C.3     1  UNL1        0.1270
      2  C          8.4680   -1.7390   -3.0590 C.2     1  UNL1        0.3030
      3  O          9.5360   -2.3520   -3.0260 O.2     1  UNL1       -0.2520
      4  O          7.3130   -2.4830   -3.3480 O.3     1  UNL1       -0.4810
      5  H          6.9330   -3.0280   -2.5900 H       1  UNL1        0.2960
      6  C          8.7600    0.1330   -1.4910 C.3     1  UNL1        0.0470
      7  C          7.7890    0.1000   -0.3960 C.2     1  UNL1       -0.0430
      8  C          7.7470   -0.9530    0.5050 C.2     1  UNL1        0.0080
      9  C          6.8620    1.0990   -0.2520 C.2     1  UNL1        0.0540
     10  C          6.8110   -1.0020    1.5140 C.2     1  UNL1        0.0510
     11  C          5.9140    1.0700    0.7530 C.2     1  UNL1        0.1660
     12  C          5.8850    0.0210    1.6390 C.2     1  UNL1        0.1650
     13  O          4.8990    1.9520    1.0840 O.2     1  UNL1       -0.4540
     14  O          4.8340    0.2690    2.5240 O.2     1  UNL1       -0.4540
     15  C          4.0180    1.2960    2.0090 C.3     1  UNL1        0.4680
@<TRIPOS>BOND
     1     4     2    1
     2     4     5    1
     3     2     3    2
     4     2     1    1
     5     1     6    1
     6     6     7    1
     7     7     9    2
     8     7     8    1
     9     9    11    1
    10     8    10    2
    11    11    13    1
    12    11    12    2
    13    13    15    1
    14    10    12    1
    15    12    14    1
    16    15    14    1
