@<TRIPOS>MOLECULE
/home/cewinharhar/GITHUB/reincatalyze/data/processed/docking_pred/2023-May-17-1006_maxeplen10_maxtrainstep1000_seadep16_gamma099_lrac9e-4_lrcr1e-3_sub6/01f25cbd7413d58f388abe94d9cfceb48e05f66f_ligand_6.pdbqt
 15 16 0 0 0
SMALL
GASTEIGER

@<TRIPOS>ATOM
      1  C          5.4260    2.1940    0.6730 C.3     1  UNL1        0.1270
      2  C          6.2480    3.3180    1.0940 C.2     1  UNL1        0.3030
      3  O          6.6430    3.5270    2.2430 O.2     1  UNL1       -0.2520
      4  O          6.6260    4.2450    0.1100 O.3     1  UNL1       -0.4810
      5  H          7.2160    3.8950   -0.6290 H       1  UNL1        0.2960
      6  C          5.7860    0.9130    1.3160 C.3     1  UNL1        0.0470
      7  C          6.5150   -0.0690    0.5100 C.2     1  UNL1       -0.0430
      8  C          6.5140   -0.0120   -0.8750 C.2     1  UNL1        0.0080
      9  C          7.1900   -1.1010    1.1050 C.2     1  UNL1        0.0540
     10  C          7.1690   -0.9550   -1.6360 C.2     1  UNL1        0.0510
     11  C          7.8550   -2.0580    0.3620 C.2     1  UNL1        0.1660
     12  C          7.8470   -1.9890   -1.0100 C.2     1  UNL1        0.1650
     13  O          8.5900   -3.1680    0.7400 O.2     1  UNL1       -0.4540
     14  O          8.5900   -3.0760   -1.4730 O.2     1  UNL1       -0.4540
     15  C          8.7940   -3.9890   -0.4200 C.3     1  UNL1        0.4680
@<TRIPOS>BOND
     1    10    12    2
     2    10     8    1
     3    14    12    1
     4    14    15    1
     5    12    11    1
     6     8     7    2
     7     5     4    1
     8    15    13    1
     9     4     2    1
    10    11    13    1
    11    11     9    2
    12     7     9    1
    13     7     6    1
    14     1     2    1
    15     1     6    1
    16     2     3    2
