@<TRIPOS>MOLECULE
/home/cewinharhar/GITHUB/reincatalyze/data/processed/docking_pred/2023-May-17-1006_maxeplen10_maxtrainstep1000_seadep16_gamma099_lrac9e-4_lrcr1e-3_sub6/01f25cbd7413d58f388abe94d9cfceb48e05f66f_ligand_6.pdbqt
 15 16 0 0 0
SMALL
GASTEIGER

@<TRIPOS>ATOM
      1  C          6.4090    1.2930    0.6580 C.3     1  UNL1        0.1270
      2  C          5.1880    1.3070    1.4490 C.2     1  UNL1        0.3030
      3  O          4.2740    2.1270    1.3430 O.2     1  UNL1       -0.2520
      4  O          5.0350    0.3010    2.4160 O.3     1  UNL1       -0.4810
      5  H          4.9530    0.6110    3.3720 H       1  UNL1        0.2960
      6  C          6.2180    0.8260   -0.7320 C.3     1  UNL1        0.0470
      7  C          6.9690   -0.3570   -1.1570 C.2     1  UNL1       -0.0430
      8  C          7.2440   -0.5990   -2.4950 C.2     1  UNL1        0.0080
      9  C          7.3890   -1.2860   -0.2430 C.2     1  UNL1        0.0540
     10  C          7.9180   -1.7290   -2.8990 C.2     1  UNL1        0.0510
     11  C          8.0680   -2.4280   -0.6260 C.2     1  UNL1        0.1660
     12  C          8.3350   -2.6530   -1.9550 C.2     1  UNL1        0.1650
     13  O          8.5790   -3.4830    0.1090 O.2     1  UNL1       -0.4540
     14  O          9.0200   -3.8670   -2.0280 O.2     1  UNL1       -0.4540
     15  C          8.9060   -4.5460   -0.7980 C.3     1  UNL1        0.4680
@<TRIPOS>BOND
     1    10     8    1
     2    10    12    2
     3     8     7    2
     4    14    12    1
     5    14    15    1
     6    12    11    1
     7     7     6    1
     8     7     9    1
     9    15    13    1
    10     6     1    1
    11    11     9    2
    12    11    13    1
    13     1     2    1
    14     3     2    2
    15     2     4    1
    16     4     5    1
