@<TRIPOS>MOLECULE
/home/cewinharhar/GITHUB/reincatalyze/data/processed/docking_pred/2023-May-17-1006_maxeplen10_maxtrainstep1000_seadep16_gamma099_lrac9e-4_lrcr1e-3_sub6/02381cbfeedb5f98de7c9f38a4017f955763d16c_ligand_6.pdbqt
 15 16 0 0 0
SMALL
GASTEIGER

@<TRIPOS>ATOM
      1  C          6.3650    1.3260    0.6290 C.3     1  UNL1        0.1270
      2  C          5.1990    1.2670    1.4970 C.2     1  UNL1        0.3030
      3  O          4.2280    2.0240    1.4450 O.2     1  UNL1       -0.2520
      4  O          5.1760    0.2630    2.4780 O.3     1  UNL1       -0.4810
      5  H          5.8960   -0.4400    2.4120 H       1  UNL1        0.2960
      6  C          6.1320    0.7840   -0.7270 C.3     1  UNL1        0.0470
      7  C          6.9160   -0.3840   -1.1340 C.2     1  UNL1       -0.0430
      8  C          7.2410   -0.6120   -2.4620 C.2     1  UNL1        0.0080
      9  C          7.3210   -1.3110   -0.2110 C.2     1  UNL1        0.0540
     10  C          7.9470   -1.7290   -2.8500 C.2     1  UNL1        0.0510
     11  C          8.0310   -2.4390   -0.5770 C.2     1  UNL1        0.1660
     12  C          8.3460   -2.6520   -1.8980 C.2     1  UNL1        0.1650
     13  O          8.5350   -3.4900    0.1680 O.2     1  UNL1       -0.4540
     14  O          9.0540   -3.8540   -1.9540 O.2     1  UNL1       -0.4540
     15  C          8.9100   -4.5420   -0.7340 C.3     1  UNL1        0.4680
@<TRIPOS>BOND
     1    10     8    1
     2    10    12    2
     3     8     7    2
     4    14    12    1
     5    14    15    1
     6    12    11    1
     7     7     6    1
     8     7     9    1
     9    15    13    1
    10     6     1    1
    11    11     9    2
    12    11    13    1
    13     1     2    1
    14     3     2    2
    15     2     4    1
    16     5     4    1
