@<TRIPOS>MOLECULE
/home/cewinharhar/GITHUB/reincatalyze/data/processed/docking_pred/2023-May-17-1006_maxeplen10_maxtrainstep1000_seadep16_gamma099_lrac9e-4_lrcr1e-3_sub6/02381cbfeedb5f98de7c9f38a4017f955763d16c_ligand_6.pdbqt
 15 16 0 0 0
SMALL
GASTEIGER

@<TRIPOS>ATOM
      1  C          5.4170    2.8650    0.1300 C.3     1  UNL1        0.1270
      2  C          6.2470    3.8450    0.8130 C.2     1  UNL1        0.3030
      3  O          6.8870    4.7470    0.2680 O.2     1  UNL1       -0.2520
      4  O          6.3270    3.7590    2.2110 O.3     1  UNL1       -0.4810
      5  H          6.3090    2.8300    2.6020 H       1  UNL1        0.2960
      6  C          5.3510    1.5550    0.8120 C.3     1  UNL1        0.0470
      7  C          6.1330    0.4550    0.2440 C.2     1  UNL1       -0.0430
      8  C          6.5890   -0.5910    1.0310 C.2     1  UNL1        0.0080
      9  C          6.4710    0.4480   -1.0830 C.2     1  UNL1        0.0540
     10  C          7.3550   -1.6080    0.5050 C.2     1  UNL1        0.0510
     11  C          7.2380   -0.5610   -1.6330 C.2     1  UNL1        0.1660
     12  C          7.6830   -1.5930   -0.8410 C.2     1  UNL1        0.1650
     13  O          7.6930   -0.7710   -2.9230 O.2     1  UNL1       -0.4540
     14  O          8.4200   -2.4440   -1.6650 O.2     1  UNL1       -0.4540
     15  C          8.7000   -1.7930   -2.8840 C.3     1  UNL1        0.4680
@<TRIPOS>BOND
     1    13    15    1
     2    13    11    1
     3    15    14    1
     4    14    12    1
     5    11     9    1
     6    11    12    2
     7     9     7    2
     8    12    10    1
     9     1     6    1
    10     1     2    1
    11     7     6    1
    12     7     8    1
    13     3     2    2
    14    10     8    2
    15     2     4    1
    16     4     5    1
