@<TRIPOS>MOLECULE
/home/cewinharhar/GITHUB/reincatalyze/data/processed/docking_pred/2023-May-17-1006_maxeplen10_maxtrainstep1000_seadep16_gamma099_lrac9e-4_lrcr1e-3_sub6/02381cbfeedb5f98de7c9f38a4017f955763d16c_ligand_6.pdbqt
 15 16 0 0 0
SMALL
GASTEIGER

@<TRIPOS>ATOM
      1  C          4.7110    1.8630    0.6830 C.3     1  UNL1        0.1270
      2  C          4.3850    1.1520    1.9100 C.2     1  UNL1        0.3030
      3  O          5.0900    0.2990    2.4530 O.2     1  UNL1       -0.2520
      4  O          3.1640    1.4610    2.5290 O.3     1  UNL1       -0.4810
      5  H          2.3630    1.5360    1.9220 H       1  UNL1        0.2960
      6  C          6.1420    2.2110    0.5530 C.3     1  UNL1        0.0470
      7  C          6.9890    1.3100   -0.2310 C.2     1  UNL1       -0.0430
      8  C          8.3470    1.5440   -0.3860 C.2     1  UNL1        0.0080
      9  C          6.4530    0.2240   -0.8710 C.2     1  UNL1        0.0540
     10  C          9.1380    0.7180   -1.1530 C.2     1  UNL1        0.0510
     11  C          7.2280   -0.6190   -1.6450 C.2     1  UNL1        0.1660
     12  C          8.5720   -0.3750   -1.7890 C.2     1  UNL1        0.1650
     13  O          6.9080   -1.7540   -2.3690 O.2     1  UNL1       -0.4540
     14  O          9.0780   -1.3800   -2.6150 O.2     1  UNL1       -0.4540
     15  C          8.0110   -2.0600   -3.2360 C.3     1  UNL1        0.4680
@<TRIPOS>BOND
     1    15    14    1
     2    15    13    1
     3    14    12    1
     4    13    11    1
     5    12    11    2
     6    12    10    1
     7    11     9    1
     8    10     8    2
     9     9     7    2
    10     8     7    1
    11     7     6    1
    12     6     1    1
    13     1     2    1
    14     2     3    2
    15     2     4    1
    16     5     4    1
