@<TRIPOS>MOLECULE
/home/cewinharhar/GITHUB/reincatalyze/data/processed/docking_pred/2023-May-17-1006_maxeplen10_maxtrainstep1000_seadep16_gamma099_lrac9e-4_lrcr1e-3_sub6/02381cbfeedb5f98de7c9f38a4017f955763d16c_ligand_6.pdbqt
 15 16 0 0 0
SMALL
GASTEIGER

@<TRIPOS>ATOM
      1  C          8.3060   -0.3190   -2.8540 C.3     1  UNL1        0.1270
      2  C          8.4680   -1.7480   -3.0700 C.2     1  UNL1        0.3030
      3  O          9.5350   -2.3630   -3.0290 O.2     1  UNL1       -0.2520
      4  O          7.3110   -2.4930   -3.3480 O.3     1  UNL1       -0.4810
      5  H          7.3640   -3.4830   -3.1640 H       1  UNL1        0.2960
      6  C          8.7600    0.1430   -1.5250 C.3     1  UNL1        0.0470
      7  C          7.7910    0.1030   -0.4270 C.2     1  UNL1       -0.0430
      8  C          7.7420   -0.9640    0.4570 C.2     1  UNL1        0.0080
      9  C          6.8740    1.1070   -0.2660 C.2     1  UNL1        0.0540
     10  C          6.8080   -1.0200    1.4680 C.2     1  UNL1        0.0510
     11  C          5.9280    1.0720    0.7410 C.2     1  UNL1        0.1660
     12  C          5.8920    0.0090    1.6110 C.2     1  UNL1        0.1650
     13  O          4.9230    1.9580    1.0890 O.2     1  UNL1       -0.4540
     14  O          4.8450    0.2540    2.5030 O.2     1  UNL1       -0.4540
     15  C          4.0380    1.2960    2.0060 C.3     1  UNL1        0.4680
@<TRIPOS>BOND
     1     4     5    1
     2     4     2    1
     3     2     3    2
     4     2     1    1
     5     1     6    1
     6     6     7    1
     7     7     9    2
     8     7     8    1
     9     9    11    1
    10     8    10    2
    11    11    13    1
    12    11    12    2
    13    13    15    1
    14    10    12    1
    15    12    14    1
    16    15    14    1
