@<TRIPOS>MOLECULE
/home/cewinharhar/GITHUB/reincatalyze/data/processed/docking_pred/2023-May-17-1006_maxeplen10_maxtrainstep1000_seadep16_gamma099_lrac9e-4_lrcr1e-3_sub6/02381cbfeedb5f98de7c9f38a4017f955763d16c_ligand_6.pdbqt
 15 16 0 0 0
SMALL
GASTEIGER

@<TRIPOS>ATOM
      1  C          5.3990    2.7720    0.2160 C.3     1  UNL1        0.1270
      2  C          6.1710    3.7620    0.9520 C.2     1  UNL1        0.3030
      3  O          6.2330    3.8550    2.1790 O.2     1  UNL1       -0.2520
      4  O          6.9090    4.6910    0.2020 O.3     1  UNL1       -0.4810
      5  H          6.8770    4.5810   -0.8000 H       1  UNL1        0.2960
      6  C          5.3980    1.4300    0.8350 C.3     1  UNL1        0.0470
      7  C          6.2200    0.3940    0.2070 C.2     1  UNL1       -0.0430
      8  C          6.4360    0.3710   -1.1620 C.2     1  UNL1        0.0080
      9  C          6.7710   -0.6120    0.9550 C.2     1  UNL1        0.0540
     10  C          7.1790   -0.6240   -1.7590 C.2     1  UNL1        0.0510
     11  C          7.5210   -1.6200    0.3790 C.2     1  UNL1        0.1660
     12  C          7.7280   -1.6290   -0.9800 C.2     1  UNL1        0.1650
     13  O          8.1620   -2.7170    0.9270 O.2     1  UNL1       -0.4540
     14  O          8.5080   -2.7520   -1.2610 O.2     1  UNL1       -0.4540
     15  C          8.5250   -3.6060   -0.1400 C.3     1  UNL1        0.4680
@<TRIPOS>BOND
     1    10     8    1
     2    10    12    2
     3    14    12    1
     4    14    15    1
     5     8     7    2
     6    12    11    1
     7     5     4    1
     8    15    13    1
     9     4     2    1
    10     7     6    1
    11     7     9    1
    12     1     6    1
    13     1     2    1
    14    11    13    1
    15    11     9    2
    16     2     3    2
