MODEL 1
REMARK VINA RESULT:      -7.6      0.000      0.000
REMARK SMILES O=C(O)CCc1ccc2c(c1)OCO2
REMARK SMILES IDX 4 1 2 2 1 3 3 4 5 6 6 7 7 8 11 9 8 10 10 11 9 12 12 13 14 14
REMARK SMILES IDX 13 15
REMARK H PARENT 3 5
REMARK Flexibility Score: inf
ROOT
ATOM      1  C   UNL     1       5.417   2.865   0.130  1.00  0.00     0.127 C 
ENDROOT
BRANCH   1   2
ATOM      2  C   UNL     1       6.247   3.845   0.813  1.00  0.00     0.303 C 
ATOM      3  O   UNL     1       6.887   4.747   0.268  1.00  0.00    -0.252 OA
BRANCH   2   4
ATOM      4  O   UNL     1       6.327   3.759   2.211  1.00  0.00    -0.481 OA
ATOM      5  H   UNL     1       6.309   2.830   2.602  1.00  0.00     0.296 HD
ENDBRANCH   2   4
ENDBRANCH   1   2
BRANCH   1   6
ATOM      6  C   UNL     1       5.351   1.555   0.812  1.00  0.00     0.047 C 
BRANCH   6   7
ATOM      7  C   UNL     1       6.133   0.455   0.244  1.00  0.00    -0.043 A 
ATOM      8  C   UNL     1       6.589  -0.591   1.031  1.00  0.00     0.008 A 
ATOM      9  C   UNL     1       6.471   0.448  -1.083  1.00  0.00     0.054 A 
ATOM     10  C   UNL     1       7.355  -1.608   0.505  1.00  0.00     0.051 A 
ATOM     11  C   UNL     1       7.238  -0.561  -1.633  1.00  0.00     0.166 A 
ATOM     12  C   UNL     1       7.683  -1.593  -0.841  1.00  0.00     0.165 A 
ATOM     13  O   UNL     1       7.693  -0.771  -2.923  1.00  0.00    -0.454 OA
ATOM     14  O   UNL     1       8.420  -2.444  -1.665  1.00  0.00    -0.454 OA
ATOM     15  C   UNL     1       8.700  -1.793  -2.884  1.00  0.00     0.468 C 
ENDBRANCH   6   7
ENDBRANCH   1   6
TORSDOF 4
ENDMDL
MODEL 2
REMARK VINA RESULT:      -7.6      2.138      2.521
REMARK SMILES O=C(O)CCc1ccc2c(c1)OCO2
REMARK SMILES IDX 4 1 2 2 1 3 3 4 5 6 6 7 7 8 11 9 8 10 10 11 9 12 12 13 14 14
REMARK SMILES IDX 13 15
REMARK H PARENT 3 5
REMARK Flexibility Score: inf
ROOT
ATOM      1  C   UNL     1       4.711   1.863   0.683  1.00  0.00     0.127 C 
ENDROOT
BRANCH   1   2
ATOM      2  C   UNL     1       4.385   1.152   1.910  1.00  0.00     0.303 C 
ATOM      3  O   UNL     1       5.090   0.299   2.453  1.00  0.00    -0.252 OA
BRANCH   2   4
ATOM      4  O   UNL     1       3.164   1.461   2.529  1.00  0.00    -0.481 OA
ATOM      5  H   UNL     1       2.363   1.536   1.922  1.00  0.00     0.296 HD
ENDBRANCH   2   4
ENDBRANCH   1   2
BRANCH   1   6
ATOM      6  C   UNL     1       6.142   2.211   0.553  1.00  0.00     0.047 C 
BRANCH   6   7
ATOM      7  C   UNL     1       6.989   1.310  -0.231  1.00  0.00    -0.043 A 
ATOM      8  C   UNL     1       8.347   1.544  -0.386  1.00  0.00     0.008 A 
ATOM      9  C   UNL     1       6.453   0.224  -0.871  1.00  0.00     0.054 A 
ATOM     10  C   UNL     1       9.138   0.718  -1.153  1.00  0.00     0.051 A 
ATOM     11  C   UNL     1       7.228  -0.619  -1.645  1.00  0.00     0.166 A 
ATOM     12  C   UNL     1       8.572  -0.375  -1.789  1.00  0.00     0.165 A 
ATOM     13  O   UNL     1       6.908  -1.754  -2.369  1.00  0.00    -0.454 OA
ATOM     14  O   UNL     1       9.078  -1.380  -2.615  1.00  0.00    -0.454 OA
ATOM     15  C   UNL     1       8.011  -2.060  -3.236  1.00  0.00     0.468 C 
ENDBRANCH   6   7
ENDBRANCH   1   6
TORSDOF 4
ENDMDL
MODEL 3
REMARK VINA RESULT:      -7.5      1.986      2.893
REMARK SMILES O=C(O)CCc1ccc2c(c1)OCO2
REMARK SMILES IDX 4 1 2 2 1 3 3 4 5 6 6 7 7 8 11 9 8 10 10 11 9 12 12 13 14 14
REMARK SMILES IDX 13 15
REMARK H PARENT 3 5
REMARK Flexibility Score: inf
ROOT
ATOM      1  C   UNL     1       6.365   1.326   0.629  1.00  0.00     0.127 C 
ENDROOT
BRANCH   1   2
ATOM      2  C   UNL     1       5.199   1.267   1.497  1.00  0.00     0.303 C 
ATOM      3  O   UNL     1       4.228   2.024   1.445  1.00  0.00    -0.252 OA
BRANCH   2   4
ATOM      4  O   UNL     1       5.176   0.263   2.478  1.00  0.00    -0.481 OA
ATOM      5  H   UNL     1       5.896  -0.440   2.412  1.00  0.00     0.296 HD
ENDBRANCH   2   4
ENDBRANCH   1   2
BRANCH   1   6
ATOM      6  C   UNL     1       6.132   0.784  -0.727  1.00  0.00     0.047 C 
BRANCH   6   7
ATOM      7  C   UNL     1       6.916  -0.384  -1.134  1.00  0.00    -0.043 A 
ATOM      8  C   UNL     1       7.241  -0.612  -2.462  1.00  0.00     0.008 A 
ATOM      9  C   UNL     1       7.321  -1.311  -0.211  1.00  0.00     0.054 A 
ATOM     10  C   UNL     1       7.947  -1.729  -2.850  1.00  0.00     0.051 A 
ATOM     11  C   UNL     1       8.031  -2.439  -0.577  1.00  0.00     0.166 A 
ATOM     12  C   UNL     1       8.346  -2.652  -1.898  1.00  0.00     0.165 A 
ATOM     13  O   UNL     1       8.535  -3.490   0.168  1.00  0.00    -0.454 OA
ATOM     14  O   UNL     1       9.054  -3.854  -1.954  1.00  0.00    -0.454 OA
ATOM     15  C   UNL     1       8.910  -4.542  -0.734  1.00  0.00     0.468 C 
ENDBRANCH   6   7
ENDBRANCH   1   6
TORSDOF 4
ENDMDL
MODEL 4
REMARK VINA RESULT:      -7.4      1.787      5.283
REMARK SMILES O=C(O)CCc1ccc2c(c1)OCO2
REMARK SMILES IDX 4 1 2 2 1 3 3 4 5 6 6 7 7 8 11 9 8 10 10 11 9 12 12 13 14 14
REMARK SMILES IDX 13 15
REMARK H PARENT 3 5
REMARK Flexibility Score: inf
ROOT
ATOM      1  C   UNL     1       8.306  -0.319  -2.854  1.00  0.00     0.127 C 
ENDROOT
BRANCH   1   2
ATOM      2  C   UNL     1       8.468  -1.748  -3.070  1.00  0.00     0.303 C 
ATOM      3  O   UNL     1       9.535  -2.363  -3.029  1.00  0.00    -0.252 OA
BRANCH   2   4
ATOM      4  O   UNL     1       7.311  -2.493  -3.348  1.00  0.00    -0.481 OA
ATOM      5  H   UNL     1       7.364  -3.483  -3.164  1.00  0.00     0.296 HD
ENDBRANCH   2   4
ENDBRANCH   1   2
BRANCH   1   6
ATOM      6  C   UNL     1       8.760   0.143  -1.525  1.00  0.00     0.047 C 
BRANCH   6   7
ATOM      7  C   UNL     1       7.791   0.103  -0.427  1.00  0.00    -0.043 A 
ATOM      8  C   UNL     1       7.742  -0.964   0.457  1.00  0.00     0.008 A 
ATOM      9  C   UNL     1       6.874   1.107  -0.266  1.00  0.00     0.054 A 
ATOM     10  C   UNL     1       6.808  -1.020   1.468  1.00  0.00     0.051 A 
ATOM     11  C   UNL     1       5.928   1.072   0.741  1.00  0.00     0.166 A 
ATOM     12  C   UNL     1       5.892   0.009   1.611  1.00  0.00     0.165 A 
ATOM     13  O   UNL     1       4.923   1.958   1.089  1.00  0.00    -0.454 OA
ATOM     14  O   UNL     1       4.845   0.254   2.503  1.00  0.00    -0.454 OA
ATOM     15  C   UNL     1       4.038   1.296   2.006  1.00  0.00     0.468 C 
ENDBRANCH   6   7
ENDBRANCH   1   6
TORSDOF 4
ENDMDL
MODEL 5
REMARK VINA RESULT:      -7.4      0.950      2.116
REMARK SMILES O=C(O)CCc1ccc2c(c1)OCO2
REMARK SMILES IDX 4 1 2 2 1 3 3 4 5 6 6 7 7 8 11 9 8 10 10 11 9 12 12 13 14 14
REMARK SMILES IDX 13 15
REMARK H PARENT 3 5
REMARK Flexibility Score: inf
ROOT
ATOM      1  C   UNL     1       5.399   2.772   0.216  1.00  0.00     0.127 C 
ENDROOT
BRANCH   1   2
ATOM      2  C   UNL     1       6.171   3.762   0.952  1.00  0.00     0.303 C 
ATOM      3  O   UNL     1       6.233   3.855   2.179  1.00  0.00    -0.252 OA
BRANCH   2   4
ATOM      4  O   UNL     1       6.909   4.691   0.202  1.00  0.00    -0.481 OA
ATOM      5  H   UNL     1       6.877   4.581  -0.800  1.00  0.00     0.296 HD
ENDBRANCH   2   4
ENDBRANCH   1   2
BRANCH   1   6
ATOM      6  C   UNL     1       5.398   1.430   0.835  1.00  0.00     0.047 C 
BRANCH   6   7
ATOM      7  C   UNL     1       6.220   0.394   0.207  1.00  0.00    -0.043 A 
ATOM      8  C   UNL     1       6.436   0.371  -1.162  1.00  0.00     0.008 A 
ATOM      9  C   UNL     1       6.771  -0.612   0.955  1.00  0.00     0.054 A 
ATOM     10  C   UNL     1       7.179  -0.624  -1.759  1.00  0.00     0.051 A 
ATOM     11  C   UNL     1       7.521  -1.620   0.379  1.00  0.00     0.166 A 
ATOM     12  C   UNL     1       7.728  -1.629  -0.980  1.00  0.00     0.165 A 
ATOM     13  O   UNL     1       8.162  -2.717   0.927  1.00  0.00    -0.454 OA
ATOM     14  O   UNL     1       8.508  -2.752  -1.261  1.00  0.00    -0.454 OA
ATOM     15  C   UNL     1       8.525  -3.606  -0.140  1.00  0.00     0.468 C 
ENDBRANCH   6   7
ENDBRANCH   1   6
TORSDOF 4
ENDMDL
