@<TRIPOS>MOLECULE
/home/cewinharhar/GITHUB/reincatalyze/data/processed/docking_pred/2023-May-17-1006_maxeplen10_maxtrainstep1000_seadep16_gamma099_lrac9e-4_lrcr1e-3_sub6/0310d41f91ab2de901a6698b161cc991790b6b4b_ligand_6.pdbqt
 15 16 0 0 0
SMALL
GASTEIGER

@<TRIPOS>ATOM
      1  C          5.4140    2.8770    0.1060 C.3     1  UNL1        0.1270
      2  C          6.2390    3.8720    0.7730 C.2     1  UNL1        0.3030
      3  O          6.9120    4.7380    0.2120 O.2     1  UNL1       -0.2520
      4  O          6.2720    3.8450    2.1760 O.3     1  UNL1       -0.4810
      5  H          5.7420    4.5620    2.6480 H       1  UNL1        0.2960
      6  C          5.3630    1.5740    0.8040 C.3     1  UNL1        0.0470
      7  C          6.1310    0.4670    0.2290 C.2     1  UNL1       -0.0430
      8  C          6.5600   -0.5970    1.0070 C.2     1  UNL1        0.0080
      9  C          6.4830    0.4720   -1.0940 C.2     1  UNL1        0.0540
     10  C          7.3140   -1.6200    0.4760 C.2     1  UNL1        0.0510
     11  C          7.2370   -0.5450   -1.6490 C.2     1  UNL1        0.1660
     12  C          7.6550   -1.5940   -0.8660 C.2     1  UNL1        0.1650
     13  O          7.7020   -0.7460   -2.9370 O.2     1  UNL1       -0.4540
     14  O          8.3860   -2.4480   -1.6940 O.2     1  UNL1       -0.4540
     15  C          8.6900   -1.7870   -2.9010 C.3     1  UNL1        0.4680
@<TRIPOS>BOND
     1    13    15    1
     2    13    11    1
     3    15    14    1
     4    14    12    1
     5    11     9    1
     6    11    12    2
     7     9     7    2
     8    12    10    1
     9     1     2    1
    10     1     6    1
    11     3     2    2
    12     7     6    1
    13     7     8    1
    14    10     8    2
    15     2     4    1
    16     4     5    1
