@<TRIPOS>MOLECULE
/home/cewinharhar/GITHUB/reincatalyze/data/processed/docking_pred/2023-May-17-1006_maxeplen10_maxtrainstep1000_seadep16_gamma099_lrac9e-4_lrcr1e-3_sub6/0310d41f91ab2de901a6698b161cc991790b6b4b_ligand_6.pdbqt
 15 16 0 0 0
SMALL
GASTEIGER

@<TRIPOS>ATOM
      1  C          5.2470    3.1510    0.3830 C.3     1  UNL1        0.1270
      2  C          6.3350    3.8290    1.0700 C.2     1  UNL1        0.3030
      3  O          6.6690    3.6450    2.2420 O.2     1  UNL1       -0.2520
      4  O          7.0700    4.7740    0.3380 O.3     1  UNL1       -0.4810
      5  H          6.6880    5.0380   -0.5580 H       1  UNL1        0.2960
      6  C          5.0440    1.7510    0.8160 C.3     1  UNL1        0.0470
      7  C          5.9100    0.7280    0.2260 C.2     1  UNL1       -0.0430
      8  C          6.1440    0.6750   -1.1390 C.2     1  UNL1        0.0080
      9  C          6.4860   -0.2370    1.0090 C.2     1  UNL1        0.0540
     10  C          6.9290   -0.3080   -1.6990 C.2     1  UNL1        0.0510
     11  C          7.2780   -1.2330    0.4690 C.2     1  UNL1        0.1660
     12  C          7.5020   -1.2720   -0.8860 C.2     1  UNL1        0.1650
     13  O          7.9510   -2.2910    1.0550 O.2     1  UNL1       -0.4540
     14  O          8.3250   -2.3740   -1.1270 O.2     1  UNL1       -0.4540
     15  C          8.3580   -3.1950    0.0170 C.3     1  UNL1        0.4680
@<TRIPOS>BOND
     1    10     8    1
     2    10    12    2
     3     8     7    2
     4    14    12    1
     5    14    15    1
     6    12    11    1
     7     5     4    1
     8    15    13    1
     9     7     6    1
    10     7     9    1
    11     4     2    1
    12     1     6    1
    13     1     2    1
    14    11     9    2
    15    11    13    1
    16     2     3    2
