MODEL 1
REMARK VINA RESULT:      -7.6      0.000      0.000
REMARK SMILES O=C(O)CCc1ccc2c(c1)OCO2
REMARK SMILES IDX 4 1 2 2 1 3 3 4 5 6 6 7 7 8 11 9 8 10 10 11 9 12 12 13 14 14
REMARK SMILES IDX 13 15
REMARK H PARENT 3 5
REMARK Flexibility Score: inf
ROOT
ATOM      1  C   UNL     1       5.414   2.877   0.106  1.00  0.00     0.127 C 
ENDROOT
BRANCH   1   2
ATOM      2  C   UNL     1       6.239   3.872   0.773  1.00  0.00     0.303 C 
ATOM      3  O   UNL     1       6.912   4.738   0.212  1.00  0.00    -0.252 OA
BRANCH   2   4
ATOM      4  O   UNL     1       6.272   3.845   2.176  1.00  0.00    -0.481 OA
ATOM      5  H   UNL     1       5.742   4.562   2.648  1.00  0.00     0.296 HD
ENDBRANCH   2   4
ENDBRANCH   1   2
BRANCH   1   6
ATOM      6  C   UNL     1       5.363   1.574   0.804  1.00  0.00     0.047 C 
BRANCH   6   7
ATOM      7  C   UNL     1       6.131   0.467   0.229  1.00  0.00    -0.043 A 
ATOM      8  C   UNL     1       6.560  -0.597   1.007  1.00  0.00     0.008 A 
ATOM      9  C   UNL     1       6.483   0.472  -1.094  1.00  0.00     0.054 A 
ATOM     10  C   UNL     1       7.314  -1.620   0.476  1.00  0.00     0.051 A 
ATOM     11  C   UNL     1       7.237  -0.545  -1.649  1.00  0.00     0.166 A 
ATOM     12  C   UNL     1       7.655  -1.594  -0.866  1.00  0.00     0.165 A 
ATOM     13  O   UNL     1       7.702  -0.746  -2.937  1.00  0.00    -0.454 OA
ATOM     14  O   UNL     1       8.386  -2.448  -1.694  1.00  0.00    -0.454 OA
ATOM     15  C   UNL     1       8.690  -1.787  -2.901  1.00  0.00     0.468 C 
ENDBRANCH   6   7
ENDBRANCH   1   6
TORSDOF 4
ENDMDL
MODEL 2
REMARK VINA RESULT:      -7.6      2.134      2.526
REMARK SMILES O=C(O)CCc1ccc2c(c1)OCO2
REMARK SMILES IDX 4 1 2 2 1 3 3 4 5 6 6 7 7 8 11 9 8 10 10 11 9 12 12 13 14 14
REMARK SMILES IDX 13 15
REMARK H PARENT 3 5
REMARK Flexibility Score: inf
ROOT
ATOM      1  C   UNL     1       4.681   1.862   0.691  1.00  0.00     0.127 C 
ENDROOT
BRANCH   1   2
ATOM      2  C   UNL     1       4.389   1.155   1.929  1.00  0.00     0.303 C 
ATOM      3  O   UNL     1       5.125   0.332   2.476  1.00  0.00    -0.252 OA
BRANCH   2   4
ATOM      4  O   UNL     1       3.164   1.433   2.556  1.00  0.00    -0.481 OA
ATOM      5  H   UNL     1       2.440   0.739   2.446  1.00  0.00     0.296 HD
ENDBRANCH   2   4
ENDBRANCH   1   2
BRANCH   1   6
ATOM      6  C   UNL     1       6.103   2.237   0.536  1.00  0.00     0.047 C 
BRANCH   6   7
ATOM      7  C   UNL     1       6.963   1.331  -0.229  1.00  0.00    -0.043 A 
ATOM      8  C   UNL     1       8.323   1.563  -0.363  1.00  0.00     0.008 A 
ATOM      9  C   UNL     1       6.436   0.242  -0.872  1.00  0.00     0.054 A 
ATOM     10  C   UNL     1       9.126   0.733  -1.112  1.00  0.00     0.051 A 
ATOM     11  C   UNL     1       7.223  -0.605  -1.629  1.00  0.00     0.166 A 
ATOM     12  C   UNL     1       8.570  -0.363  -1.751  1.00  0.00     0.165 A 
ATOM     13  O   UNL     1       6.914  -1.744  -2.352  1.00  0.00    -0.454 OA
ATOM     14  O   UNL     1       9.088  -1.373  -2.564  1.00  0.00    -0.454 OA
ATOM     15  C   UNL     1       8.031  -2.055  -3.198  1.00  0.00     0.468 C 
ENDBRANCH   6   7
ENDBRANCH   1   6
TORSDOF 4
ENDMDL
MODEL 3
REMARK VINA RESULT:      -7.5      1.815      5.264
REMARK SMILES O=C(O)CCc1ccc2c(c1)OCO2
REMARK SMILES IDX 4 1 2 2 1 3 3 4 5 6 6 7 7 8 11 9 8 10 10 11 9 12 12 13 14 14
REMARK SMILES IDX 13 15
REMARK H PARENT 3 5
REMARK Flexibility Score: inf
ROOT
ATOM      1  C   UNL     1       8.248  -0.198  -2.825  1.00  0.00     0.127 C 
ENDROOT
BRANCH   1   2
ATOM      2  C   UNL     1       8.486  -1.618  -3.034  1.00  0.00     0.303 C 
ATOM      3  O   UNL     1       9.573  -2.187  -2.921  1.00  0.00    -0.252 OA
BRANCH   2   4
ATOM      4  O   UNL     1       7.385  -2.409  -3.396  1.00  0.00    -0.481 OA
ATOM      5  H   UNL     1       6.563  -1.914  -3.706  1.00  0.00     0.296 HD
ENDBRANCH   2   4
ENDBRANCH   1   2
BRANCH   1   6
ATOM      6  C   UNL     1       8.698   0.299  -1.507  1.00  0.00     0.047 C 
BRANCH   6   7
ATOM      7  C   UNL     1       7.743   0.236  -0.399  1.00  0.00    -0.043 A 
ATOM      8  C   UNL     1       7.762  -0.805   0.517  1.00  0.00     0.008 A 
ATOM      9  C   UNL     1       6.772   1.192  -0.256  1.00  0.00     0.054 A 
ATOM     10  C   UNL     1       6.843  -0.883   1.539  1.00  0.00     0.051 A 
ATOM     11  C   UNL     1       5.839   1.134   0.762  1.00  0.00     0.166 A 
ATOM     12  C   UNL     1       5.871   0.096   1.663  1.00  0.00     0.165 A 
ATOM     13  O   UNL     1       4.789   1.971   1.095  1.00  0.00    -0.454 OA
ATOM     14  O   UNL     1       4.821   0.308   2.558  1.00  0.00    -0.454 OA
ATOM     15  C   UNL     1       3.952   1.288   2.040  1.00  0.00     0.468 C 
ENDBRANCH   6   7
ENDBRANCH   1   6
TORSDOF 4
ENDMDL
MODEL 4
REMARK VINA RESULT:      -7.4      1.984      2.973
REMARK SMILES O=C(O)CCc1ccc2c(c1)OCO2
REMARK SMILES IDX 4 1 2 2 1 3 3 4 5 6 6 7 7 8 11 9 8 10 10 11 9 12 12 13 14 14
REMARK SMILES IDX 13 15
REMARK H PARENT 3 5
REMARK Flexibility Score: inf
ROOT
ATOM      1  C   UNL     1       6.457   1.275   0.731  1.00  0.00     0.127 C 
ENDROOT
BRANCH   1   2
ATOM      2  C   UNL     1       5.258   1.177   1.549  1.00  0.00     0.303 C 
ATOM      3  O   UNL     1       5.048   0.324   2.413  1.00  0.00    -0.252 OA
BRANCH   2   4
ATOM      4  O   UNL     1       4.253   2.133   1.337  1.00  0.00    -0.481 OA
ATOM      5  H   UNL     1       3.377   1.787   0.977  1.00  0.00     0.296 HD
ENDBRANCH   2   4
ENDBRANCH   1   2
BRANCH   1   6
ATOM      6  C   UNL     1       6.263   0.850  -0.672  1.00  0.00     0.047 C 
BRANCH   6   7
ATOM      7  C   UNL     1       7.003  -0.328  -1.131  1.00  0.00    -0.043 A 
ATOM      8  C   UNL     1       7.265  -0.540  -2.476  1.00  0.00     0.008 A 
ATOM      9  C   UNL     1       7.427  -1.279  -0.242  1.00  0.00     0.054 A 
ATOM     10  C   UNL     1       7.930  -1.664  -2.912  1.00  0.00     0.051 A 
ATOM     11  C   UNL     1       8.096  -2.415  -0.657  1.00  0.00     0.166 A 
ATOM     12  C   UNL     1       8.350  -2.611  -1.993  1.00  0.00     0.165 A 
ATOM     13  O   UNL     1       8.609  -3.489   0.050  1.00  0.00    -0.454 OA
ATOM     14  O   UNL     1       9.028  -3.827  -2.099  1.00  0.00    -0.454 OA
ATOM     15  C   UNL     1       8.922  -4.533  -0.885  1.00  0.00     0.468 C 
ENDBRANCH   6   7
ENDBRANCH   1   6
TORSDOF 4
ENDMDL
MODEL 5
REMARK VINA RESULT:      -7.1      0.996      2.123
REMARK SMILES O=C(O)CCc1ccc2c(c1)OCO2
REMARK SMILES IDX 4 1 2 2 1 3 3 4 5 6 6 7 7 8 11 9 8 10 10 11 9 12 12 13 14 14
REMARK SMILES IDX 13 15
REMARK H PARENT 3 5
REMARK Flexibility Score: inf
ROOT
ATOM      1  C   UNL     1       5.247   3.151   0.383  1.00  0.00     0.127 C 
ENDROOT
BRANCH   1   2
ATOM      2  C   UNL     1       6.335   3.829   1.070  1.00  0.00     0.303 C 
ATOM      3  O   UNL     1       6.669   3.645   2.242  1.00  0.00    -0.252 OA
BRANCH   2   4
ATOM      4  O   UNL     1       7.070   4.774   0.338  1.00  0.00    -0.481 OA
ATOM      5  H   UNL     1       6.688   5.038  -0.558  1.00  0.00     0.296 HD
ENDBRANCH   2   4
ENDBRANCH   1   2
BRANCH   1   6
ATOM      6  C   UNL     1       5.044   1.751   0.816  1.00  0.00     0.047 C 
BRANCH   6   7
ATOM      7  C   UNL     1       5.910   0.728   0.226  1.00  0.00    -0.043 A 
ATOM      8  C   UNL     1       6.144   0.675  -1.139  1.00  0.00     0.008 A 
ATOM      9  C   UNL     1       6.486  -0.237   1.009  1.00  0.00     0.054 A 
ATOM     10  C   UNL     1       6.929  -0.308  -1.699  1.00  0.00     0.051 A 
ATOM     11  C   UNL     1       7.278  -1.233   0.469  1.00  0.00     0.166 A 
ATOM     12  C   UNL     1       7.502  -1.272  -0.886  1.00  0.00     0.165 A 
ATOM     13  O   UNL     1       7.951  -2.291   1.055  1.00  0.00    -0.454 OA
ATOM     14  O   UNL     1       8.325  -2.374  -1.127  1.00  0.00    -0.454 OA
ATOM     15  C   UNL     1       8.358  -3.195   0.017  1.00  0.00     0.468 C 
ENDBRANCH   6   7
ENDBRANCH   1   6
TORSDOF 4
ENDMDL
