@<TRIPOS>MOLECULE
/home/cewinharhar/GITHUB/reincatalyze/data/processed/docking_pred/2023-May-17-1006_maxeplen10_maxtrainstep1000_seadep16_gamma099_lrac9e-4_lrcr1e-3_sub6/0310d41f91ab2de901a6698b161cc991790b6b4b_ligand_6.pdbqt
 15 16 0 0 0
SMALL
GASTEIGER

@<TRIPOS>ATOM
      1  C          8.2480   -0.1980   -2.8250 C.3     1  UNL1        0.1270
      2  C          8.4860   -1.6180   -3.0340 C.2     1  UNL1        0.3030
      3  O          9.5730   -2.1870   -2.9210 O.2     1  UNL1       -0.2520
      4  O          7.3850   -2.4090   -3.3960 O.3     1  UNL1       -0.4810
      5  H          6.5630   -1.9140   -3.7060 H       1  UNL1        0.2960
      6  C          8.6980    0.2990   -1.5070 C.3     1  UNL1        0.0470
      7  C          7.7430    0.2360   -0.3990 C.2     1  UNL1       -0.0430
      8  C          7.7620   -0.8050    0.5170 C.2     1  UNL1        0.0080
      9  C          6.7720    1.1920   -0.2560 C.2     1  UNL1        0.0540
     10  C          6.8430   -0.8830    1.5390 C.2     1  UNL1        0.0510
     11  C          5.8390    1.1340    0.7620 C.2     1  UNL1        0.1660
     12  C          5.8710    0.0960    1.6630 C.2     1  UNL1        0.1650
     13  O          4.7890    1.9710    1.0950 O.2     1  UNL1       -0.4540
     14  O          4.8210    0.3080    2.5580 O.2     1  UNL1       -0.4540
     15  C          3.9520    1.2880    2.0400 C.3     1  UNL1        0.4680
@<TRIPOS>BOND
     1     5     4    1
     2     4     2    1
     3     2     3    2
     4     2     1    1
     5     1     6    1
     6     6     7    1
     7     7     9    2
     8     7     8    1
     9     9    11    1
    10     8    10    2
    11    11    13    1
    12    11    12    2
    13    13    15    1
    14    10    12    1
    15    12    14    1
    16    15    14    1
