@<TRIPOS>MOLECULE
/home/cewinharhar/GITHUB/reincatalyze/data/processed/docking_pred/2023-May-17-1006_maxeplen10_maxtrainstep1000_seadep16_gamma099_lrac9e-4_lrcr1e-3_sub6/0310d41f91ab2de901a6698b161cc991790b6b4b_ligand_6.pdbqt
 15 16 0 0 0
SMALL
GASTEIGER

@<TRIPOS>ATOM
      1  C          6.4570    1.2750    0.7310 C.3     1  UNL1        0.1270
      2  C          5.2580    1.1770    1.5490 C.2     1  UNL1        0.3030
      3  O          5.0480    0.3240    2.4130 O.2     1  UNL1       -0.2520
      4  O          4.2530    2.1330    1.3370 O.3     1  UNL1       -0.4810
      5  H          3.3770    1.7870    0.9770 H       1  UNL1        0.2960
      6  C          6.2630    0.8500   -0.6720 C.3     1  UNL1        0.0470
      7  C          7.0030   -0.3280   -1.1310 C.2     1  UNL1       -0.0430
      8  C          7.2650   -0.5400   -2.4760 C.2     1  UNL1        0.0080
      9  C          7.4270   -1.2790   -0.2420 C.2     1  UNL1        0.0540
     10  C          7.9300   -1.6640   -2.9120 C.2     1  UNL1        0.0510
     11  C          8.0960   -2.4150   -0.6570 C.2     1  UNL1        0.1660
     12  C          8.3500   -2.6110   -1.9930 C.2     1  UNL1        0.1650
     13  O          8.6090   -3.4890    0.0500 O.2     1  UNL1       -0.4540
     14  O          9.0280   -3.8270   -2.0990 O.2     1  UNL1       -0.4540
     15  C          8.9220   -4.5330   -0.8850 C.3     1  UNL1        0.4680
@<TRIPOS>BOND
     1    10     8    1
     2    10    12    2
     3     8     7    2
     4    14    12    1
     5    14    15    1
     6    12    11    1
     7     7     6    1
     8     7     9    1
     9    15    13    1
    10     6     1    1
    11    11     9    2
    12    11    13    1
    13     1     2    1
    14     5     4    1
    15     4     2    1
    16     2     3    2
