@<TRIPOS>MOLECULE
/home/cewinharhar/GITHUB/reincatalyze/data/processed/docking_pred/2023-May-17-1006_maxeplen10_maxtrainstep1000_seadep16_gamma099_lrac9e-4_lrcr1e-3_sub6/0310d41f91ab2de901a6698b161cc991790b6b4b_ligand_6.pdbqt
 15 16 0 0 0
SMALL
GASTEIGER

@<TRIPOS>ATOM
      1  C          4.6810    1.8620    0.6910 C.3     1  UNL1        0.1270
      2  C          4.3890    1.1550    1.9290 C.2     1  UNL1        0.3030
      3  O          5.1250    0.3320    2.4760 O.2     1  UNL1       -0.2520
      4  O          3.1640    1.4330    2.5560 O.3     1  UNL1       -0.4810
      5  H          2.4400    0.7390    2.4460 H       1  UNL1        0.2960
      6  C          6.1030    2.2370    0.5360 C.3     1  UNL1        0.0470
      7  C          6.9630    1.3310   -0.2290 C.2     1  UNL1       -0.0430
      8  C          8.3230    1.5630   -0.3630 C.2     1  UNL1        0.0080
      9  C          6.4360    0.2420   -0.8720 C.2     1  UNL1        0.0540
     10  C          9.1260    0.7330   -1.1120 C.2     1  UNL1        0.0510
     11  C          7.2230   -0.6050   -1.6290 C.2     1  UNL1        0.1660
     12  C          8.5700   -0.3630   -1.7510 C.2     1  UNL1        0.1650
     13  O          6.9140   -1.7440   -2.3520 O.2     1  UNL1       -0.4540
     14  O          9.0880   -1.3730   -2.5640 O.2     1  UNL1       -0.4540
     15  C          8.0310   -2.0550   -3.1980 C.3     1  UNL1        0.4680
@<TRIPOS>BOND
     1    15    14    1
     2    15    13    1
     3    14    12    1
     4    13    11    1
     5    12    11    2
     6    12    10    1
     7    11     9    1
     8    10     8    2
     9     9     7    2
    10     8     7    1
    11     7     6    1
    12     6     1    1
    13     1     2    1
    14     2     3    2
    15     2     4    1
    16     5     4    1
