@<TRIPOS>MOLECULE
/home/cewinharhar/GITHUB/reincatalyze/data/processed/docking_pred/2023-May-17-1006_maxeplen10_maxtrainstep1000_seadep16_gamma099_lrac9e-4_lrcr1e-3_sub6/034cecc51265c6b10d0b2cc1c9f67b1ec6b5e3be_ligand_6.pdbqt
 15 16 0 0 0
SMALL
GASTEIGER

@<TRIPOS>ATOM
      1  C          4.7030    1.8800    0.6800 C.3     1  UNL1        0.1270
      2  C          4.3960    1.1700    1.9120 C.2     1  UNL1        0.3030
      3  O          5.1220    0.3390    2.4610 O.2     1  UNL1       -0.2520
      4  O          3.1700    1.4560    2.5320 O.3     1  UNL1       -0.4810
      5  H          2.5040    0.6990    2.5720 H       1  UNL1        0.2960
      6  C          6.1290    2.2410    0.5340 C.3     1  UNL1        0.0470
      7  C          6.9810    1.3350   -0.2390 C.2     1  UNL1       -0.0430
      8  C          8.3420    1.5620   -0.3770 C.2     1  UNL1        0.0080
      9  C          6.4480    0.2520   -0.8840 C.2     1  UNL1        0.0540
     10  C          9.1390    0.7310   -1.1330 C.2     1  UNL1        0.0510
     11  C          7.2280   -0.5960   -1.6480 C.2     1  UNL1        0.1660
     12  C          8.5750   -0.3590   -1.7750 C.2     1  UNL1        0.1650
     13  O          6.9110   -1.7300   -2.3750 O.2     1  UNL1       -0.4540
     14  O          9.0860   -1.3680   -2.5940 O.2     1  UNL1       -0.4540
     15  C          8.0230   -2.0430   -3.2270 C.3     1  UNL1        0.4680
@<TRIPOS>BOND
     1    15    14    1
     2    15    13    1
     3    14    12    1
     4    13    11    1
     5    12    11    2
     6    12    10    1
     7    11     9    1
     8    10     8    2
     9     9     7    2
    10     8     7    1
    11     7     6    1
    12     6     1    1
    13     1     2    1
    14     2     3    2
    15     2     4    1
    16     4     5    1
