@<TRIPOS>MOLECULE
/home/cewinharhar/GITHUB/reincatalyze/data/processed/docking_pred/2023-May-17-1006_maxeplen10_maxtrainstep1000_seadep16_gamma099_lrac9e-4_lrcr1e-3_sub6/034cecc51265c6b10d0b2cc1c9f67b1ec6b5e3be_ligand_6.pdbqt
 15 16 0 0 0
SMALL
GASTEIGER

@<TRIPOS>ATOM
      1  C          6.4190    1.3040    0.6910 C.3     1  UNL1        0.1270
      2  C          5.1750    1.3450    1.4420 C.2     1  UNL1        0.3030
      3  O          4.2650    2.1610    1.2800 O.2     1  UNL1       -0.2520
      4  O          4.9910    0.3740    2.4390 O.3     1  UNL1       -0.4810
      5  H          4.2570    0.5540    3.1060 H       1  UNL1        0.2960
      6  C          6.2600    0.8550   -0.7090 C.3     1  UNL1        0.0470
      7  C          7.0040   -0.3350   -1.1270 C.2     1  UNL1       -0.0430
      8  C          7.2950   -0.5760   -2.4610 C.2     1  UNL1        0.0080
      9  C          7.4010   -1.2710   -0.2090 C.2     1  UNL1        0.0540
     10  C          7.9630   -1.7130   -2.8590 C.2     1  UNL1        0.0510
     11  C          8.0720   -2.4190   -0.5860 C.2     1  UNL1        0.1660
     12  C          8.3560   -2.6440   -1.9110 C.2     1  UNL1        0.1650
     13  O          8.5620   -3.4810    0.1540 O.2     1  UNL1       -0.4540
     14  O          9.0280   -3.8650   -1.9780 O.2     1  UNL1       -0.4540
     15  C          8.8900   -4.5460   -0.7520 C.3     1  UNL1        0.4680
@<TRIPOS>BOND
     1    10     8    1
     2    10    12    2
     3     8     7    2
     4    14    12    1
     5    14    15    1
     6    12    11    1
     7     7     6    1
     8     7     9    1
     9    15    13    1
    10     6     1    1
    11    11     9    2
    12    11    13    1
    13     1     2    1
    14     3     2    2
    15     2     4    1
    16     4     5    1
