@<TRIPOS>MOLECULE
/home/cewinharhar/GITHUB/reincatalyze/data/processed/docking_pred/2023-May-17-1006_maxeplen10_maxtrainstep1000_seadep16_gamma099_lrac9e-4_lrcr1e-3_sub6/034cecc51265c6b10d0b2cc1c9f67b1ec6b5e3be_ligand_6.pdbqt
 15 16 0 0 0
SMALL
GASTEIGER

@<TRIPOS>ATOM
      1  C          8.3030   -0.3220   -2.8520 C.3     1  UNL1        0.1270
      2  C          8.4670   -1.7510   -3.0710 C.2     1  UNL1        0.3030
      3  O          9.5350   -2.3640   -3.0330 O.2     1  UNL1       -0.2520
      4  O          7.3110   -2.4970   -3.3490 O.3     1  UNL1       -0.4810
      5  H          6.8490   -2.9140   -2.5560 H       1  UNL1        0.2960
      6  C          8.7600    0.1380   -1.5230 C.3     1  UNL1        0.0470
      7  C          7.7940    0.0940   -0.4230 C.2     1  UNL1       -0.0430
      8  C          7.7540   -0.9700    0.4640 C.2     1  UNL1        0.0080
      9  C          6.8710    1.0940   -0.2610 C.2     1  UNL1        0.0540
     10  C          6.8230   -1.0300    1.4780 C.2     1  UNL1        0.0510
     11  C          5.9280    1.0550    0.7490 C.2     1  UNL1        0.1660
     12  C          5.9010   -0.0060    1.6210 C.2     1  UNL1        0.1650
     13  O          4.9190    1.9350    1.0970 O.2     1  UNL1       -0.4540
     14  O          4.8550    0.2340    2.5150 O.2     1  UNL1       -0.4540
     15  C          4.0410    1.2710    2.0180 C.3     1  UNL1        0.4680
@<TRIPOS>BOND
     1     4     2    1
     2     4     5    1
     3     2     3    2
     4     2     1    1
     5     1     6    1
     6     6     7    1
     7     7     9    2
     8     7     8    1
     9     9    11    1
    10     8    10    2
    11    11    13    1
    12    11    12    2
    13    13    15    1
    14    10    12    1
    15    12    14    1
    16    15    14    1
