MODEL 1
REMARK VINA RESULT:      -7.6      0.000      0.000
REMARK SMILES O=C(O)CCc1ccc2c(c1)OCO2
REMARK SMILES IDX 4 1 2 2 1 3 3 4 5 6 6 7 7 8 11 9 8 10 10 11 9 12 12 13 14 14
REMARK SMILES IDX 13 15
REMARK H PARENT 3 5
REMARK Flexibility Score: inf
ROOT
ATOM      1  C   UNL     1       4.703   1.880   0.680  1.00  0.00     0.127 C 
ENDROOT
BRANCH   1   2
ATOM      2  C   UNL     1       4.396   1.170   1.912  1.00  0.00     0.303 C 
ATOM      3  O   UNL     1       5.122   0.339   2.461  1.00  0.00    -0.252 OA
BRANCH   2   4
ATOM      4  O   UNL     1       3.170   1.456   2.532  1.00  0.00    -0.481 OA
ATOM      5  H   UNL     1       2.504   0.699   2.572  1.00  0.00     0.296 HD
ENDBRANCH   2   4
ENDBRANCH   1   2
BRANCH   1   6
ATOM      6  C   UNL     1       6.129   2.241   0.534  1.00  0.00     0.047 C 
BRANCH   6   7
ATOM      7  C   UNL     1       6.981   1.335  -0.239  1.00  0.00    -0.043 A 
ATOM      8  C   UNL     1       8.342   1.562  -0.377  1.00  0.00     0.008 A 
ATOM      9  C   UNL     1       6.448   0.252  -0.884  1.00  0.00     0.054 A 
ATOM     10  C   UNL     1       9.139   0.731  -1.133  1.00  0.00     0.051 A 
ATOM     11  C   UNL     1       7.228  -0.596  -1.648  1.00  0.00     0.166 A 
ATOM     12  C   UNL     1       8.575  -0.359  -1.775  1.00  0.00     0.165 A 
ATOM     13  O   UNL     1       6.911  -1.730  -2.375  1.00  0.00    -0.454 OA
ATOM     14  O   UNL     1       9.086  -1.368  -2.594  1.00  0.00    -0.454 OA
ATOM     15  C   UNL     1       8.023  -2.043  -3.227  1.00  0.00     0.468 C 
ENDBRANCH   6   7
ENDBRANCH   1   6
TORSDOF 4
ENDMDL
MODEL 2
REMARK VINA RESULT:      -7.6      2.120      2.539
REMARK SMILES O=C(O)CCc1ccc2c(c1)OCO2
REMARK SMILES IDX 4 1 2 2 1 3 3 4 5 6 6 7 7 8 11 9 8 10 10 11 9 12 12 13 14 14
REMARK SMILES IDX 13 15
REMARK H PARENT 3 5
REMARK Flexibility Score: inf
ROOT
ATOM      1  C   UNL     1       5.435   2.868   0.157  1.00  0.00     0.127 C 
ENDROOT
BRANCH   1   2
ATOM      2  C   UNL     1       6.299   3.824   0.832  1.00  0.00     0.303 C 
ATOM      3  O   UNL     1       6.872   4.775   0.297  1.00  0.00    -0.252 OA
BRANCH   2   4
ATOM      4  O   UNL     1       6.497   3.652   2.211  1.00  0.00    -0.481 OA
ATOM      5  H   UNL     1       7.357   3.202   2.484  1.00  0.00     0.296 HD
ENDBRANCH   2   4
ENDBRANCH   1   2
BRANCH   1   6
ATOM      6  C   UNL     1       5.358   1.552   0.826  1.00  0.00     0.047 C 
BRANCH   6   7
ATOM      7  C   UNL     1       6.122   0.448   0.240  1.00  0.00    -0.043 A 
ATOM      8  C   UNL     1       6.522  -0.640   1.000  1.00  0.00     0.008 A 
ATOM      9  C   UNL     1       6.499   0.479  -1.076  1.00  0.00     0.054 A 
ATOM     10  C   UNL     1       7.271  -1.661   0.459  1.00  0.00     0.051 A 
ATOM     11  C   UNL     1       7.250  -0.534  -1.641  1.00  0.00     0.166 A 
ATOM     12  C   UNL     1       7.638  -1.608  -0.876  1.00  0.00     0.165 A 
ATOM     13  O   UNL     1       7.736  -0.712  -2.924  1.00  0.00    -0.454 OA
ATOM     14  O   UNL     1       8.373  -2.452  -1.710  1.00  0.00    -0.454 OA
ATOM     15  C   UNL     1       8.709  -1.767  -2.894  1.00  0.00     0.468 C 
ENDBRANCH   6   7
ENDBRANCH   1   6
TORSDOF 4
ENDMDL
MODEL 3
REMARK VINA RESULT:      -7.5      1.866      2.501
REMARK SMILES O=C(O)CCc1ccc2c(c1)OCO2
REMARK SMILES IDX 4 1 2 2 1 3 3 4 5 6 6 7 7 8 11 9 8 10 10 11 9 12 12 13 14 14
REMARK SMILES IDX 13 15
REMARK H PARENT 3 5
REMARK Flexibility Score: inf
ROOT
ATOM      1  C   UNL     1       6.419   1.304   0.691  1.00  0.00     0.127 C 
ENDROOT
BRANCH   1   2
ATOM      2  C   UNL     1       5.175   1.345   1.442  1.00  0.00     0.303 C 
ATOM      3  O   UNL     1       4.265   2.161   1.280  1.00  0.00    -0.252 OA
BRANCH   2   4
ATOM      4  O   UNL     1       4.991   0.374   2.439  1.00  0.00    -0.481 OA
ATOM      5  H   UNL     1       4.257   0.554   3.106  1.00  0.00     0.296 HD
ENDBRANCH   2   4
ENDBRANCH   1   2
BRANCH   1   6
ATOM      6  C   UNL     1       6.260   0.855  -0.709  1.00  0.00     0.047 C 
BRANCH   6   7
ATOM      7  C   UNL     1       7.004  -0.335  -1.127  1.00  0.00    -0.043 A 
ATOM      8  C   UNL     1       7.295  -0.576  -2.461  1.00  0.00     0.008 A 
ATOM      9  C   UNL     1       7.401  -1.271  -0.209  1.00  0.00     0.054 A 
ATOM     10  C   UNL     1       7.963  -1.713  -2.859  1.00  0.00     0.051 A 
ATOM     11  C   UNL     1       8.072  -2.419  -0.586  1.00  0.00     0.166 A 
ATOM     12  C   UNL     1       8.356  -2.644  -1.911  1.00  0.00     0.165 A 
ATOM     13  O   UNL     1       8.562  -3.481   0.154  1.00  0.00    -0.454 OA
ATOM     14  O   UNL     1       9.028  -3.865  -1.978  1.00  0.00    -0.454 OA
ATOM     15  C   UNL     1       8.890  -4.546  -0.752  1.00  0.00     0.468 C 
ENDBRANCH   6   7
ENDBRANCH   1   6
TORSDOF 4
ENDMDL
MODEL 4
REMARK VINA RESULT:      -7.5      2.484      2.823
REMARK SMILES O=C(O)CCc1ccc2c(c1)OCO2
REMARK SMILES IDX 4 1 2 2 1 3 3 4 5 6 6 7 7 8 11 9 8 10 10 11 9 12 12 13 14 14
REMARK SMILES IDX 13 15
REMARK H PARENT 3 5
REMARK Flexibility Score: inf
ROOT
ATOM      1  C   UNL     1       5.369   2.801   0.213  1.00  0.00     0.127 C 
ENDROOT
BRANCH   1   2
ATOM      2  C   UNL     1       6.196   3.729   0.967  1.00  0.00     0.303 C 
ATOM      3  O   UNL     1       6.322   3.745   2.193  1.00  0.00    -0.252 OA
BRANCH   2   4
ATOM      4  O   UNL     1       6.915   4.690   0.239  1.00  0.00    -0.481 OA
ATOM      5  H   UNL     1       6.767   5.652   0.504  1.00  0.00     0.296 HD
ENDBRANCH   2   4
ENDBRANCH   1   2
BRANCH   1   6
ATOM      6  C   UNL     1       5.314   1.441   0.790  1.00  0.00     0.047 C 
BRANCH   6   7
ATOM      7  C   UNL     1       6.166   0.414   0.187  1.00  0.00    -0.043 A 
ATOM      8  C   UNL     1       6.438   0.404  -1.173  1.00  0.00     0.008 A 
ATOM      9  C   UNL     1       6.692  -0.595   0.948  1.00  0.00     0.054 A 
ATOM     10  C   UNL     1       7.210  -0.581  -1.747  1.00  0.00     0.051 A 
ATOM     11  C   UNL     1       7.470  -1.594   0.394  1.00  0.00     0.166 A 
ATOM     12  C   UNL     1       7.732  -1.590  -0.955  1.00  0.00     0.165 A 
ATOM     13  O   UNL     1       8.096  -2.692   0.958  1.00  0.00    -0.454 OA
ATOM     14  O   UNL     1       8.530  -2.706  -1.214  1.00  0.00    -0.454 OA
ATOM     15  C   UNL     1       8.506  -3.569  -0.101  1.00  0.00     0.468 C 
ENDBRANCH   6   7
ENDBRANCH   1   6
TORSDOF 4
ENDMDL
MODEL 5
REMARK VINA RESULT:      -7.5      1.445      5.383
REMARK SMILES O=C(O)CCc1ccc2c(c1)OCO2
REMARK SMILES IDX 4 1 2 2 1 3 3 4 5 6 6 7 7 8 11 9 8 10 10 11 9 12 12 13 14 14
REMARK SMILES IDX 13 15
REMARK H PARENT 3 5
REMARK Flexibility Score: inf
ROOT
ATOM      1  C   UNL     1       8.303  -0.322  -2.852  1.00  0.00     0.127 C 
ENDROOT
BRANCH   1   2
ATOM      2  C   UNL     1       8.467  -1.751  -3.071  1.00  0.00     0.303 C 
ATOM      3  O   UNL     1       9.535  -2.364  -3.033  1.00  0.00    -0.252 OA
BRANCH   2   4
ATOM      4  O   UNL     1       7.311  -2.497  -3.349  1.00  0.00    -0.481 OA
ATOM      5  H   UNL     1       6.849  -2.914  -2.556  1.00  0.00     0.296 HD
ENDBRANCH   2   4
ENDBRANCH   1   2
BRANCH   1   6
ATOM      6  C   UNL     1       8.760   0.138  -1.523  1.00  0.00     0.047 C 
BRANCH   6   7
ATOM      7  C   UNL     1       7.794   0.094  -0.423  1.00  0.00    -0.043 A 
ATOM      8  C   UNL     1       7.754  -0.970   0.464  1.00  0.00     0.008 A 
ATOM      9  C   UNL     1       6.871   1.094  -0.261  1.00  0.00     0.054 A 
ATOM     10  C   UNL     1       6.823  -1.030   1.478  1.00  0.00     0.051 A 
ATOM     11  C   UNL     1       5.928   1.055   0.749  1.00  0.00     0.166 A 
ATOM     12  C   UNL     1       5.901  -0.006   1.621  1.00  0.00     0.165 A 
ATOM     13  O   UNL     1       4.919   1.935   1.097  1.00  0.00    -0.454 OA
ATOM     14  O   UNL     1       4.855   0.234   2.515  1.00  0.00    -0.454 OA
ATOM     15  C   UNL     1       4.041   1.271   2.018  1.00  0.00     0.468 C 
ENDBRANCH   6   7
ENDBRANCH   1   6
TORSDOF 4
ENDMDL
