@<TRIPOS>MOLECULE
/home/cewinharhar/GITHUB/reincatalyze/data/processed/docking_pred/2023-May-17-1006_maxeplen10_maxtrainstep1000_seadep16_gamma099_lrac9e-4_lrcr1e-3_sub6/034cecc51265c6b10d0b2cc1c9f67b1ec6b5e3be_ligand_6.pdbqt
 15 16 0 0 0
SMALL
GASTEIGER

@<TRIPOS>ATOM
      1  C          5.4350    2.8680    0.1570 C.3     1  UNL1        0.1270
      2  C          6.2990    3.8240    0.8320 C.2     1  UNL1        0.3030
      3  O          6.8720    4.7750    0.2970 O.2     1  UNL1       -0.2520
      4  O          6.4970    3.6520    2.2110 O.3     1  UNL1       -0.4810
      5  H          7.3570    3.2020    2.4840 H       1  UNL1        0.2960
      6  C          5.3580    1.5520    0.8260 C.3     1  UNL1        0.0470
      7  C          6.1220    0.4480    0.2400 C.2     1  UNL1       -0.0430
      8  C          6.5220   -0.6400    1.0000 C.2     1  UNL1        0.0080
      9  C          6.4990    0.4790   -1.0760 C.2     1  UNL1        0.0540
     10  C          7.2710   -1.6610    0.4590 C.2     1  UNL1        0.0510
     11  C          7.2500   -0.5340   -1.6410 C.2     1  UNL1        0.1660
     12  C          7.6380   -1.6080   -0.8760 C.2     1  UNL1        0.1650
     13  O          7.7360   -0.7120   -2.9240 O.2     1  UNL1       -0.4540
     14  O          8.3730   -2.4520   -1.7100 O.2     1  UNL1       -0.4540
     15  C          8.7090   -1.7670   -2.8940 C.3     1  UNL1        0.4680
@<TRIPOS>BOND
     1    13    15    1
     2    13    11    1
     3    15    14    1
     4    14    12    1
     5    11     9    1
     6    11    12    2
     7     9     7    2
     8    12    10    1
     9     1     6    1
    10     1     2    1
    11     7     6    1
    12     7     8    1
    13     3     2    2
    14    10     8    2
    15     2     4    1
    16     4     5    1
