@<TRIPOS>MOLECULE
/home/cewinharhar/GITHUB/reincatalyze/data/processed/docking_pred/2023-May-17-1006_maxeplen10_maxtrainstep1000_seadep16_gamma099_lrac9e-4_lrcr1e-3_sub6/035d1107efb5fe3e99d2a33353f0da4e413613a6_ligand_6.pdbqt
 15 16 0 0 0
SMALL
GASTEIGER

@<TRIPOS>ATOM
      1  C          8.1040   -1.4530   -2.5080 C.3     1  UNL1        0.1270
      2  C          8.7950   -0.1830   -2.3520 C.2     1  UNL1        0.3030
      3  O          9.8400   -0.0070   -1.7230 O.2     1  UNL1       -0.2520
      4  O          8.2250    0.9410   -2.9710 O.3     1  UNL1       -0.4810
      5  H          7.8760    0.8050   -3.9070 H       1  UNL1        0.2960
      6  C          7.9410   -2.2060   -1.2460 C.3     1  UNL1        0.0470
      7  C          7.2480   -1.5370   -0.1430 C.2     1  UNL1       -0.0430
      8  C          7.2930   -2.0370    1.1500 C.2     1  UNL1        0.0080
      9  C          6.4990   -0.4130   -0.3660 C.2     1  UNL1        0.0540
     10  C          6.6120   -1.4290    2.1810 C.2     1  UNL1        0.0510
     11  C          5.8080    0.2140    0.6540 C.2     1  UNL1        0.1660
     12  C          5.8620   -0.2920    1.9310 C.2     1  UNL1        0.1650
     13  O          5.0030    1.3400    0.6620 O.2     1  UNL1       -0.4540
     14  O          5.0760    0.5420    2.7280 O.2     1  UNL1       -0.4540
     15  C          4.2880    1.3720    1.9060 C.3     1  UNL1        0.4680
@<TRIPOS>BOND
     1     5     4    1
     2     4     2    1
     3     1     2    1
     4     1     6    1
     5     2     3    2
     6     6     7    1
     7     9     7    2
     8     9    11    1
     9     7     8    1
    10    11    13    1
    11    11    12    2
    12    13    15    1
    13     8    10    2
    14    15    14    1
    15    12    10    1
    16    12    14    1
