@<TRIPOS>MOLECULE
/home/cewinharhar/GITHUB/reincatalyze/data/processed/docking_pred/2023-May-17-1006_maxeplen10_maxtrainstep1000_seadep16_gamma099_lrac9e-4_lrcr1e-3_sub6/035d1107efb5fe3e99d2a33353f0da4e413613a6_ligand_6.pdbqt
 15 16 0 0 0
SMALL
GASTEIGER

@<TRIPOS>ATOM
      1  C          5.1050    0.0300    2.0110 C.3     1  UNL1        0.1270
      2  C          4.4700    1.3380    1.9730 C.2     1  UNL1        0.3030
      3  O          4.8900    2.3210    1.3610 O.2     1  UNL1       -0.2520
      4  O          3.2770    1.4960    2.6950 O.3     1  UNL1       -0.4810
      5  H          2.9680    0.6960    3.2260 H       1  UNL1        0.2960
      6  C          6.5620    0.0620    1.7620 C.3     1  UNL1        0.0470
      7  C          7.0890   -0.8070    0.7080 C.2     1  UNL1       -0.0430
      8  C          6.8780   -0.5290   -0.6340 C.2     1  UNL1        0.0080
      9  C          7.7770   -1.9490    1.0210 C.2     1  UNL1        0.0540
     10  C          7.3420   -1.3650   -1.6250 C.2     1  UNL1        0.0510
     11  C          8.2520   -2.8030    0.0430 C.2     1  UNL1        0.1660
     12  C          8.0370   -2.5140   -1.2830 C.2     1  UNL1        0.1650
     13  O          8.9600   -3.9890    0.1240 O.2     1  UNL1       -0.4540
     14  O          8.6240   -3.5430   -2.0200 O.2     1  UNL1       -0.4540
     15  C          8.9260   -4.6210   -1.1650 C.3     1  UNL1        0.4680
@<TRIPOS>BOND
     1    14    12    1
     2    14    15    1
     3    10    12    2
     4    10     8    1
     5    12    11    1
     6    15    13    1
     7     8     7    2
     8    11    13    1
     9    11     9    2
    10     7     9    1
    11     7     6    1
    12     3     2    2
    13     6     1    1
    14     2     1    1
    15     2     4    1
    16     4     5    1
