@<TRIPOS>MOLECULE
/home/cewinharhar/GITHUB/reincatalyze/data/processed/docking_pred/2023-May-17-1006_maxeplen10_maxtrainstep1000_seadep16_gamma099_lrac9e-4_lrcr1e-3_sub6/035d1107efb5fe3e99d2a33353f0da4e413613a6_ligand_6.pdbqt
 15 16 0 0 0
SMALL
GASTEIGER

@<TRIPOS>ATOM
      1  C          5.8460    1.0000    2.2390 C.3     1  UNL1        0.1270
      2  C          4.6160    1.6700    1.8430 C.2     1  UNL1        0.3030
      3  O          4.4810    2.3950    0.8560 O.2     1  UNL1       -0.2520
      4  O          3.4870    1.4750    2.6540 O.3     1  UNL1       -0.4810
      5  H          2.6010    1.7450    2.2550 H       1  UNL1        0.2960
      6  C          5.7840   -0.4740    2.1440 C.3     1  UNL1        0.0470
      7  C          6.5700   -1.1170    1.0890 C.2     1  UNL1       -0.0430
      8  C          7.4570   -2.1450    1.3710 C.2     1  UNL1        0.0080
      9  C          6.4800   -0.6920   -0.2100 C.2     1  UNL1        0.0540
     10  C          8.2230   -2.7270    0.3850 C.2     1  UNL1        0.0510
     11  C          7.2390   -1.2610   -1.2150 C.2     1  UNL1        0.1660
     12  C          8.1120   -2.2800   -0.9210 C.2     1  UNL1        0.1650
     13  O          7.3110   -0.9990   -2.5720 O.2     1  UNL1       -0.4540
     14  O          8.7260   -2.6430   -2.1210 O.2     1  UNL1       -0.4540
     15  C          8.4760   -1.6560   -3.0950 C.3     1  UNL1        0.4680
@<TRIPOS>BOND
     1    15    13    1
     2    15    14    1
     3    13    11    1
     4    14    12    1
     5    11    12    2
     6    11     9    1
     7    12    10    1
     8     9     7    2
     9    10     8    2
    10     3     2    2
    11     7     8    1
    12     7     6    1
    13     2     1    1
    14     2     4    1
    15     6     1    1
    16     5     4    1
