@<TRIPOS>MOLECULE
/home/cewinharhar/GITHUB/reincatalyze/data/processed/docking_pred/2023-May-17-1006_maxeplen10_maxtrainstep1000_seadep16_gamma099_lrac9e-4_lrcr1e-3_sub6/035d1107efb5fe3e99d2a33353f0da4e413613a6_ligand_6.pdbqt
 15 16 0 0 0
SMALL
GASTEIGER

@<TRIPOS>ATOM
      1  C          8.1930   -1.4600   -2.6150 C.3     1  UNL1        0.1270
      2  C          8.7490   -0.1270   -2.4420 C.2     1  UNL1        0.3030
      3  O          8.2820    0.9120   -2.9110 O.2     1  UNL1       -0.2520
      4  O          9.9190   -0.0120   -1.6740 O.3     1  UNL1       -0.4810
      5  H          9.8250    0.4610   -0.7880 H       1  UNL1        0.2960
      6  C          8.0760   -2.2300   -1.3580 C.3     1  UNL1        0.0470
      7  C          7.3500   -1.6090   -0.2490 C.2     1  UNL1       -0.0430
      8  C          7.3730   -2.1520    1.0270 C.2     1  UNL1        0.0080
      9  C          6.5900   -0.4870   -0.4500 C.2     1  UNL1        0.0540
     10  C          6.6610   -1.5890    2.0630 C.2     1  UNL1        0.0510
     11  C          5.8680    0.0950    0.5750 C.2     1  UNL1        0.1660
     12  C          5.9010   -0.4540    1.8350 C.2     1  UNL1        0.1650
     13  O          5.0480    1.2090    0.6040 O.2     1  UNL1       -0.4540
     14  O          5.0860    0.3420    2.6420 O.2     1  UNL1       -0.4540
     15  C          4.3050    1.1890    1.8320 C.3     1  UNL1        0.4680
@<TRIPOS>BOND
     1     3     2    2
     2     1     2    1
     3     1     6    1
     4     2     4    1
     5     4     5    1
     6     6     7    1
     7     9     7    2
     8     9    11    1
     9     7     8    1
    10    11    13    1
    11    11    12    2
    12    13    15    1
    13     8    10    2
    14    15    14    1
    15    12    10    1
    16    12    14    1
