MODEL 1
REMARK VINA RESULT:      -7.9      0.000      0.000
REMARK SMILES O=C(O)CCc1ccc2c(c1)OCO2
REMARK SMILES IDX 4 1 2 2 1 3 3 4 5 6 6 7 7 8 11 9 8 10 10 11 9 12 12 13 14 14
REMARK SMILES IDX 13 15
REMARK H PARENT 3 5
REMARK Flexibility Score: inf
ROOT
ATOM      1  C   UNL     1       5.105   0.030   2.011  1.00  0.00     0.127 C 
ENDROOT
BRANCH   1   2
ATOM      2  C   UNL     1       4.470   1.338   1.973  1.00  0.00     0.303 C 
ATOM      3  O   UNL     1       4.890   2.321   1.361  1.00  0.00    -0.252 OA
BRANCH   2   4
ATOM      4  O   UNL     1       3.277   1.496   2.695  1.00  0.00    -0.481 OA
ATOM      5  H   UNL     1       2.968   0.696   3.226  1.00  0.00     0.296 HD
ENDBRANCH   2   4
ENDBRANCH   1   2
BRANCH   1   6
ATOM      6  C   UNL     1       6.562   0.062   1.762  1.00  0.00     0.047 C 
BRANCH   6   7
ATOM      7  C   UNL     1       7.089  -0.807   0.708  1.00  0.00    -0.043 A 
ATOM      8  C   UNL     1       6.878  -0.529  -0.634  1.00  0.00     0.008 A 
ATOM      9  C   UNL     1       7.777  -1.949   1.021  1.00  0.00     0.054 A 
ATOM     10  C   UNL     1       7.342  -1.365  -1.625  1.00  0.00     0.051 A 
ATOM     11  C   UNL     1       8.252  -2.803   0.043  1.00  0.00     0.166 A 
ATOM     12  C   UNL     1       8.037  -2.514  -1.283  1.00  0.00     0.165 A 
ATOM     13  O   UNL     1       8.960  -3.989   0.124  1.00  0.00    -0.454 OA
ATOM     14  O   UNL     1       8.624  -3.543  -2.020  1.00  0.00    -0.454 OA
ATOM     15  C   UNL     1       8.926  -4.621  -1.165  1.00  0.00     0.468 C 
ENDBRANCH   6   7
ENDBRANCH   1   6
TORSDOF 4
ENDMDL
MODEL 2
REMARK VINA RESULT:      -7.7      1.133      2.066
REMARK SMILES O=C(O)CCc1ccc2c(c1)OCO2
REMARK SMILES IDX 4 1 2 2 1 3 3 4 5 6 6 7 7 8 11 9 8 10 10 11 9 12 12 13 14 14
REMARK SMILES IDX 13 15
REMARK H PARENT 3 5
REMARK Flexibility Score: inf
ROOT
ATOM      1  C   UNL     1       5.846   1.000   2.239  1.00  0.00     0.127 C 
ENDROOT
BRANCH   1   2
ATOM      2  C   UNL     1       4.616   1.670   1.843  1.00  0.00     0.303 C 
ATOM      3  O   UNL     1       4.481   2.395   0.856  1.00  0.00    -0.252 OA
BRANCH   2   4
ATOM      4  O   UNL     1       3.487   1.475   2.654  1.00  0.00    -0.481 OA
ATOM      5  H   UNL     1       2.601   1.745   2.255  1.00  0.00     0.296 HD
ENDBRANCH   2   4
ENDBRANCH   1   2
BRANCH   1   6
ATOM      6  C   UNL     1       5.784  -0.474   2.144  1.00  0.00     0.047 C 
BRANCH   6   7
ATOM      7  C   UNL     1       6.570  -1.117   1.089  1.00  0.00    -0.043 A 
ATOM      8  C   UNL     1       7.457  -2.145   1.371  1.00  0.00     0.008 A 
ATOM      9  C   UNL     1       6.480  -0.692  -0.210  1.00  0.00     0.054 A 
ATOM     10  C   UNL     1       8.223  -2.727   0.385  1.00  0.00     0.051 A 
ATOM     11  C   UNL     1       7.239  -1.261  -1.215  1.00  0.00     0.166 A 
ATOM     12  C   UNL     1       8.112  -2.280  -0.921  1.00  0.00     0.165 A 
ATOM     13  O   UNL     1       7.311  -0.999  -2.572  1.00  0.00    -0.454 OA
ATOM     14  O   UNL     1       8.726  -2.643  -2.121  1.00  0.00    -0.454 OA
ATOM     15  C   UNL     1       8.476  -1.656  -3.095  1.00  0.00     0.468 C 
ENDBRANCH   6   7
ENDBRANCH   1   6
TORSDOF 4
ENDMDL
MODEL 3
REMARK VINA RESULT:      -6.1      1.948      5.412
REMARK SMILES O=C(O)CCc1ccc2c(c1)OCO2
REMARK SMILES IDX 4 1 2 2 1 3 3 4 5 6 6 7 7 8 11 9 8 10 10 11 9 12 12 13 14 14
REMARK SMILES IDX 13 15
REMARK H PARENT 3 5
REMARK Flexibility Score: inf
ROOT
ATOM      1  C   UNL     1       8.104  -1.453  -2.508  1.00  0.00     0.127 C 
ENDROOT
BRANCH   1   2
ATOM      2  C   UNL     1       8.795  -0.183  -2.352  1.00  0.00     0.303 C 
ATOM      3  O   UNL     1       9.840  -0.007  -1.723  1.00  0.00    -0.252 OA
BRANCH   2   4
ATOM      4  O   UNL     1       8.225   0.941  -2.971  1.00  0.00    -0.481 OA
ATOM      5  H   UNL     1       7.876   0.805  -3.907  1.00  0.00     0.296 HD
ENDBRANCH   2   4
ENDBRANCH   1   2
BRANCH   1   6
ATOM      6  C   UNL     1       7.941  -2.206  -1.246  1.00  0.00     0.047 C 
BRANCH   6   7
ATOM      7  C   UNL     1       7.248  -1.537  -0.143  1.00  0.00    -0.043 A 
ATOM      8  C   UNL     1       7.293  -2.037   1.150  1.00  0.00     0.008 A 
ATOM      9  C   UNL     1       6.499  -0.413  -0.366  1.00  0.00     0.054 A 
ATOM     10  C   UNL     1       6.612  -1.429   2.181  1.00  0.00     0.051 A 
ATOM     11  C   UNL     1       5.808   0.214   0.654  1.00  0.00     0.166 A 
ATOM     12  C   UNL     1       5.862  -0.292   1.931  1.00  0.00     0.165 A 
ATOM     13  O   UNL     1       5.003   1.340   0.662  1.00  0.00    -0.454 OA
ATOM     14  O   UNL     1       5.076   0.542   2.728  1.00  0.00    -0.454 OA
ATOM     15  C   UNL     1       4.288   1.372   1.906  1.00  0.00     0.468 C 
ENDBRANCH   6   7
ENDBRANCH   1   6
TORSDOF 4
ENDMDL
