@<TRIPOS>MOLECULE
/home/cewinharhar/GITHUB/reincatalyze/data/processed/docking_pred/2023-May-17-1006_maxeplen10_maxtrainstep1000_seadep16_gamma099_lrac9e-4_lrcr1e-3_sub6/04093ca98f76925b46d8e425639cb467aa73d951_ligand_6.pdbqt
 15 16 0 0 0
SMALL
GASTEIGER

@<TRIPOS>ATOM
      1  C          5.4210    2.8710    0.1170 C.3     1  UNL1        0.1270
      2  C          6.2540    3.8580    0.7860 C.2     1  UNL1        0.3030
      3  O          6.9070    4.7420    0.2280 O.2     1  UNL1       -0.2520
      4  O          6.3230    3.8000    2.1870 O.3     1  UNL1       -0.4810
      5  H          5.9010    2.9930    2.6210 H       1  UNL1        0.2960
      6  C          5.3640    1.5650    0.8090 C.3     1  UNL1        0.0470
      7  C          6.1370    0.4610    0.2360 C.2     1  UNL1       -0.0430
      8  C          6.5850   -0.5930    1.0180 C.2     1  UNL1        0.0080
      9  C          6.4750    0.4570   -1.0910 C.2     1  UNL1        0.0540
     10  C          7.3420   -1.6130    0.4880 C.2     1  UNL1        0.0510
     11  C          7.2330   -0.5560   -1.6450 C.2     1  UNL1        0.1660
     12  C          7.6690   -1.5950   -0.8580 C.2     1  UNL1        0.1650
     13  O          7.6860   -0.7650   -2.9360 O.2     1  UNL1       -0.4540
     14  O          8.3990   -2.4490   -1.6860 O.2     1  UNL1       -0.4540
     15  C          8.6840   -1.7960   -2.9020 C.3     1  UNL1        0.4680
@<TRIPOS>BOND
     1    13    15    1
     2    13    11    1
     3    15    14    1
     4    14    12    1
     5    11     9    1
     6    11    12    2
     7     9     7    2
     8    12    10    1
     9     1     2    1
    10     1     6    1
    11     3     2    2
    12     7     6    1
    13     7     8    1
    14    10     8    2
    15     2     4    1
    16     4     5    1
