@<TRIPOS>MOLECULE
/home/cewinharhar/GITHUB/reincatalyze/data/processed/docking_pred/2023-May-17-1006_maxeplen10_maxtrainstep1000_seadep16_gamma099_lrac9e-4_lrcr1e-3_sub6/04093ca98f76925b46d8e425639cb467aa73d951_ligand_6.pdbqt
 15 16 0 0 0
SMALL
GASTEIGER

@<TRIPOS>ATOM
      1  C          5.3970    2.8250    0.0800 C.3     1  UNL1        0.1270
      2  C          6.2520    3.7090    0.8560 C.2     1  UNL1        0.3030
      3  O          6.4870    3.6030    2.0610 O.2     1  UNL1       -0.2520
      4  O          6.8630    4.7750    0.1770 O.3     1  UNL1       -0.4810
      5  H          6.9750    4.6620   -0.8190 H       1  UNL1        0.2960
      6  C          5.2850    1.4590    0.6330 C.3     1  UNL1        0.0470
      7  C          6.1650    0.4280    0.0770 C.2     1  UNL1       -0.0430
      8  C          6.5040    0.4140   -1.2670 C.2     1  UNL1        0.0080
      9  C          6.6490   -0.5800    0.8670 C.2     1  UNL1        0.0540
     10  C          7.3020   -0.5750   -1.7990 C.2     1  UNL1        0.0510
     11  C          7.4510   -1.5820    0.3550 C.2     1  UNL1        0.1660
     12  C          7.7810   -1.5830   -0.9790 C.2     1  UNL1        0.1650
     13  O          8.0440   -2.6800    0.9540 O.2     1  UNL1       -0.4540
     14  O          8.5870   -2.7010   -1.1940 O.2     1  UNL1       -0.4540
     15  C          8.5060   -3.5620   -0.0810 C.3     1  UNL1        0.4680
@<TRIPOS>BOND
     1    10     8    1
     2    10    12    2
     3     8     7    2
     4    14    12    1
     5    14    15    1
     6    12    11    1
     7     5     4    1
     8    15    13    1
     9     7     6    1
    10     7     9    1
    11     1     6    1
    12     1     2    1
    13     4     2    1
    14    11     9    2
    15    11    13    1
    16     2     3    2
