@<TRIPOS>MOLECULE
/home/cewinharhar/GITHUB/reincatalyze/data/processed/docking_pred/2023-May-17-1006_maxeplen10_maxtrainstep1000_seadep16_gamma099_lrac9e-4_lrcr1e-3_sub6/04093ca98f76925b46d8e425639cb467aa73d951_ligand_6.pdbqt
 15 16 0 0 0
SMALL
GASTEIGER

@<TRIPOS>ATOM
      1  C          4.6800    1.8780    0.6710 C.3     1  UNL1        0.1270
      2  C          4.3970    1.1760    1.9130 C.2     1  UNL1        0.3030
      3  O          5.1410    0.3620    2.4620 O.2     1  UNL1       -0.2520
      4  O          3.1710    1.4470    2.5410 O.3     1  UNL1       -0.4810
      5  H          2.5000    0.6950    2.5500 H       1  UNL1        0.2960
      6  C          6.0990    2.2600    0.5080 C.3     1  UNL1        0.0470
      7  C          6.9620    1.3540   -0.2530 C.2     1  UNL1       -0.0430
      8  C          8.3220    1.5870   -0.3830 C.2     1  UNL1        0.0080
      9  C          6.4380    0.2640   -0.8950 C.2     1  UNL1        0.0540
     10  C          9.1290    0.7560   -1.1280 C.2     1  UNL1        0.0510
     11  C          7.2280   -0.5850   -1.6480 C.2     1  UNL1        0.1660
     12  C          8.5750   -0.3420   -1.7670 C.2     1  UNL1        0.1650
     13  O          6.9230   -1.7250   -2.3700 O.2     1  UNL1       -0.4540
     14  O          9.0970   -1.3530   -2.5760 O.2     1  UNL1       -0.4540
     15  C          8.0430   -2.0370   -3.2120 C.3     1  UNL1        0.4680
@<TRIPOS>BOND
     1    15    14    1
     2    15    13    1
     3    14    12    1
     4    13    11    1
     5    12    11    2
     6    12    10    1
     7    11     9    1
     8    10     8    2
     9     9     7    2
    10     8     7    1
    11     7     6    1
    12     6     1    1
    13     1     2    1
    14     2     3    2
    15     2     4    1
    16     4     5    1
