@<TRIPOS>MOLECULE
/home/cewinharhar/GITHUB/reincatalyze/data/processed/docking_pred/2023-May-17-1006_maxeplen10_maxtrainstep1000_seadep16_gamma099_lrac9e-4_lrcr1e-3_sub6/04093ca98f76925b46d8e425639cb467aa73d951_ligand_6.pdbqt
 15 16 0 0 0
SMALL
GASTEIGER

@<TRIPOS>ATOM
      1  C          6.3840    1.3360    0.6230 C.3     1  UNL1        0.1270
      2  C          5.1890    1.3100    1.4510 C.2     1  UNL1        0.3030
      3  O          4.2540    2.1100    1.3870 O.2     1  UNL1       -0.2520
      4  O          5.0890    0.2860    2.4060 O.3     1  UNL1       -0.4810
      5  H          5.3240    0.5370    3.3540 H       1  UNL1        0.2960
      6  C          6.1670    0.8600   -0.7600 C.3     1  UNL1        0.0470
      7  C          6.9460   -0.2970   -1.2070 C.2     1  UNL1       -0.0430
      8  C          7.2760   -0.4760   -2.5420 C.2     1  UNL1        0.0080
      9  C          7.3400   -1.2620   -0.3190 C.2     1  UNL1        0.0540
     10  C          7.9770   -1.5820   -2.9700 C.2     1  UNL1        0.0510
     11  C          8.0450   -2.3790   -0.7250 C.2     1  UNL1        0.1660
     12  C          8.3660   -2.5430   -2.0510 C.2     1  UNL1        0.1650
     13  O          8.5390   -3.4620   -0.0180 O.2     1  UNL1       -0.4540
     14  O          9.0660   -3.7460   -2.1510 O.2     1  UNL1       -0.4540
     15  C          8.9120   -4.4800   -0.9580 C.3     1  UNL1        0.4680
@<TRIPOS>BOND
     1    10     8    1
     2    10    12    2
     3     8     7    2
     4    14    12    1
     5    14    15    1
     6    12    11    1
     7     7     6    1
     8     7     9    1
     9    15    13    1
    10     6     1    1
    11    11     9    2
    12    11    13    1
    13     1     2    1
    14     3     2    2
    15     2     4    1
    16     4     5    1
