MODEL 1
REMARK VINA RESULT:      -7.7      0.000      0.000
REMARK SMILES O=C(O)CCc1ccc2c(c1)OCO2
REMARK SMILES IDX 4 1 2 2 1 3 3 4 5 6 6 7 7 8 11 9 8 10 10 11 9 12 12 13 14 14
REMARK SMILES IDX 13 15
REMARK H PARENT 3 5
REMARK Flexibility Score: inf
ROOT
ATOM      1  C   UNL     1       5.421   2.871   0.117  1.00  0.00     0.127 C 
ENDROOT
BRANCH   1   2
ATOM      2  C   UNL     1       6.254   3.858   0.786  1.00  0.00     0.303 C 
ATOM      3  O   UNL     1       6.907   4.742   0.228  1.00  0.00    -0.252 OA
BRANCH   2   4
ATOM      4  O   UNL     1       6.323   3.800   2.187  1.00  0.00    -0.481 OA
ATOM      5  H   UNL     1       5.901   2.993   2.621  1.00  0.00     0.296 HD
ENDBRANCH   2   4
ENDBRANCH   1   2
BRANCH   1   6
ATOM      6  C   UNL     1       5.364   1.565   0.809  1.00  0.00     0.047 C 
BRANCH   6   7
ATOM      7  C   UNL     1       6.137   0.461   0.236  1.00  0.00    -0.043 A 
ATOM      8  C   UNL     1       6.585  -0.593   1.018  1.00  0.00     0.008 A 
ATOM      9  C   UNL     1       6.475   0.457  -1.091  1.00  0.00     0.054 A 
ATOM     10  C   UNL     1       7.342  -1.613   0.488  1.00  0.00     0.051 A 
ATOM     11  C   UNL     1       7.233  -0.556  -1.645  1.00  0.00     0.166 A 
ATOM     12  C   UNL     1       7.669  -1.595  -0.858  1.00  0.00     0.165 A 
ATOM     13  O   UNL     1       7.686  -0.765  -2.936  1.00  0.00    -0.454 OA
ATOM     14  O   UNL     1       8.399  -2.449  -1.686  1.00  0.00    -0.454 OA
ATOM     15  C   UNL     1       8.684  -1.796  -2.902  1.00  0.00     0.468 C 
ENDBRANCH   6   7
ENDBRANCH   1   6
TORSDOF 4
ENDMDL
MODEL 2
REMARK VINA RESULT:      -7.6      2.122      2.518
REMARK SMILES O=C(O)CCc1ccc2c(c1)OCO2
REMARK SMILES IDX 4 1 2 2 1 3 3 4 5 6 6 7 7 8 11 9 8 10 10 11 9 12 12 13 14 14
REMARK SMILES IDX 13 15
REMARK H PARENT 3 5
REMARK Flexibility Score: inf
ROOT
ATOM      1  C   UNL     1       4.680   1.878   0.671  1.00  0.00     0.127 C 
ENDROOT
BRANCH   1   2
ATOM      2  C   UNL     1       4.397   1.176   1.913  1.00  0.00     0.303 C 
ATOM      3  O   UNL     1       5.141   0.362   2.462  1.00  0.00    -0.252 OA
BRANCH   2   4
ATOM      4  O   UNL     1       3.171   1.447   2.541  1.00  0.00    -0.481 OA
ATOM      5  H   UNL     1       2.500   0.695   2.550  1.00  0.00     0.296 HD
ENDBRANCH   2   4
ENDBRANCH   1   2
BRANCH   1   6
ATOM      6  C   UNL     1       6.099   2.260   0.508  1.00  0.00     0.047 C 
BRANCH   6   7
ATOM      7  C   UNL     1       6.962   1.354  -0.253  1.00  0.00    -0.043 A 
ATOM      8  C   UNL     1       8.322   1.587  -0.383  1.00  0.00     0.008 A 
ATOM      9  C   UNL     1       6.438   0.264  -0.895  1.00  0.00     0.054 A 
ATOM     10  C   UNL     1       9.129   0.756  -1.128  1.00  0.00     0.051 A 
ATOM     11  C   UNL     1       7.228  -0.585  -1.648  1.00  0.00     0.166 A 
ATOM     12  C   UNL     1       8.575  -0.342  -1.767  1.00  0.00     0.165 A 
ATOM     13  O   UNL     1       6.923  -1.725  -2.370  1.00  0.00    -0.454 OA
ATOM     14  O   UNL     1       9.097  -1.353  -2.576  1.00  0.00    -0.454 OA
ATOM     15  C   UNL     1       8.043  -2.037  -3.212  1.00  0.00     0.468 C 
ENDBRANCH   6   7
ENDBRANCH   1   6
TORSDOF 4
ENDMDL
MODEL 3
REMARK VINA RESULT:      -7.5      1.805      5.280
REMARK SMILES O=C(O)CCc1ccc2c(c1)OCO2
REMARK SMILES IDX 4 1 2 2 1 3 3 4 5 6 6 7 7 8 11 9 8 10 10 11 9 12 12 13 14 14
REMARK SMILES IDX 13 15
REMARK H PARENT 3 5
REMARK Flexibility Score: inf
ROOT
ATOM      1  C   UNL     1       8.300  -0.312  -2.839  1.00  0.00     0.127 C 
ENDROOT
BRANCH   1   2
ATOM      2  C   UNL     1       8.465  -1.740  -3.062  1.00  0.00     0.303 C 
ATOM      3  O   UNL     1       9.533  -2.354  -3.020  1.00  0.00    -0.252 OA
BRANCH   2   4
ATOM      4  O   UNL     1       7.311  -2.485  -3.350  1.00  0.00    -0.481 OA
ATOM      5  H   UNL     1       7.017  -3.142  -2.644  1.00  0.00     0.296 HD
ENDBRANCH   2   4
ENDBRANCH   1   2
BRANCH   1   6
ATOM      6  C   UNL     1       8.762   0.145  -1.510  1.00  0.00     0.047 C 
BRANCH   6   7
ATOM      7  C   UNL     1       7.796   0.111  -0.409  1.00  0.00    -0.043 A 
ATOM      8  C   UNL     1       7.768  -0.938   0.497  1.00  0.00     0.008 A 
ATOM      9  C   UNL     1       6.862   1.102  -0.266  1.00  0.00     0.054 A 
ATOM     10  C   UNL     1       6.838  -0.989   1.511  1.00  0.00     0.051 A 
ATOM     11  C   UNL     1       5.920   1.071   0.744  1.00  0.00     0.166 A 
ATOM     12  C   UNL     1       5.904   0.026   1.636  1.00  0.00     0.165 A 
ATOM     13  O   UNL     1       4.900   1.946   1.076  1.00  0.00    -0.454 OA
ATOM     14  O   UNL     1       4.856   0.271   2.525  1.00  0.00    -0.454 OA
ATOM     15  C   UNL     1       4.029   1.288   2.009  1.00  0.00     0.468 C 
ENDBRANCH   6   7
ENDBRANCH   1   6
TORSDOF 4
ENDMDL
MODEL 4
REMARK VINA RESULT:      -7.5      1.957      2.867
REMARK SMILES O=C(O)CCc1ccc2c(c1)OCO2
REMARK SMILES IDX 4 1 2 2 1 3 3 4 5 6 6 7 7 8 11 9 8 10 10 11 9 12 12 13 14 14
REMARK SMILES IDX 13 15
REMARK H PARENT 3 5
REMARK Flexibility Score: inf
ROOT
ATOM      1  C   UNL     1       6.384   1.336   0.623  1.00  0.00     0.127 C 
ENDROOT
BRANCH   1   2
ATOM      2  C   UNL     1       5.189   1.310   1.451  1.00  0.00     0.303 C 
ATOM      3  O   UNL     1       4.254   2.110   1.387  1.00  0.00    -0.252 OA
BRANCH   2   4
ATOM      4  O   UNL     1       5.089   0.286   2.406  1.00  0.00    -0.481 OA
ATOM      5  H   UNL     1       5.324   0.537   3.354  1.00  0.00     0.296 HD
ENDBRANCH   2   4
ENDBRANCH   1   2
BRANCH   1   6
ATOM      6  C   UNL     1       6.167   0.860  -0.760  1.00  0.00     0.047 C 
BRANCH   6   7
ATOM      7  C   UNL     1       6.946  -0.297  -1.207  1.00  0.00    -0.043 A 
ATOM      8  C   UNL     1       7.276  -0.476  -2.542  1.00  0.00     0.008 A 
ATOM      9  C   UNL     1       7.340  -1.262  -0.319  1.00  0.00     0.054 A 
ATOM     10  C   UNL     1       7.977  -1.582  -2.970  1.00  0.00     0.051 A 
ATOM     11  C   UNL     1       8.045  -2.379  -0.725  1.00  0.00     0.166 A 
ATOM     12  C   UNL     1       8.366  -2.543  -2.051  1.00  0.00     0.165 A 
ATOM     13  O   UNL     1       8.539  -3.462  -0.018  1.00  0.00    -0.454 OA
ATOM     14  O   UNL     1       9.066  -3.746  -2.151  1.00  0.00    -0.454 OA
ATOM     15  C   UNL     1       8.912  -4.480  -0.958  1.00  0.00     0.468 C 
ENDBRANCH   6   7
ENDBRANCH   1   6
TORSDOF 4
ENDMDL
MODEL 5
REMARK VINA RESULT:      -7.5      0.964      2.125
REMARK SMILES O=C(O)CCc1ccc2c(c1)OCO2
REMARK SMILES IDX 4 1 2 2 1 3 3 4 5 6 6 7 7 8 11 9 8 10 10 11 9 12 12 13 14 14
REMARK SMILES IDX 13 15
REMARK H PARENT 3 5
REMARK Flexibility Score: inf
ROOT
ATOM      1  C   UNL     1       5.397   2.825   0.080  1.00  0.00     0.127 C 
ENDROOT
BRANCH   1   2
ATOM      2  C   UNL     1       6.252   3.709   0.856  1.00  0.00     0.303 C 
ATOM      3  O   UNL     1       6.487   3.603   2.061  1.00  0.00    -0.252 OA
BRANCH   2   4
ATOM      4  O   UNL     1       6.863   4.775   0.177  1.00  0.00    -0.481 OA
ATOM      5  H   UNL     1       6.975   4.662  -0.819  1.00  0.00     0.296 HD
ENDBRANCH   2   4
ENDBRANCH   1   2
BRANCH   1   6
ATOM      6  C   UNL     1       5.285   1.459   0.633  1.00  0.00     0.047 C 
BRANCH   6   7
ATOM      7  C   UNL     1       6.165   0.428   0.077  1.00  0.00    -0.043 A 
ATOM      8  C   UNL     1       6.504   0.414  -1.267  1.00  0.00     0.008 A 
ATOM      9  C   UNL     1       6.649  -0.580   0.867  1.00  0.00     0.054 A 
ATOM     10  C   UNL     1       7.302  -0.575  -1.799  1.00  0.00     0.051 A 
ATOM     11  C   UNL     1       7.451  -1.582   0.355  1.00  0.00     0.166 A 
ATOM     12  C   UNL     1       7.781  -1.583  -0.979  1.00  0.00     0.165 A 
ATOM     13  O   UNL     1       8.044  -2.680   0.954  1.00  0.00    -0.454 OA
ATOM     14  O   UNL     1       8.587  -2.701  -1.194  1.00  0.00    -0.454 OA
ATOM     15  C   UNL     1       8.506  -3.562  -0.081  1.00  0.00     0.468 C 
ENDBRANCH   6   7
ENDBRANCH   1   6
TORSDOF 4
ENDMDL
