@<TRIPOS>MOLECULE
/home/cewinharhar/GITHUB/reincatalyze/data/processed/docking_pred/2023-May-17-1006_maxeplen10_maxtrainstep1000_seadep16_gamma099_lrac9e-4_lrcr1e-3_sub6/04093ca98f76925b46d8e425639cb467aa73d951_ligand_6.pdbqt
 15 16 0 0 0
SMALL
GASTEIGER

@<TRIPOS>ATOM
      1  C          8.3000   -0.3120   -2.8390 C.3     1  UNL1        0.1270
      2  C          8.4650   -1.7400   -3.0620 C.2     1  UNL1        0.3030
      3  O          9.5330   -2.3540   -3.0200 O.2     1  UNL1       -0.2520
      4  O          7.3110   -2.4850   -3.3500 O.3     1  UNL1       -0.4810
      5  H          7.0170   -3.1420   -2.6440 H       1  UNL1        0.2960
      6  C          8.7620    0.1450   -1.5100 C.3     1  UNL1        0.0470
      7  C          7.7960    0.1110   -0.4090 C.2     1  UNL1       -0.0430
      8  C          7.7680   -0.9380    0.4970 C.2     1  UNL1        0.0080
      9  C          6.8620    1.1020   -0.2660 C.2     1  UNL1        0.0540
     10  C          6.8380   -0.9890    1.5110 C.2     1  UNL1        0.0510
     11  C          5.9200    1.0710    0.7440 C.2     1  UNL1        0.1660
     12  C          5.9040    0.0260    1.6360 C.2     1  UNL1        0.1650
     13  O          4.9000    1.9460    1.0760 O.2     1  UNL1       -0.4540
     14  O          4.8560    0.2710    2.5250 O.2     1  UNL1       -0.4540
     15  C          4.0290    1.2880    2.0090 C.3     1  UNL1        0.4680
@<TRIPOS>BOND
     1     4     2    1
     2     4     5    1
     3     2     3    2
     4     2     1    1
     5     1     6    1
     6     6     7    1
     7     7     9    2
     8     7     8    1
     9     9    11    1
    10     8    10    2
    11    11    13    1
    12    11    12    2
    13    13    15    1
    14    10    12    1
    15    12    14    1
    16    15    14    1
