@<TRIPOS>MOLECULE
/home/cewinharhar/GITHUB/reincatalyze/data/processed/docking_pred/2023-May-17-1006_maxeplen10_maxtrainstep1000_seadep16_gamma099_lrac9e-4_lrcr1e-3_sub6/0493ae4577fb245076a56c9e7bbbfc493763ce5a_ligand_6.pdbqt
 15 16 0 0 0
SMALL
GASTEIGER

@<TRIPOS>ATOM
      1  C          5.1080    2.7590    0.0820 C.3     1  UNL1        0.1270
      2  C          6.0980    3.6380    0.6840 C.2     1  UNL1        0.3030
      3  O          6.8360    4.4120    0.0720 O.2     1  UNL1       -0.2520
      4  O          6.2260    3.6040    2.0810 O.3     1  UNL1       -0.4810
      5  H          7.1670    3.5720    2.4420 H       1  UNL1        0.2960
      6  C          5.6760    1.5260   -0.5030 C.3     1  UNL1        0.0470
      7  C          6.2880    0.5610    0.4130 C.2     1  UNL1       -0.0430
      8  C          5.6420    0.1470    1.5670 C.2     1  UNL1        0.0080
      9  C          7.5430    0.0660    0.1730 C.2     1  UNL1        0.0540
     10  C          6.2310   -0.7320    2.4480 C.2     1  UNL1        0.0510
     11  C          8.1540   -0.8180    1.0420 C.2     1  UNL1        0.1660
     12  C          7.5000   -1.2200    2.1820 C.2     1  UNL1        0.1650
     13  O          9.3910   -1.4370    1.0050 O.2     1  UNL1       -0.4540
     14  O          8.3560   -2.0990    2.8480 O.2     1  UNL1       -0.4540
     15  C          9.6500   -2.0030    2.2980 C.3     1  UNL1        0.4680
@<TRIPOS>BOND
     1     6     1    1
     2     6     7    1
     3     3     2    2
     4     1     2    1
     5     9     7    2
     6     9    11    1
     7     7     8    1
     8     2     4    1
     9    13    11    1
    10    13    15    1
    11    11    12    2
    12     8    10    2
    13     4     5    1
    14    12    10    1
    15    12    14    1
    16    15    14    1
