@<TRIPOS>MOLECULE
/home/cewinharhar/GITHUB/reincatalyze/data/processed/docking_pred/2023-May-17-1006_maxeplen10_maxtrainstep1000_seadep16_gamma099_lrac9e-4_lrcr1e-3_sub6/0493ae4577fb245076a56c9e7bbbfc493763ce5a_ligand_6.pdbqt
 15 16 0 0 0
SMALL
GASTEIGER

@<TRIPOS>ATOM
      1  C          5.3340    2.8660    0.1310 C.3     1  UNL1        0.1270
      2  C          6.2040    3.8190    0.8020 C.2     1  UNL1        0.3030
      3  O          6.8440    4.7170    0.2510 O.2     1  UNL1       -0.2520
      4  O          6.3270    3.7100    2.1960 O.3     1  UNL1       -0.4810
      5  H          7.2430    3.4760    2.5450 H       1  UNL1        0.2960
      6  C          5.2950    1.5350    0.7740 C.3     1  UNL1        0.0470
      7  C          6.1440    0.4840    0.2080 C.2     1  UNL1       -0.0430
      8  C          6.4190    0.4270   -1.1500 C.2     1  UNL1        0.0080
      9  C          6.6640   -0.5020    1.0050 C.2     1  UNL1        0.0540
     10  C          7.1870   -0.5810   -1.6880 C.2     1  UNL1        0.0510
     11  C          7.4380   -1.5220    0.4860 C.2     1  UNL1        0.1660
     12  C          7.7030   -1.5650   -0.8610 C.2     1  UNL1        0.1650
     13  O          8.0560   -2.6040    1.0890 O.2     1  UNL1       -0.4540
     14  O          8.4960   -2.6930   -1.0800 O.2     1  UNL1       -0.4540
     15  C          8.4650   -3.5180    0.0610 C.3     1  UNL1        0.4680
@<TRIPOS>BOND
     1    10     8    1
     2    10    12    2
     3     8     7    2
     4    14    12    1
     5    14    15    1
     6    12    11    1
     7    15    13    1
     8     1     6    1
     9     1     2    1
    10     7     6    1
    11     7     9    1
    12     3     2    2
    13    11     9    2
    14    11    13    1
    15     2     4    1
    16     4     5    1
