@<TRIPOS>MOLECULE
/home/cewinharhar/GITHUB/reincatalyze/data/processed/docking_pred/2023-May-17-1006_maxeplen10_maxtrainstep1000_seadep16_gamma099_lrac9e-4_lrcr1e-3_sub6/0493ae4577fb245076a56c9e7bbbfc493763ce5a_ligand_6.pdbqt
 15 16 0 0 0
SMALL
GASTEIGER

@<TRIPOS>ATOM
      1  C          6.4190    1.3020    0.7330 C.3     1  UNL1        0.1270
      2  C          5.1770    1.3020    1.4900 C.2     1  UNL1        0.3030
      3  O          4.2570    2.1120    1.3590 O.2     1  UNL1       -0.2520
      4  O          5.0090    0.2950    2.4530 O.3     1  UNL1       -0.4810
      5  H          5.8510   -0.0480    2.8900 H       1  UNL1        0.2960
      6  C          6.2610    0.9000   -0.6810 C.3     1  UNL1        0.0470
      7  C          7.0020   -0.2770   -1.1370 C.2     1  UNL1       -0.0430
      8  C          7.2860   -0.4790   -2.4790 C.2     1  UNL1        0.0080
      9  C          7.4050   -1.2380   -0.2490 C.2     1  UNL1        0.0540
     10  C          7.9520   -1.6040   -2.9140 C.2     1  UNL1        0.0510
     11  C          8.0750   -2.3750   -0.6620 C.2     1  UNL1        0.1660
     12  C          8.3510   -2.5610   -1.9950 C.2     1  UNL1        0.1650
     13  O          8.5680   -3.4580    0.0440 O.2     1  UNL1       -0.4540
     14  O          9.0230   -3.7800   -2.1000 O.2     1  UNL1       -0.4540
     15  C          8.8920   -4.4960   -0.8940 C.3     1  UNL1        0.4680
@<TRIPOS>BOND
     1    10     8    1
     2    10    12    2
     3     8     7    2
     4    14    12    1
     5    14    15    1
     6    12    11    1
     7     7     6    1
     8     7     9    1
     9    15    13    1
    10     6     1    1
    11    11     9    2
    12    11    13    1
    13     1     2    1
    14     3     2    2
    15     2     4    1
    16     4     5    1
