@<TRIPOS>MOLECULE
/home/cewinharhar/GITHUB/reincatalyze/data/processed/docking_pred/2023-May-17-1006_maxeplen10_maxtrainstep1000_seadep16_gamma099_lrac9e-4_lrcr1e-3_sub6/0493ae4577fb245076a56c9e7bbbfc493763ce5a_ligand_6.pdbqt
 15 16 0 0 0
SMALL
GASTEIGER

@<TRIPOS>ATOM
      1  C          5.4180    2.8680    0.1470 C.3     1  UNL1        0.1270
      2  C          6.1700    3.8220    0.9470 C.2     1  UNL1        0.3030
      3  O          6.1920    3.8670    2.1780 O.2     1  UNL1       -0.2520
      4  O          6.9390    4.7740    0.2590 O.3     1  UNL1       -0.4810
      5  H          6.8190    4.8040   -0.7420 H       1  UNL1        0.2960
      6  C          5.2880    1.5330    0.7710 C.3     1  UNL1        0.0470
      7  C          6.0550    0.4330    0.1810 C.2     1  UNL1       -0.0430
      8  C          6.4230   -0.6760    0.9270 C.2     1  UNL1        0.0080
      9  C          6.4650    0.4870   -1.1250 C.2     1  UNL1        0.0540
     10  C          7.1740   -1.6940    0.3840 C.2     1  UNL1        0.0510
     11  C          7.2190   -0.5230   -1.6910 C.2     1  UNL1        0.1660
     12  C          7.5760   -1.6170   -0.9400 C.2     1  UNL1        0.1650
     13  O          7.7360   -0.6800   -2.9660 O.2     1  UNL1       -0.4540
     14  O          8.3230   -2.4520   -1.7730 O.2     1  UNL1       -0.4540
     15  C          8.6960   -1.7460   -2.9330 C.3     1  UNL1        0.4680
@<TRIPOS>BOND
     1    13    15    1
     2    13    11    1
     3    15    14    1
     4    14    12    1
     5    11     9    1
     6    11    12    2
     7     9     7    2
     8    12    10    1
     9     5     4    1
    10     1     6    1
    11     1     2    1
    12     7     6    1
    13     7     8    1
    14     4     2    1
    15    10     8    2
    16     2     3    2
