MODEL 1
REMARK VINA RESULT:      -7.3      0.000      0.000
REMARK SMILES O=C(O)CCc1ccc2c(c1)OCO2
REMARK SMILES IDX 4 1 2 2 1 3 3 4 5 6 6 7 7 8 11 9 8 10 10 11 9 12 12 13 14 14
REMARK SMILES IDX 13 15
REMARK H PARENT 3 5
REMARK Flexibility Score: inf
ROOT
ATOM      1  C   UNL     1       4.683   1.827   0.665  1.00  0.00     0.127 C 
ENDROOT
BRANCH   1   2
ATOM      2  C   UNL     1       4.414   1.133   1.914  1.00  0.00     0.303 C 
ATOM      3  O   UNL     1       5.165   0.325   2.462  1.00  0.00    -0.252 OA
BRANCH   2   4
ATOM      4  O   UNL     1       3.193   1.405   2.552  1.00  0.00    -0.481 OA
ATOM      5  H   UNL     1       2.497   1.880   1.998  1.00  0.00     0.296 HD
ENDBRANCH   2   4
ENDBRANCH   1   2
BRANCH   1   6
ATOM      6  C   UNL     1       6.097   2.224   0.491  1.00  0.00     0.047 C 
BRANCH   6   7
ATOM      7  C   UNL     1       6.965   1.321  -0.267  1.00  0.00    -0.043 A 
ATOM      8  C   UNL     1       8.328   1.551  -0.380  1.00  0.00     0.008 A 
ATOM      9  C   UNL     1       6.446   0.236  -0.922  1.00  0.00     0.054 A 
ATOM     10  C   UNL     1       9.140   0.723  -1.122  1.00  0.00     0.051 A 
ATOM     11  C   UNL     1       7.242  -0.609  -1.672  1.00  0.00     0.166 A 
ATOM     12  C   UNL     1       8.591  -0.369  -1.775  1.00  0.00     0.165 A 
ATOM     13  O   UNL     1       6.942  -1.744  -2.405  1.00  0.00    -0.454 OA
ATOM     14  O   UNL     1       9.119  -1.376  -2.585  1.00  0.00    -0.454 OA
ATOM     15  C   UNL     1       8.070  -2.053  -3.237  1.00  0.00     0.468 C 
ENDBRANCH   6   7
ENDBRANCH   1   6
TORSDOF 4
ENDMDL
MODEL 2
REMARK VINA RESULT:      -7.3      2.132      2.553
REMARK SMILES O=C(O)CCc1ccc2c(c1)OCO2
REMARK SMILES IDX 4 1 2 2 1 3 3 4 5 6 6 7 7 8 11 9 8 10 10 11 9 12 12 13 14 14
REMARK SMILES IDX 13 15
REMARK H PARENT 3 5
REMARK Flexibility Score: inf
ROOT
ATOM      1  C   UNL     1       5.418   2.868   0.147  1.00  0.00     0.127 C 
ENDROOT
BRANCH   1   2
ATOM      2  C   UNL     1       6.170   3.822   0.947  1.00  0.00     0.303 C 
ATOM      3  O   UNL     1       6.192   3.867   2.178  1.00  0.00    -0.252 OA
BRANCH   2   4
ATOM      4  O   UNL     1       6.939   4.774   0.259  1.00  0.00    -0.481 OA
ATOM      5  H   UNL     1       6.819   4.804  -0.742  1.00  0.00     0.296 HD
ENDBRANCH   2   4
ENDBRANCH   1   2
BRANCH   1   6
ATOM      6  C   UNL     1       5.288   1.533   0.771  1.00  0.00     0.047 C 
BRANCH   6   7
ATOM      7  C   UNL     1       6.055   0.433   0.181  1.00  0.00    -0.043 A 
ATOM      8  C   UNL     1       6.423  -0.676   0.927  1.00  0.00     0.008 A 
ATOM      9  C   UNL     1       6.465   0.487  -1.125  1.00  0.00     0.054 A 
ATOM     10  C   UNL     1       7.174  -1.694   0.384  1.00  0.00     0.051 A 
ATOM     11  C   UNL     1       7.219  -0.523  -1.691  1.00  0.00     0.166 A 
ATOM     12  C   UNL     1       7.576  -1.617  -0.940  1.00  0.00     0.165 A 
ATOM     13  O   UNL     1       7.736  -0.680  -2.966  1.00  0.00    -0.454 OA
ATOM     14  O   UNL     1       8.323  -2.452  -1.773  1.00  0.00    -0.454 OA
ATOM     15  C   UNL     1       8.696  -1.746  -2.933  1.00  0.00     0.468 C 
ENDBRANCH   6   7
ENDBRANCH   1   6
TORSDOF 4
ENDMDL
MODEL 3
REMARK VINA RESULT:      -7.2      2.519      2.860
REMARK SMILES O=C(O)CCc1ccc2c(c1)OCO2
REMARK SMILES IDX 4 1 2 2 1 3 3 4 5 6 6 7 7 8 11 9 8 10 10 11 9 12 12 13 14 14
REMARK SMILES IDX 13 15
REMARK H PARENT 3 5
REMARK Flexibility Score: inf
ROOT
ATOM      1  C   UNL     1       5.334   2.866   0.131  1.00  0.00     0.127 C 
ENDROOT
BRANCH   1   2
ATOM      2  C   UNL     1       6.204   3.819   0.802  1.00  0.00     0.303 C 
ATOM      3  O   UNL     1       6.844   4.717   0.251  1.00  0.00    -0.252 OA
BRANCH   2   4
ATOM      4  O   UNL     1       6.327   3.710   2.196  1.00  0.00    -0.481 OA
ATOM      5  H   UNL     1       7.243   3.476   2.545  1.00  0.00     0.296 HD
ENDBRANCH   2   4
ENDBRANCH   1   2
BRANCH   1   6
ATOM      6  C   UNL     1       5.295   1.535   0.774  1.00  0.00     0.047 C 
BRANCH   6   7
ATOM      7  C   UNL     1       6.144   0.484   0.208  1.00  0.00    -0.043 A 
ATOM      8  C   UNL     1       6.419   0.427  -1.150  1.00  0.00     0.008 A 
ATOM      9  C   UNL     1       6.664  -0.502   1.005  1.00  0.00     0.054 A 
ATOM     10  C   UNL     1       7.187  -0.581  -1.688  1.00  0.00     0.051 A 
ATOM     11  C   UNL     1       7.438  -1.522   0.486  1.00  0.00     0.166 A 
ATOM     12  C   UNL     1       7.703  -1.565  -0.861  1.00  0.00     0.165 A 
ATOM     13  O   UNL     1       8.056  -2.604   1.089  1.00  0.00    -0.454 OA
ATOM     14  O   UNL     1       8.496  -2.693  -1.080  1.00  0.00    -0.454 OA
ATOM     15  C   UNL     1       8.465  -3.518   0.061  1.00  0.00     0.468 C 
ENDBRANCH   6   7
ENDBRANCH   1   6
TORSDOF 4
ENDMDL
MODEL 4
REMARK VINA RESULT:      -7.2      1.807      2.435
REMARK SMILES O=C(O)CCc1ccc2c(c1)OCO2
REMARK SMILES IDX 4 1 2 2 1 3 3 4 5 6 6 7 7 8 11 9 8 10 10 11 9 12 12 13 14 14
REMARK SMILES IDX 13 15
REMARK H PARENT 3 5
REMARK Flexibility Score: inf
ROOT
ATOM      1  C   UNL     1       6.419   1.302   0.733  1.00  0.00     0.127 C 
ENDROOT
BRANCH   1   2
ATOM      2  C   UNL     1       5.177   1.302   1.490  1.00  0.00     0.303 C 
ATOM      3  O   UNL     1       4.257   2.112   1.359  1.00  0.00    -0.252 OA
BRANCH   2   4
ATOM      4  O   UNL     1       5.009   0.295   2.453  1.00  0.00    -0.481 OA
ATOM      5  H   UNL     1       5.851  -0.048   2.890  1.00  0.00     0.296 HD
ENDBRANCH   2   4
ENDBRANCH   1   2
BRANCH   1   6
ATOM      6  C   UNL     1       6.261   0.900  -0.681  1.00  0.00     0.047 C 
BRANCH   6   7
ATOM      7  C   UNL     1       7.002  -0.277  -1.137  1.00  0.00    -0.043 A 
ATOM      8  C   UNL     1       7.286  -0.479  -2.479  1.00  0.00     0.008 A 
ATOM      9  C   UNL     1       7.405  -1.238  -0.249  1.00  0.00     0.054 A 
ATOM     10  C   UNL     1       7.952  -1.604  -2.914  1.00  0.00     0.051 A 
ATOM     11  C   UNL     1       8.075  -2.375  -0.662  1.00  0.00     0.166 A 
ATOM     12  C   UNL     1       8.351  -2.561  -1.995  1.00  0.00     0.165 A 
ATOM     13  O   UNL     1       8.568  -3.458   0.044  1.00  0.00    -0.454 OA
ATOM     14  O   UNL     1       9.023  -3.780  -2.100  1.00  0.00    -0.454 OA
ATOM     15  C   UNL     1       8.892  -4.496  -0.894  1.00  0.00     0.468 C 
ENDBRANCH   6   7
ENDBRANCH   1   6
TORSDOF 4
ENDMDL
MODEL 5
REMARK VINA RESULT:      -7.1      2.983      3.786
REMARK SMILES O=C(O)CCc1ccc2c(c1)OCO2
REMARK SMILES IDX 4 1 2 2 1 3 3 4 5 6 6 7 7 8 11 9 8 10 10 11 9 12 12 13 14 14
REMARK SMILES IDX 13 15
REMARK H PARENT 3 5
REMARK Flexibility Score: inf
ROOT
ATOM      1  C   UNL     1       5.108   2.759   0.082  1.00  0.00     0.127 C 
ENDROOT
BRANCH   1   2
ATOM      2  C   UNL     1       6.098   3.638   0.684  1.00  0.00     0.303 C 
ATOM      3  O   UNL     1       6.836   4.412   0.072  1.00  0.00    -0.252 OA
BRANCH   2   4
ATOM      4  O   UNL     1       6.226   3.604   2.081  1.00  0.00    -0.481 OA
ATOM      5  H   UNL     1       7.167   3.572   2.442  1.00  0.00     0.296 HD
ENDBRANCH   2   4
ENDBRANCH   1   2
BRANCH   1   6
ATOM      6  C   UNL     1       5.676   1.526  -0.503  1.00  0.00     0.047 C 
BRANCH   6   7
ATOM      7  C   UNL     1       6.288   0.561   0.413  1.00  0.00    -0.043 A 
ATOM      8  C   UNL     1       5.642   0.147   1.567  1.00  0.00     0.008 A 
ATOM      9  C   UNL     1       7.543   0.066   0.173  1.00  0.00     0.054 A 
ATOM     10  C   UNL     1       6.231  -0.732   2.448  1.00  0.00     0.051 A 
ATOM     11  C   UNL     1       8.154  -0.818   1.042  1.00  0.00     0.166 A 
ATOM     12  C   UNL     1       7.500  -1.220   2.182  1.00  0.00     0.165 A 
ATOM     13  O   UNL     1       9.391  -1.437   1.005  1.00  0.00    -0.454 OA
ATOM     14  O   UNL     1       8.356  -2.099   2.848  1.00  0.00    -0.454 OA
ATOM     15  C   UNL     1       9.650  -2.003   2.298  1.00  0.00     0.468 C 
ENDBRANCH   6   7
ENDBRANCH   1   6
TORSDOF 4
ENDMDL
