MODEL 1
REMARK VINA RESULT:      -7.6      0.000      0.000
REMARK SMILES O=C(O)CCc1ccc2c(c1)OCO2
REMARK SMILES IDX 4 1 2 2 1 3 3 4 5 6 6 7 7 8 11 9 8 10 10 11 9 12 12 13 14 14
REMARK SMILES IDX 13 15
REMARK H PARENT 3 5
REMARK Flexibility Score: inf
ROOT
ATOM      1  C   UNL     1       5.461   2.835   0.098  1.00  0.00     0.127 C 
ENDROOT
BRANCH   1   2
ATOM      2  C   UNL     1       6.220   3.874   0.777  1.00  0.00     0.303 C 
ATOM      3  O   UNL     1       6.899   4.742   0.227  1.00  0.00    -0.252 OA
BRANCH   2   4
ATOM      4  O   UNL     1       6.177   3.890   2.180  1.00  0.00    -0.481 OA
ATOM      5  H   UNL     1       7.050   3.719   2.655  1.00  0.00     0.296 HD
ENDBRANCH   2   4
ENDBRANCH   1   2
BRANCH   1   6
ATOM      6  C   UNL     1       5.434   1.543   0.817  1.00  0.00     0.047 C 
BRANCH   6   7
ATOM      7  C   UNL     1       6.188   0.430   0.237  1.00  0.00    -0.043 A 
ATOM      8  C   UNL     1       6.639  -0.624   1.017  1.00  0.00     0.008 A 
ATOM      9  C   UNL     1       6.503   0.416  -1.095  1.00  0.00     0.054 A 
ATOM     10  C   UNL     1       7.379  -1.654   0.480  1.00  0.00     0.051 A 
ATOM     11  C   UNL     1       7.244  -0.607  -1.656  1.00  0.00     0.166 A 
ATOM     12  C   UNL     1       7.684  -1.645  -0.871  1.00  0.00     0.165 A 
ATOM     13  O   UNL     1       7.673  -0.826  -2.954  1.00  0.00    -0.454 OA
ATOM     14  O   UNL     1       8.393  -2.510  -1.707  1.00  0.00    -0.454 OA
ATOM     15  C   UNL     1       8.663  -1.865  -2.930  1.00  0.00     0.468 C 
ENDBRANCH   6   7
ENDBRANCH   1   6
TORSDOF 4
ENDMDL
MODEL 2
REMARK VINA RESULT:      -7.6      2.139      2.513
REMARK SMILES O=C(O)CCc1ccc2c(c1)OCO2
REMARK SMILES IDX 4 1 2 2 1 3 3 4 5 6 6 7 7 8 11 9 8 10 10 11 9 12 12 13 14 14
REMARK SMILES IDX 13 15
REMARK H PARENT 3 5
REMARK Flexibility Score: inf
ROOT
ATOM      1  C   UNL     1       4.686   1.878   0.669  1.00  0.00     0.127 C 
ENDROOT
BRANCH   1   2
ATOM      2  C   UNL     1       4.389   1.176   1.908  1.00  0.00     0.303 C 
ATOM      3  O   UNL     1       5.121   0.351   2.458  1.00  0.00    -0.252 OA
BRANCH   2   4
ATOM      4  O   UNL     1       3.165   1.462   2.533  1.00  0.00    -0.481 OA
ATOM      5  H   UNL     1       2.335   1.267   1.995  1.00  0.00     0.296 HD
ENDBRANCH   2   4
ENDBRANCH   1   2
BRANCH   1   6
ATOM      6  C   UNL     1       6.109   2.249   0.516  1.00  0.00     0.047 C 
BRANCH   6   7
ATOM      7  C   UNL     1       6.966   1.346  -0.255  1.00  0.00    -0.043 A 
ATOM      8  C   UNL     1       8.326   1.578  -0.391  1.00  0.00     0.008 A 
ATOM      9  C   UNL     1       6.437   0.260  -0.900  1.00  0.00     0.054 A 
ATOM     10  C   UNL     1       9.126   0.749  -1.146  1.00  0.00     0.051 A 
ATOM     11  C   UNL     1       7.221  -0.585  -1.663  1.00  0.00     0.166 A 
ATOM     12  C   UNL     1       8.568  -0.344  -1.788  1.00  0.00     0.165 A 
ATOM     13  O   UNL     1       6.909  -1.721  -2.390  1.00  0.00    -0.454 OA
ATOM     14  O   UNL     1       9.083  -1.351  -2.606  1.00  0.00    -0.454 OA
ATOM     15  C   UNL     1       8.024  -2.030  -3.240  1.00  0.00     0.468 C 
ENDBRANCH   6   7
ENDBRANCH   1   6
TORSDOF 4
ENDMDL
MODEL 3
REMARK VINA RESULT:      -7.5      1.956      2.859
REMARK SMILES O=C(O)CCc1ccc2c(c1)OCO2
REMARK SMILES IDX 4 1 2 2 1 3 3 4 5 6 6 7 7 8 11 9 8 10 10 11 9 12 12 13 14 14
REMARK SMILES IDX 13 15
REMARK H PARENT 3 5
REMARK Flexibility Score: inf
ROOT
ATOM      1  C   UNL     1       6.411   1.324   0.679  1.00  0.00     0.127 C 
ENDROOT
BRANCH   1   2
ATOM      2  C   UNL     1       5.192   1.319   1.472  1.00  0.00     0.303 C 
ATOM      3  O   UNL     1       4.253   2.109   1.349  1.00  0.00    -0.252 OA
BRANCH   2   4
ATOM      4  O   UNL     1       5.071   0.332   2.462  1.00  0.00    -0.481 OA
ATOM      5  H   UNL     1       5.862   0.219   3.077  1.00  0.00     0.296 HD
ENDBRANCH   2   4
ENDBRANCH   1   2
BRANCH   1   6
ATOM      6  C   UNL     1       6.224   0.859  -0.712  1.00  0.00     0.047 C 
BRANCH   6   7
ATOM      7  C   UNL     1       6.979  -0.322  -1.139  1.00  0.00    -0.043 A 
ATOM      8  C   UNL     1       7.278  -0.547  -2.473  1.00  0.00     0.008 A 
ATOM      9  C   UNL     1       7.380  -1.263  -0.228  1.00  0.00     0.054 A 
ATOM     10  C   UNL     1       7.956  -1.675  -2.880  1.00  0.00     0.051 A 
ATOM     11  C   UNL     1       8.061  -2.402  -0.613  1.00  0.00     0.166 A 
ATOM     12  C   UNL     1       8.352  -2.612  -1.939  1.00  0.00     0.165 A 
ATOM     13  O   UNL     1       8.556  -3.468   0.118  1.00  0.00    -0.454 OA
ATOM     14  O   UNL     1       9.035  -3.827  -2.015  1.00  0.00    -0.454 OA
ATOM     15  C   UNL     1       8.896  -4.521  -0.796  1.00  0.00     0.468 C 
ENDBRANCH   6   7
ENDBRANCH   1   6
TORSDOF 4
ENDMDL
MODEL 4
REMARK VINA RESULT:      -7.5      1.803      5.296
REMARK SMILES O=C(O)CCc1ccc2c(c1)OCO2
REMARK SMILES IDX 4 1 2 2 1 3 3 4 5 6 6 7 7 8 11 9 8 10 10 11 9 12 12 13 14 14
REMARK SMILES IDX 13 15
REMARK H PARENT 3 5
REMARK Flexibility Score: inf
ROOT
ATOM      1  C   UNL     1       8.301  -0.318  -2.845  1.00  0.00     0.127 C 
ENDROOT
BRANCH   1   2
ATOM      2  C   UNL     1       8.466  -1.747  -3.064  1.00  0.00     0.303 C 
ATOM      3  O   UNL     1       9.534  -2.360  -3.022  1.00  0.00    -0.252 OA
BRANCH   2   4
ATOM      4  O   UNL     1       7.311  -2.493  -3.348  1.00  0.00    -0.481 OA
ATOM      5  H   UNL     1       7.019  -3.148  -2.639  1.00  0.00     0.296 HD
ENDBRANCH   2   4
ENDBRANCH   1   2
BRANCH   1   6
ATOM      6  C   UNL     1       8.762   0.142  -1.518  1.00  0.00     0.047 C 
BRANCH   6   7
ATOM      7  C   UNL     1       7.799   0.105  -0.415  1.00  0.00    -0.043 A 
ATOM      8  C   UNL     1       7.773  -0.945   0.490  1.00  0.00     0.008 A 
ATOM      9  C   UNL     1       6.863   1.095  -0.269  1.00  0.00     0.054 A 
ATOM     10  C   UNL     1       6.845  -1.000   1.505  1.00  0.00     0.051 A 
ATOM     11  C   UNL     1       5.923   1.061   0.743  1.00  0.00     0.166 A 
ATOM     12  C   UNL     1       5.910   0.015   1.634  1.00  0.00     0.165 A 
ATOM     13  O   UNL     1       4.902   1.934   1.078  1.00  0.00    -0.454 OA
ATOM     14  O   UNL     1       4.863   0.256   2.525  1.00  0.00    -0.454 OA
ATOM     15  C   UNL     1       4.034   1.273   2.012  1.00  0.00     0.468 C 
ENDBRANCH   6   7
ENDBRANCH   1   6
TORSDOF 4
ENDMDL
MODEL 5
REMARK VINA RESULT:      -7.4      0.942      2.088
REMARK SMILES O=C(O)CCc1ccc2c(c1)OCO2
REMARK SMILES IDX 4 1 2 2 1 3 3 4 5 6 6 7 7 8 11 9 8 10 10 11 9 12 12 13 14 14
REMARK SMILES IDX 13 15
REMARK H PARENT 3 5
REMARK Flexibility Score: inf
ROOT
ATOM      1  C   UNL     1       5.542   2.687   0.070  1.00  0.00     0.127 C 
ENDROOT
BRANCH   1   2
ATOM      2  C   UNL     1       6.206   3.705   0.870  1.00  0.00     0.303 C 
ATOM      3  O   UNL     1       6.241   3.739   2.101  1.00  0.00    -0.252 OA
BRANCH   2   4
ATOM      4  O   UNL     1       6.863   4.737   0.183  1.00  0.00    -0.481 OA
ATOM      5  H   UNL     1       6.754   4.745  -0.820  1.00  0.00     0.296 HD
ENDBRANCH   2   4
ENDBRANCH   1   2
BRANCH   1   6
ATOM      6  C   UNL     1       5.541   1.344   0.689  1.00  0.00     0.047 C 
BRANCH   6   7
ATOM      7  C   UNL     1       6.330   0.297   0.036  1.00  0.00    -0.043 A 
ATOM      8  C   UNL     1       6.449   0.233  -1.344  1.00  0.00     0.008 A 
ATOM      9  C   UNL     1       6.947  -0.678   0.774  1.00  0.00     0.054 A 
ATOM     10  C   UNL     1       7.161  -0.772  -1.961  1.00  0.00     0.051 A 
ATOM     11  C   UNL     1       7.667  -1.695   0.177  1.00  0.00     0.166 A 
ATOM     12  C   UNL     1       7.777  -1.746  -1.191  1.00  0.00     0.165 A 
ATOM     13  O   UNL     1       8.361  -2.766   0.712  1.00  0.00    -0.454 OA
ATOM     14  O   UNL     1       8.550  -2.868  -1.492  1.00  0.00    -0.454 OA
ATOM     15  C   UNL     1       8.659  -3.685  -0.350  1.00  0.00     0.468 C 
ENDBRANCH   6   7
ENDBRANCH   1   6
TORSDOF 4
ENDMDL
