@<TRIPOS>MOLECULE
/home/cewinharhar/GITHUB/reincatalyze/data/processed/docking_pred/2023-May-17-1006_maxeplen10_maxtrainstep1000_seadep16_gamma099_lrac9e-4_lrcr1e-3_sub6/051d9442833557c4466992e4bdada3c2de553c76_ligand_6.pdbqt
 15 16 0 0 0
SMALL
GASTEIGER

@<TRIPOS>ATOM
      1  C          4.6860    1.8780    0.6690 C.3     1  UNL1        0.1270
      2  C          4.3890    1.1760    1.9080 C.2     1  UNL1        0.3030
      3  O          5.1210    0.3510    2.4580 O.2     1  UNL1       -0.2520
      4  O          3.1650    1.4620    2.5330 O.3     1  UNL1       -0.4810
      5  H          2.3350    1.2670    1.9950 H       1  UNL1        0.2960
      6  C          6.1090    2.2490    0.5160 C.3     1  UNL1        0.0470
      7  C          6.9660    1.3460   -0.2550 C.2     1  UNL1       -0.0430
      8  C          8.3260    1.5780   -0.3910 C.2     1  UNL1        0.0080
      9  C          6.4370    0.2600   -0.9000 C.2     1  UNL1        0.0540
     10  C          9.1260    0.7490   -1.1460 C.2     1  UNL1        0.0510
     11  C          7.2210   -0.5850   -1.6630 C.2     1  UNL1        0.1660
     12  C          8.5680   -0.3440   -1.7880 C.2     1  UNL1        0.1650
     13  O          6.9090   -1.7210   -2.3900 O.2     1  UNL1       -0.4540
     14  O          9.0830   -1.3510   -2.6060 O.2     1  UNL1       -0.4540
     15  C          8.0240   -2.0300   -3.2400 C.3     1  UNL1        0.4680
@<TRIPOS>BOND
     1    15    14    1
     2    15    13    1
     3    14    12    1
     4    13    11    1
     5    12    11    2
     6    12    10    1
     7    11     9    1
     8    10     8    2
     9     9     7    2
    10     8     7    1
    11     7     6    1
    12     6     1    1
    13     1     2    1
    14     2     3    2
    15     2     4    1
    16     5     4    1
