@<TRIPOS>MOLECULE
/home/cewinharhar/GITHUB/reincatalyze/data/processed/docking_pred/2023-May-17-1006_maxeplen10_maxtrainstep1000_seadep16_gamma099_lrac9e-4_lrcr1e-3_sub6/051d9442833557c4466992e4bdada3c2de553c76_ligand_6.pdbqt
 15 16 0 0 0
SMALL
GASTEIGER

@<TRIPOS>ATOM
      1  C          8.3010   -0.3180   -2.8450 C.3     1  UNL1        0.1270
      2  C          8.4660   -1.7470   -3.0640 C.2     1  UNL1        0.3030
      3  O          9.5340   -2.3600   -3.0220 O.2     1  UNL1       -0.2520
      4  O          7.3110   -2.4930   -3.3480 O.3     1  UNL1       -0.4810
      5  H          7.0190   -3.1480   -2.6390 H       1  UNL1        0.2960
      6  C          8.7620    0.1420   -1.5180 C.3     1  UNL1        0.0470
      7  C          7.7990    0.1050   -0.4150 C.2     1  UNL1       -0.0430
      8  C          7.7730   -0.9450    0.4900 C.2     1  UNL1        0.0080
      9  C          6.8630    1.0950   -0.2690 C.2     1  UNL1        0.0540
     10  C          6.8450   -1.0000    1.5050 C.2     1  UNL1        0.0510
     11  C          5.9230    1.0610    0.7430 C.2     1  UNL1        0.1660
     12  C          5.9100    0.0150    1.6340 C.2     1  UNL1        0.1650
     13  O          4.9020    1.9340    1.0780 O.2     1  UNL1       -0.4540
     14  O          4.8630    0.2560    2.5250 O.2     1  UNL1       -0.4540
     15  C          4.0340    1.2730    2.0120 C.3     1  UNL1        0.4680
@<TRIPOS>BOND
     1     4     2    1
     2     4     5    1
     3     2     3    2
     4     2     1    1
     5     1     6    1
     6     6     7    1
     7     7     9    2
     8     7     8    1
     9     9    11    1
    10     8    10    2
    11    11    13    1
    12    11    12    2
    13    13    15    1
    14    10    12    1
    15    12    14    1
    16    15    14    1
