@<TRIPOS>MOLECULE
/home/cewinharhar/GITHUB/reincatalyze/data/processed/docking_pred/2023-May-17-1006_maxeplen10_maxtrainstep1000_seadep16_gamma099_lrac9e-4_lrcr1e-3_sub6/051d9442833557c4466992e4bdada3c2de553c76_ligand_6.pdbqt
 15 16 0 0 0
SMALL
GASTEIGER

@<TRIPOS>ATOM
      1  C          5.5420    2.6870    0.0700 C.3     1  UNL1        0.1270
      2  C          6.2060    3.7050    0.8700 C.2     1  UNL1        0.3030
      3  O          6.2410    3.7390    2.1010 O.2     1  UNL1       -0.2520
      4  O          6.8630    4.7370    0.1830 O.3     1  UNL1       -0.4810
      5  H          6.7540    4.7450   -0.8200 H       1  UNL1        0.2960
      6  C          5.5410    1.3440    0.6890 C.3     1  UNL1        0.0470
      7  C          6.3300    0.2970    0.0360 C.2     1  UNL1       -0.0430
      8  C          6.4490    0.2330   -1.3440 C.2     1  UNL1        0.0080
      9  C          6.9470   -0.6780    0.7740 C.2     1  UNL1        0.0540
     10  C          7.1610   -0.7720   -1.9610 C.2     1  UNL1        0.0510
     11  C          7.6670   -1.6950    0.1770 C.2     1  UNL1        0.1660
     12  C          7.7770   -1.7460   -1.1910 C.2     1  UNL1        0.1650
     13  O          8.3610   -2.7660    0.7120 O.2     1  UNL1       -0.4540
     14  O          8.5500   -2.8680   -1.4920 O.2     1  UNL1       -0.4540
     15  C          8.6590   -3.6850   -0.3500 C.3     1  UNL1        0.4680
@<TRIPOS>BOND
     1    10     8    1
     2    10    12    2
     3    14    12    1
     4    14    15    1
     5     8     7    2
     6    12    11    1
     7     5     4    1
     8    15    13    1
     9     7     6    1
    10     7     9    1
    11     1     6    1
    12     1     2    1
    13    11    13    1
    14    11     9    2
    15     4     2    1
    16     2     3    2
