@<TRIPOS>MOLECULE
/home/cewinharhar/GITHUB/reincatalyze/data/processed/docking_pred/2023-May-17-1006_maxeplen10_maxtrainstep1000_seadep16_gamma099_lrac9e-4_lrcr1e-3_sub6/051d9442833557c4466992e4bdada3c2de553c76_ligand_6.pdbqt
 15 16 0 0 0
SMALL
GASTEIGER

@<TRIPOS>ATOM
      1  C          5.4610    2.8350    0.0980 C.3     1  UNL1        0.1270
      2  C          6.2200    3.8740    0.7770 C.2     1  UNL1        0.3030
      3  O          6.8990    4.7420    0.2270 O.2     1  UNL1       -0.2520
      4  O          6.1770    3.8900    2.1800 O.3     1  UNL1       -0.4810
      5  H          7.0500    3.7190    2.6550 H       1  UNL1        0.2960
      6  C          5.4340    1.5430    0.8170 C.3     1  UNL1        0.0470
      7  C          6.1880    0.4300    0.2370 C.2     1  UNL1       -0.0430
      8  C          6.6390   -0.6240    1.0170 C.2     1  UNL1        0.0080
      9  C          6.5030    0.4160   -1.0950 C.2     1  UNL1        0.0540
     10  C          7.3790   -1.6540    0.4800 C.2     1  UNL1        0.0510
     11  C          7.2440   -0.6070   -1.6560 C.2     1  UNL1        0.1660
     12  C          7.6840   -1.6450   -0.8710 C.2     1  UNL1        0.1650
     13  O          7.6730   -0.8260   -2.9540 O.2     1  UNL1       -0.4540
     14  O          8.3930   -2.5100   -1.7070 O.2     1  UNL1       -0.4540
     15  C          8.6630   -1.8650   -2.9300 C.3     1  UNL1        0.4680
@<TRIPOS>BOND
     1    13    15    1
     2    13    11    1
     3    15    14    1
     4    14    12    1
     5    11     9    1
     6    11    12    2
     7     9     7    2
     8    12    10    1
     9     1     2    1
    10     1     6    1
    11     3     2    2
    12     7     6    1
    13     7     8    1
    14    10     8    2
    15     2     4    1
    16     4     5    1
