@<TRIPOS>MOLECULE
/home/cewinharhar/GITHUB/reincatalyze/data/processed/docking_pred/2023-May-17-1006_maxeplen10_maxtrainstep1000_seadep16_gamma099_lrac9e-4_lrcr1e-3_sub6/051d9442833557c4466992e4bdada3c2de553c76_ligand_6.pdbqt
 15 16 0 0 0
SMALL
GASTEIGER

@<TRIPOS>ATOM
      1  C          6.4110    1.3240    0.6790 C.3     1  UNL1        0.1270
      2  C          5.1920    1.3190    1.4720 C.2     1  UNL1        0.3030
      3  O          4.2530    2.1090    1.3490 O.2     1  UNL1       -0.2520
      4  O          5.0710    0.3320    2.4620 O.3     1  UNL1       -0.4810
      5  H          5.8620    0.2190    3.0770 H       1  UNL1        0.2960
      6  C          6.2240    0.8590   -0.7120 C.3     1  UNL1        0.0470
      7  C          6.9790   -0.3220   -1.1390 C.2     1  UNL1       -0.0430
      8  C          7.2780   -0.5470   -2.4730 C.2     1  UNL1        0.0080
      9  C          7.3800   -1.2630   -0.2280 C.2     1  UNL1        0.0540
     10  C          7.9560   -1.6750   -2.8800 C.2     1  UNL1        0.0510
     11  C          8.0610   -2.4020   -0.6130 C.2     1  UNL1        0.1660
     12  C          8.3520   -2.6120   -1.9390 C.2     1  UNL1        0.1650
     13  O          8.5560   -3.4680    0.1180 O.2     1  UNL1       -0.4540
     14  O          9.0350   -3.8270   -2.0150 O.2     1  UNL1       -0.4540
     15  C          8.8960   -4.5210   -0.7960 C.3     1  UNL1        0.4680
@<TRIPOS>BOND
     1    10     8    1
     2    10    12    2
     3     8     7    2
     4    14    12    1
     5    14    15    1
     6    12    11    1
     7     7     6    1
     8     7     9    1
     9    15    13    1
    10     6     1    1
    11    11     9    2
    12    11    13    1
    13     1     2    1
    14     3     2    2
    15     2     4    1
    16     4     5    1
