@<TRIPOS>MOLECULE
/home/cewinharhar/GITHUB/reincatalyze/data/processed/docking_pred/2023-May-17-1006_maxeplen10_maxtrainstep1000_seadep16_gamma099_lrac9e-4_lrcr1e-3_sub6/05fc2472135fbee8f2c0d268145bdd055e68f396_ligand_6.pdbqt
 15 16 0 0 0
SMALL
GASTEIGER

@<TRIPOS>ATOM
      1  C          5.3830    2.8370    0.0840 C.3     1  UNL1        0.1270
      2  C          6.1320    3.8330    0.8340 C.2     1  UNL1        0.3030
      3  O          6.1760    3.9220    2.0630 O.2     1  UNL1       -0.2520
      4  O          6.8690    4.7750    0.0990 O.3     1  UNL1       -0.4810
      5  H          7.3850    4.4180   -0.6910 H       1  UNL1        0.2960
      6  C          5.3640    1.5000    0.7140 C.3     1  UNL1        0.0470
      7  C          6.2190    0.4640    0.1300 C.2     1  UNL1       -0.0430
      8  C          6.5370    0.4630   -1.2190 C.2     1  UNL1        0.0080
      9  C          6.7000   -0.5620    0.8990 C.2     1  UNL1        0.0540
     10  C          7.3100   -0.5310   -1.7770 C.2     1  UNL1        0.0510
     11  C          7.4790   -1.5690    0.3610 C.2     1  UNL1        0.1660
     12  C          7.7870   -1.5570   -0.9780 C.2     1  UNL1        0.1650
     13  O          8.0640   -2.6840    0.9360 O.2     1  UNL1       -0.4540
     14  O          8.5730   -2.6850   -1.2210 O.2     1  UNL1       -0.4540
     15  C          8.4960   -3.5590   -0.1180 C.3     1  UNL1        0.4680
@<TRIPOS>BOND
     1    10     8    1
     2    10    12    2
     3    14    12    1
     4    14    15    1
     5     8     7    2
     6    12    11    1
     7     5     4    1
     8    15    13    1
     9     1     6    1
    10     1     2    1
    11     4     2    1
    12     7     6    1
    13     7     9    1
    14    11     9    2
    15    11    13    1
    16     2     3    2
