MODEL 1
REMARK VINA RESULT:      -7.6      0.000      0.000
REMARK SMILES O=C(O)CCc1ccc2c(c1)OCO2
REMARK SMILES IDX 4 1 2 2 1 3 3 4 5 6 6 7 7 8 11 9 8 10 10 11 9 12 12 13 14 14
REMARK SMILES IDX 13 15
REMARK H PARENT 3 5
REMARK Flexibility Score: inf
ROOT
ATOM      1  C   UNL     1       5.427   2.871   0.114  1.00  0.00     0.127 C 
ENDROOT
BRANCH   1   2
ATOM      2  C   UNL     1       6.259   3.856   0.788  1.00  0.00     0.303 C 
ATOM      3  O   UNL     1       6.915   4.740   0.234  1.00  0.00    -0.252 OA
BRANCH   2   4
ATOM      4  O   UNL     1       6.321   3.796   2.189  1.00  0.00    -0.481 OA
ATOM      5  H   UNL     1       7.124   3.328   2.579  1.00  0.00     0.296 HD
ENDBRANCH   2   4
ENDBRANCH   1   2
BRANCH   1   6
ATOM      6  C   UNL     1       5.365   1.565   0.804  1.00  0.00     0.047 C 
BRANCH   6   7
ATOM      7  C   UNL     1       6.138   0.460   0.231  1.00  0.00    -0.043 A 
ATOM      8  C   UNL     1       6.579  -0.597   1.013  1.00  0.00     0.008 A 
ATOM      9  C   UNL     1       6.483   0.459  -1.094  1.00  0.00     0.054 A 
ATOM     10  C   UNL     1       7.337  -1.618   0.483  1.00  0.00     0.051 A 
ATOM     11  C   UNL     1       7.242  -0.555  -1.647  1.00  0.00     0.166 A 
ATOM     12  C   UNL     1       7.671  -1.596  -0.861  1.00  0.00     0.165 A 
ATOM     13  O   UNL     1       7.700  -0.760  -2.936  1.00  0.00    -0.454 OA
ATOM     14  O   UNL     1       8.404  -2.450  -1.688  1.00  0.00    -0.454 OA
ATOM     15  C   UNL     1       8.696  -1.794  -2.900  1.00  0.00     0.468 C 
ENDBRANCH   6   7
ENDBRANCH   1   6
TORSDOF 4
ENDMDL
MODEL 2
REMARK VINA RESULT:      -7.6      2.144      2.527
REMARK SMILES O=C(O)CCc1ccc2c(c1)OCO2
REMARK SMILES IDX 4 1 2 2 1 3 3 4 5 6 6 7 7 8 11 9 8 10 10 11 9 12 12 13 14 14
REMARK SMILES IDX 13 15
REMARK H PARENT 3 5
REMARK Flexibility Score: inf
ROOT
ATOM      1  C   UNL     1       4.723   1.856   0.708  1.00  0.00     0.127 C 
ENDROOT
BRANCH   1   2
ATOM      2  C   UNL     1       4.414   1.128   1.929  1.00  0.00     0.303 C 
ATOM      3  O   UNL     1       5.135   0.285   2.463  1.00  0.00    -0.252 OA
BRANCH   2   4
ATOM      4  O   UNL     1       3.188   1.410   2.554  1.00  0.00    -0.481 OA
ATOM      5  H   UNL     1       2.624   2.126   2.125  1.00  0.00     0.296 HD
ENDBRANCH   2   4
ENDBRANCH   1   2
BRANCH   1   6
ATOM      6  C   UNL     1       6.152   2.207   0.564  1.00  0.00     0.047 C 
BRANCH   6   7
ATOM      7  C   UNL     1       6.995   1.303  -0.222  1.00  0.00    -0.043 A 
ATOM      8  C   UNL     1       8.357   1.522  -0.363  1.00  0.00     0.008 A 
ATOM      9  C   UNL     1       6.451   0.230  -0.876  1.00  0.00     0.054 A 
ATOM     10  C   UNL     1       9.144   0.693  -1.131  1.00  0.00     0.051 A 
ATOM     11  C   UNL     1       7.222  -0.615  -1.652  1.00  0.00     0.166 A 
ATOM     12  C   UNL     1       8.571  -0.387  -1.782  1.00  0.00     0.165 A 
ATOM     13  O   UNL     1       6.895  -1.739  -2.390  1.00  0.00    -0.454 OA
ATOM     14  O   UNL     1       9.071  -1.390  -2.613  1.00  0.00    -0.454 OA
ATOM     15  C   UNL     1       8.001  -2.050  -3.250  1.00  0.00     0.468 C 
ENDBRANCH   6   7
ENDBRANCH   1   6
TORSDOF 4
ENDMDL
MODEL 3
REMARK VINA RESULT:      -7.5      1.970      2.898
REMARK SMILES O=C(O)CCc1ccc2c(c1)OCO2
REMARK SMILES IDX 4 1 2 2 1 3 3 4 5 6 6 7 7 8 11 9 8 10 10 11 9 12 12 13 14 14
REMARK SMILES IDX 13 15
REMARK H PARENT 3 5
REMARK Flexibility Score: inf
ROOT
ATOM      1  C   UNL     1       6.370   1.306   0.578  1.00  0.00     0.127 C 
ENDROOT
BRANCH   1   2
ATOM      2  C   UNL     1       5.184   1.308   1.420  1.00  0.00     0.303 C 
ATOM      3  O   UNL     1       4.266   2.128   1.363  1.00  0.00    -0.252 OA
BRANCH   2   4
ATOM      4  O   UNL     1       5.074   0.290   2.380  1.00  0.00    -0.481 OA
ATOM      5  H   UNL     1       5.898  -0.270   2.532  1.00  0.00     0.296 HD
ENDBRANCH   2   4
ENDBRANCH   1   2
BRANCH   1   6
ATOM      6  C   UNL     1       6.143   0.763  -0.778  1.00  0.00     0.047 C 
BRANCH   6   7
ATOM      7  C   UNL     1       6.932  -0.403  -1.182  1.00  0.00    -0.043 A 
ATOM      8  C   UNL     1       7.265  -0.627  -2.509  1.00  0.00     0.008 A 
ATOM      9  C   UNL     1       7.332  -1.331  -0.259  1.00  0.00     0.054 A 
ATOM     10  C   UNL     1       7.976  -1.742  -2.895  1.00  0.00     0.051 A 
ATOM     11  C   UNL     1       8.046  -2.457  -0.623  1.00  0.00     0.166 A 
ATOM     12  C   UNL     1       8.371  -2.666  -1.941  1.00  0.00     0.165 A 
ATOM     13  O   UNL     1       8.547  -3.509   0.124  1.00  0.00    -0.454 OA
ATOM     14  O   UNL     1       9.081  -3.867  -1.996  1.00  0.00    -0.454 OA
ATOM     15  C   UNL     1       8.930  -4.558  -0.778  1.00  0.00     0.468 C 
ENDBRANCH   6   7
ENDBRANCH   1   6
TORSDOF 4
ENDMDL
MODEL 4
REMARK VINA RESULT:      -7.4      1.792      5.283
REMARK SMILES O=C(O)CCc1ccc2c(c1)OCO2
REMARK SMILES IDX 4 1 2 2 1 3 3 4 5 6 6 7 7 8 11 9 8 10 10 11 9 12 12 13 14 14
REMARK SMILES IDX 13 15
REMARK H PARENT 3 5
REMARK Flexibility Score: inf
ROOT
ATOM      1  C   UNL     1       8.306  -0.322  -2.860  1.00  0.00     0.127 C 
ENDROOT
BRANCH   1   2
ATOM      2  C   UNL     1       8.471  -1.752  -3.070  1.00  0.00     0.303 C 
ATOM      3  O   UNL     1       9.540  -2.365  -3.027  1.00  0.00    -0.252 OA
BRANCH   2   4
ATOM      4  O   UNL     1       7.316  -2.500  -3.346  1.00  0.00    -0.481 OA
ATOM      5  H   UNL     1       7.371  -3.490  -3.158  1.00  0.00     0.296 HD
ENDBRANCH   2   4
ENDBRANCH   1   2
BRANCH   1   6
ATOM      6  C   UNL     1       8.757   0.145  -1.532  1.00  0.00     0.047 C 
BRANCH   6   7
ATOM      7  C   UNL     1       7.787   0.105  -0.435  1.00  0.00    -0.043 A 
ATOM      8  C   UNL     1       7.733  -0.964   0.446  1.00  0.00     0.008 A 
ATOM      9  C   UNL     1       6.873   1.111  -0.271  1.00  0.00     0.054 A 
ATOM     10  C   UNL     1       6.798  -1.021   1.456  1.00  0.00     0.051 A 
ATOM     11  C   UNL     1       5.926   1.076   0.735  1.00  0.00     0.166 A 
ATOM     12  C   UNL     1       5.885   0.011   1.602  1.00  0.00     0.165 A 
ATOM     13  O   UNL     1       4.923   1.964   1.084  1.00  0.00    -0.454 OA
ATOM     14  O   UNL     1       4.839   0.256   2.493  1.00  0.00    -0.454 OA
ATOM     15  C   UNL     1       4.035   1.302   1.998  1.00  0.00     0.468 C 
ENDBRANCH   6   7
ENDBRANCH   1   6
TORSDOF 4
ENDMDL
MODEL 5
REMARK VINA RESULT:      -7.4      0.952      2.119
REMARK SMILES O=C(O)CCc1ccc2c(c1)OCO2
REMARK SMILES IDX 4 1 2 2 1 3 3 4 5 6 6 7 7 8 11 9 8 10 10 11 9 12 12 13 14 14
REMARK SMILES IDX 13 15
REMARK H PARENT 3 5
REMARK Flexibility Score: inf
ROOT
ATOM      1  C   UNL     1       5.383   2.837   0.084  1.00  0.00     0.127 C 
ENDROOT
BRANCH   1   2
ATOM      2  C   UNL     1       6.132   3.833   0.834  1.00  0.00     0.303 C 
ATOM      3  O   UNL     1       6.176   3.922   2.063  1.00  0.00    -0.252 OA
BRANCH   2   4
ATOM      4  O   UNL     1       6.869   4.775   0.099  1.00  0.00    -0.481 OA
ATOM      5  H   UNL     1       7.385   4.418  -0.691  1.00  0.00     0.296 HD
ENDBRANCH   2   4
ENDBRANCH   1   2
BRANCH   1   6
ATOM      6  C   UNL     1       5.364   1.500   0.714  1.00  0.00     0.047 C 
BRANCH   6   7
ATOM      7  C   UNL     1       6.219   0.464   0.130  1.00  0.00    -0.043 A 
ATOM      8  C   UNL     1       6.537   0.463  -1.219  1.00  0.00     0.008 A 
ATOM      9  C   UNL     1       6.700  -0.562   0.899  1.00  0.00     0.054 A 
ATOM     10  C   UNL     1       7.310  -0.531  -1.777  1.00  0.00     0.051 A 
ATOM     11  C   UNL     1       7.479  -1.569   0.361  1.00  0.00     0.166 A 
ATOM     12  C   UNL     1       7.787  -1.557  -0.978  1.00  0.00     0.165 A 
ATOM     13  O   UNL     1       8.064  -2.684   0.936  1.00  0.00    -0.454 OA
ATOM     14  O   UNL     1       8.573  -2.685  -1.221  1.00  0.00    -0.454 OA
ATOM     15  C   UNL     1       8.496  -3.559  -0.118  1.00  0.00     0.468 C 
ENDBRANCH   6   7
ENDBRANCH   1   6
TORSDOF 4
ENDMDL
