@<TRIPOS>MOLECULE
/home/cewinharhar/GITHUB/reincatalyze/data/processed/docking_pred/2023-May-17-1006_maxeplen10_maxtrainstep1000_seadep16_gamma099_lrac9e-4_lrcr1e-3_sub6/05fc2472135fbee8f2c0d268145bdd055e68f396_ligand_6.pdbqt
 15 16 0 0 0
SMALL
GASTEIGER

@<TRIPOS>ATOM
      1  C          5.4270    2.8710    0.1140 C.3     1  UNL1        0.1270
      2  C          6.2590    3.8560    0.7880 C.2     1  UNL1        0.3030
      3  O          6.9150    4.7400    0.2340 O.2     1  UNL1       -0.2520
      4  O          6.3210    3.7960    2.1890 O.3     1  UNL1       -0.4810
      5  H          7.1240    3.3280    2.5790 H       1  UNL1        0.2960
      6  C          5.3650    1.5650    0.8040 C.3     1  UNL1        0.0470
      7  C          6.1380    0.4600    0.2310 C.2     1  UNL1       -0.0430
      8  C          6.5790   -0.5970    1.0130 C.2     1  UNL1        0.0080
      9  C          6.4830    0.4590   -1.0940 C.2     1  UNL1        0.0540
     10  C          7.3370   -1.6180    0.4830 C.2     1  UNL1        0.0510
     11  C          7.2420   -0.5550   -1.6470 C.2     1  UNL1        0.1660
     12  C          7.6710   -1.5960   -0.8610 C.2     1  UNL1        0.1650
     13  O          7.7000   -0.7600   -2.9360 O.2     1  UNL1       -0.4540
     14  O          8.4040   -2.4500   -1.6880 O.2     1  UNL1       -0.4540
     15  C          8.6960   -1.7940   -2.9000 C.3     1  UNL1        0.4680
@<TRIPOS>BOND
     1    13    15    1
     2    13    11    1
     3    15    14    1
     4    14    12    1
     5    11     9    1
     6    11    12    2
     7     9     7    2
     8    12    10    1
     9     1     2    1
    10     1     6    1
    11     7     6    1
    12     7     8    1
    13     3     2    2
    14    10     8    2
    15     2     4    1
    16     4     5    1
