@<TRIPOS>MOLECULE
/home/cewinharhar/GITHUB/reincatalyze/data/processed/docking_pred/2023-May-17-1006_maxeplen10_maxtrainstep1000_seadep16_gamma099_lrac9e-4_lrcr1e-3_sub6/05fc2472135fbee8f2c0d268145bdd055e68f396_ligand_6.pdbqt
 15 16 0 0 0
SMALL
GASTEIGER

@<TRIPOS>ATOM
      1  C          8.3060   -0.3220   -2.8600 C.3     1  UNL1        0.1270
      2  C          8.4710   -1.7520   -3.0700 C.2     1  UNL1        0.3030
      3  O          9.5400   -2.3650   -3.0270 O.2     1  UNL1       -0.2520
      4  O          7.3160   -2.5000   -3.3460 O.3     1  UNL1       -0.4810
      5  H          7.3710   -3.4900   -3.1580 H       1  UNL1        0.2960
      6  C          8.7570    0.1450   -1.5320 C.3     1  UNL1        0.0470
      7  C          7.7870    0.1050   -0.4350 C.2     1  UNL1       -0.0430
      8  C          7.7330   -0.9640    0.4460 C.2     1  UNL1        0.0080
      9  C          6.8730    1.1110   -0.2710 C.2     1  UNL1        0.0540
     10  C          6.7980   -1.0210    1.4560 C.2     1  UNL1        0.0510
     11  C          5.9260    1.0760    0.7350 C.2     1  UNL1        0.1660
     12  C          5.8850    0.0110    1.6020 C.2     1  UNL1        0.1650
     13  O          4.9230    1.9640    1.0840 O.2     1  UNL1       -0.4540
     14  O          4.8390    0.2560    2.4930 O.2     1  UNL1       -0.4540
     15  C          4.0350    1.3020    1.9980 C.3     1  UNL1        0.4680
@<TRIPOS>BOND
     1     4     5    1
     2     4     2    1
     3     2     3    2
     4     2     1    1
     5     1     6    1
     6     6     7    1
     7     7     9    2
     8     7     8    1
     9     9    11    1
    10     8    10    2
    11    11    13    1
    12    11    12    2
    13    13    15    1
    14    10    12    1
    15    12    14    1
    16    15    14    1
