@<TRIPOS>MOLECULE
/home/cewinharhar/GITHUB/reincatalyze/data/processed/docking_pred/2023-May-17-1006_maxeplen10_maxtrainstep1000_seadep16_gamma099_lrac9e-4_lrcr1e-3_sub6/05fc2472135fbee8f2c0d268145bdd055e68f396_ligand_6.pdbqt
 15 16 0 0 0
SMALL
GASTEIGER

@<TRIPOS>ATOM
      1  C          6.3700    1.3060    0.5780 C.3     1  UNL1        0.1270
      2  C          5.1840    1.3080    1.4200 C.2     1  UNL1        0.3030
      3  O          4.2660    2.1280    1.3630 O.2     1  UNL1       -0.2520
      4  O          5.0740    0.2900    2.3800 O.3     1  UNL1       -0.4810
      5  H          5.8980   -0.2700    2.5320 H       1  UNL1        0.2960
      6  C          6.1430    0.7630   -0.7780 C.3     1  UNL1        0.0470
      7  C          6.9320   -0.4030   -1.1820 C.2     1  UNL1       -0.0430
      8  C          7.2650   -0.6270   -2.5090 C.2     1  UNL1        0.0080
      9  C          7.3320   -1.3310   -0.2590 C.2     1  UNL1        0.0540
     10  C          7.9760   -1.7420   -2.8950 C.2     1  UNL1        0.0510
     11  C          8.0460   -2.4570   -0.6230 C.2     1  UNL1        0.1660
     12  C          8.3710   -2.6660   -1.9410 C.2     1  UNL1        0.1650
     13  O          8.5470   -3.5090    0.1240 O.2     1  UNL1       -0.4540
     14  O          9.0810   -3.8670   -1.9960 O.2     1  UNL1       -0.4540
     15  C          8.9300   -4.5580   -0.7780 C.3     1  UNL1        0.4680
@<TRIPOS>BOND
     1    10     8    1
     2    10    12    2
     3     8     7    2
     4    14    12    1
     5    14    15    1
     6    12    11    1
     7     7     6    1
     8     7     9    1
     9     6     1    1
    10    15    13    1
    11    11     9    2
    12    11    13    1
    13     1     2    1
    14     3     2    2
    15     2     4    1
    16     4     5    1
