@<TRIPOS>MOLECULE
/home/cewinharhar/GITHUB/reincatalyze/data/processed/docking_pred/2023-May-17-1006_maxeplen10_maxtrainstep1000_seadep16_gamma099_lrac9e-4_lrcr1e-3_sub6/074f71e156faecc69724e62cc987f5104d3c940c_ligand_6.pdbqt
 15 16 0 0 0
SMALL
GASTEIGER

@<TRIPOS>ATOM
      1  C          5.4240    2.8730    0.1080 C.3     1  UNL1        0.1270
      2  C          6.2480    3.8580    0.7920 C.2     1  UNL1        0.3030
      3  O          6.9200    4.7340    0.2450 O.2     1  UNL1       -0.2520
      4  O          6.2830    3.8070    2.1940 O.3     1  UNL1       -0.4810
      5  H          5.8450    3.0060    2.6220 H       1  UNL1        0.2960
      6  C          5.3580    1.5650    0.7940 C.3     1  UNL1        0.0470
      7  C          6.1290    0.4600    0.2200 C.2     1  UNL1       -0.0430
      8  C          6.5530   -0.6080    0.9950 C.2     1  UNL1        0.0080
      9  C          6.4880    0.4700   -1.1020 C.2     1  UNL1        0.0540
     10  C          7.3090   -1.6290    0.4650 C.2     1  UNL1        0.0510
     11  C          7.2450   -0.5450   -1.6560 C.2     1  UNL1        0.1660
     12  C          7.6580   -1.5970   -0.8760 C.2     1  UNL1        0.1650
     13  O          7.7170   -0.7410   -2.9430 O.2     1  UNL1       -0.4540
     14  O          8.3930   -2.4480   -1.7030 O.2     1  UNL1       -0.4540
     15  C          8.7050   -1.7830   -2.9050 C.3     1  UNL1        0.4680
@<TRIPOS>BOND
     1    13    15    1
     2    13    11    1
     3    15    14    1
     4    14    12    1
     5    11     9    1
     6    11    12    2
     7     9     7    2
     8    12    10    1
     9     1     2    1
    10     1     6    1
    11     7     6    1
    12     7     8    1
    13     3     2    2
    14    10     8    2
    15     2     4    1
    16     4     5    1
