@<TRIPOS>MOLECULE
/home/cewinharhar/GITHUB/reincatalyze/data/processed/docking_pred/2023-May-17-1006_maxeplen10_maxtrainstep1000_seadep16_gamma099_lrac9e-4_lrcr1e-3_sub6/074f71e156faecc69724e62cc987f5104d3c940c_ligand_6.pdbqt
 15 16 0 0 0
SMALL
GASTEIGER

@<TRIPOS>ATOM
      1  C          5.5560    2.6530    0.1080 C.3     1  UNL1        0.1270
      2  C          6.1620    3.7270    0.8800 C.2     1  UNL1        0.3030
      3  O          6.1040    3.8500    2.1050 O.2     1  UNL1       -0.2520
      4  O          6.8730    4.7080    0.1720 O.3     1  UNL1       -0.4810
      5  H          6.4880    5.6400    0.1940 H       1  UNL1        0.2960
      6  C          5.6590    1.3240    0.7460 C.3     1  UNL1        0.0470
      7  C          6.4120    0.2880    0.0360 C.2     1  UNL1       -0.0430
      8  C          6.5000    0.2760   -1.3480 C.2     1  UNL1        0.0080
      9  C          7.0230   -0.7280    0.7220 C.2     1  UNL1        0.0540
     10  C          7.1770   -0.7180   -2.0190 C.2     1  UNL1        0.0510
     11  C          7.7090   -1.7350    0.0700 C.2     1  UNL1        0.1660
     12  C          7.7890   -1.7340   -1.3020 C.2     1  UNL1        0.1650
     13  O          8.3910   -2.8410    0.5470 O.2     1  UNL1       -0.4540
     14  O          8.5320   -2.8580   -1.6640 O.2     1  UNL1       -0.4540
     15  C          8.6470   -3.7220   -0.5570 C.3     1  UNL1        0.4680
@<TRIPOS>BOND
     1    10     8    1
     2    10    12    2
     3    14    12    1
     4    14    15    1
     5     8     7    2
     6    12    11    1
     7    15    13    1
     8     7     9    1
     9     7     6    1
    10    11    13    1
    11    11     9    2
    12     1     6    1
    13     1     2    1
    14     4     5    1
    15     4     2    1
    16     2     3    2
