MODEL 1
REMARK VINA RESULT:      -7.6      0.000      0.000
REMARK SMILES O=C(O)CCc1ccc2c(c1)OCO2
REMARK SMILES IDX 4 1 2 2 1 3 3 4 5 6 6 7 7 8 11 9 8 10 10 11 9 12 12 13 14 14
REMARK SMILES IDX 13 15
REMARK H PARENT 3 5
REMARK Flexibility Score: inf
ROOT
ATOM      1  C   UNL     1       5.424   2.873   0.108  1.00  0.00     0.127 C 
ENDROOT
BRANCH   1   2
ATOM      2  C   UNL     1       6.248   3.858   0.792  1.00  0.00     0.303 C 
ATOM      3  O   UNL     1       6.920   4.734   0.245  1.00  0.00    -0.252 OA
BRANCH   2   4
ATOM      4  O   UNL     1       6.283   3.807   2.194  1.00  0.00    -0.481 OA
ATOM      5  H   UNL     1       5.845   3.006   2.622  1.00  0.00     0.296 HD
ENDBRANCH   2   4
ENDBRANCH   1   2
BRANCH   1   6
ATOM      6  C   UNL     1       5.358   1.565   0.794  1.00  0.00     0.047 C 
BRANCH   6   7
ATOM      7  C   UNL     1       6.129   0.460   0.220  1.00  0.00    -0.043 A 
ATOM      8  C   UNL     1       6.553  -0.608   0.995  1.00  0.00     0.008 A 
ATOM      9  C   UNL     1       6.488   0.470  -1.102  1.00  0.00     0.054 A 
ATOM     10  C   UNL     1       7.309  -1.629   0.465  1.00  0.00     0.051 A 
ATOM     11  C   UNL     1       7.245  -0.545  -1.656  1.00  0.00     0.166 A 
ATOM     12  C   UNL     1       7.658  -1.597  -0.876  1.00  0.00     0.165 A 
ATOM     13  O   UNL     1       7.717  -0.741  -2.943  1.00  0.00    -0.454 OA
ATOM     14  O   UNL     1       8.393  -2.448  -1.703  1.00  0.00    -0.454 OA
ATOM     15  C   UNL     1       8.705  -1.783  -2.905  1.00  0.00     0.468 C 
ENDBRANCH   6   7
ENDBRANCH   1   6
TORSDOF 4
ENDMDL
MODEL 2
REMARK VINA RESULT:      -7.6      2.120      2.512
REMARK SMILES O=C(O)CCc1ccc2c(c1)OCO2
REMARK SMILES IDX 4 1 2 2 1 3 3 4 5 6 6 7 7 8 11 9 8 10 10 11 9 12 12 13 14 14
REMARK SMILES IDX 13 15
REMARK H PARENT 3 5
REMARK Flexibility Score: inf
ROOT
ATOM      1  C   UNL     1       4.701   1.890   0.680  1.00  0.00     0.127 C 
ENDROOT
BRANCH   1   2
ATOM      2  C   UNL     1       4.418   1.168   1.911  1.00  0.00     0.303 C 
ATOM      3  O   UNL     1       5.165   0.350   2.450  1.00  0.00    -0.252 OA
BRANCH   2   4
ATOM      4  O   UNL     1       3.190   1.424   2.541  1.00  0.00    -0.481 OA
ATOM      5  H   UNL     1       3.051   2.363   2.882  1.00  0.00     0.296 HD
ENDBRANCH   2   4
ENDBRANCH   1   2
BRANCH   1   6
ATOM      6  C   UNL     1       6.123   2.259   0.514  1.00  0.00     0.047 C 
BRANCH   6   7
ATOM      7  C   UNL     1       6.974   1.344  -0.250  1.00  0.00    -0.043 A 
ATOM      8  C   UNL     1       8.338   1.558  -0.374  1.00  0.00     0.008 A 
ATOM      9  C   UNL     1       6.436   0.266  -0.901  1.00  0.00     0.054 A 
ATOM     10  C   UNL     1       9.134   0.719  -1.122  1.00  0.00     0.051 A 
ATOM     11  C   UNL     1       7.216  -0.590  -1.656  1.00  0.00     0.166 A 
ATOM     12  C   UNL     1       8.567  -0.367  -1.770  1.00  0.00     0.165 A 
ATOM     13  O   UNL     1       6.896  -1.721  -2.386  1.00  0.00    -0.454 OA
ATOM     14  O   UNL     1       9.076  -1.380  -2.583  1.00  0.00    -0.454 OA
ATOM     15  C   UNL     1       8.014  -2.045  -3.227  1.00  0.00     0.468 C 
ENDBRANCH   6   7
ENDBRANCH   1   6
TORSDOF 4
ENDMDL
MODEL 3
REMARK VINA RESULT:      -7.5      1.987      2.907
REMARK SMILES O=C(O)CCc1ccc2c(c1)OCO2
REMARK SMILES IDX 4 1 2 2 1 3 3 4 5 6 6 7 7 8 11 9 8 10 10 11 9 12 12 13 14 14
REMARK SMILES IDX 13 15
REMARK H PARENT 3 5
REMARK Flexibility Score: inf
ROOT
ATOM      1  C   UNL     1       6.383   1.315   0.599  1.00  0.00     0.127 C 
ENDROOT
BRANCH   1   2
ATOM      2  C   UNL     1       5.217   1.256   1.466  1.00  0.00     0.303 C 
ATOM      3  O   UNL     1       4.256   2.026   1.429  1.00  0.00    -0.252 OA
BRANCH   2   4
ATOM      4  O   UNL     1       5.180   0.234   2.428  1.00  0.00    -0.481 OA
ATOM      5  H   UNL     1       5.190   0.529   3.392  1.00  0.00     0.296 HD
ENDBRANCH   2   4
ENDBRANCH   1   2
BRANCH   1   6
ATOM      6  C   UNL     1       6.151   0.775  -0.757  1.00  0.00     0.047 C 
BRANCH   6   7
ATOM      7  C   UNL     1       6.943  -0.386  -1.169  1.00  0.00    -0.043 A 
ATOM      8  C   UNL     1       7.299  -0.588  -2.494  1.00  0.00     0.008 A 
ATOM      9  C   UNL     1       7.325  -1.332  -0.256  1.00  0.00     0.054 A 
ATOM     10  C   UNL     1       8.013  -1.698  -2.888  1.00  0.00     0.051 A 
ATOM     11  C   UNL     1       8.043  -2.453  -0.628  1.00  0.00     0.166 A 
ATOM     12  C   UNL     1       8.389  -2.640  -1.944  1.00  0.00     0.165 A 
ATOM     13  O   UNL     1       8.528  -3.520   0.109  1.00  0.00    -0.454 OA
ATOM     14  O   UNL     1       9.097  -3.841  -2.008  1.00  0.00    -0.454 OA
ATOM     15  C   UNL     1       8.924  -4.554  -0.805  1.00  0.00     0.468 C 
ENDBRANCH   6   7
ENDBRANCH   1   6
TORSDOF 4
ENDMDL
MODEL 4
REMARK VINA RESULT:      -7.5      1.806      5.288
REMARK SMILES O=C(O)CCc1ccc2c(c1)OCO2
REMARK SMILES IDX 4 1 2 2 1 3 3 4 5 6 6 7 7 8 11 9 8 10 10 11 9 12 12 13 14 14
REMARK SMILES IDX 13 15
REMARK H PARENT 3 5
REMARK Flexibility Score: inf
ROOT
ATOM      1  C   UNL     1       8.312  -0.325  -2.834  1.00  0.00     0.127 C 
ENDROOT
BRANCH   1   2
ATOM      2  C   UNL     1       8.472  -1.752  -3.067  1.00  0.00     0.303 C 
ATOM      3  O   UNL     1       9.539  -2.368  -3.041  1.00  0.00    -0.252 OA
BRANCH   2   4
ATOM      4  O   UNL     1       7.312  -2.493  -3.344  1.00  0.00    -0.481 OA
ATOM      5  H   UNL     1       6.698  -2.113  -4.047  1.00  0.00     0.296 HD
ENDBRANCH   2   4
ENDBRANCH   1   2
BRANCH   1   6
ATOM      6  C   UNL     1       8.770   0.120  -1.500  1.00  0.00     0.047 C 
BRANCH   6   7
ATOM      7  C   UNL     1       7.799   0.085  -0.404  1.00  0.00    -0.043 A 
ATOM      8  C   UNL     1       7.750  -0.976   0.487  1.00  0.00     0.008 A 
ATOM      9  C   UNL     1       6.880   1.089  -0.251  1.00  0.00     0.054 A 
ATOM     10  C   UNL     1       6.815  -1.027   1.496  1.00  0.00     0.051 A 
ATOM     11  C   UNL     1       5.932   1.059   0.755  1.00  0.00     0.166 A 
ATOM     12  C   UNL     1       5.896   0.001   1.631  1.00  0.00     0.165 A 
ATOM     13  O   UNL     1       4.925   1.944   1.095  1.00  0.00    -0.454 OA
ATOM     14  O   UNL     1       4.848   0.249   2.519  1.00  0.00    -0.454 OA
ATOM     15  C   UNL     1       4.040   1.287   2.014  1.00  0.00     0.468 C 
ENDBRANCH   6   7
ENDBRANCH   1   6
TORSDOF 4
ENDMDL
MODEL 5
REMARK VINA RESULT:      -7.4      0.947      2.074
REMARK SMILES O=C(O)CCc1ccc2c(c1)OCO2
REMARK SMILES IDX 4 1 2 2 1 3 3 4 5 6 6 7 7 8 11 9 8 10 10 11 9 12 12 13 14 14
REMARK SMILES IDX 13 15
REMARK H PARENT 3 5
REMARK Flexibility Score: inf
ROOT
ATOM      1  C   UNL     1       5.556   2.653   0.108  1.00  0.00     0.127 C 
ENDROOT
BRANCH   1   2
ATOM      2  C   UNL     1       6.162   3.727   0.880  1.00  0.00     0.303 C 
ATOM      3  O   UNL     1       6.104   3.850   2.105  1.00  0.00    -0.252 OA
BRANCH   2   4
ATOM      4  O   UNL     1       6.873   4.708   0.172  1.00  0.00    -0.481 OA
ATOM      5  H   UNL     1       6.488   5.640   0.194  1.00  0.00     0.296 HD
ENDBRANCH   2   4
ENDBRANCH   1   2
BRANCH   1   6
ATOM      6  C   UNL     1       5.659   1.324   0.746  1.00  0.00     0.047 C 
BRANCH   6   7
ATOM      7  C   UNL     1       6.412   0.288   0.036  1.00  0.00    -0.043 A 
ATOM      8  C   UNL     1       6.500   0.276  -1.348  1.00  0.00     0.008 A 
ATOM      9  C   UNL     1       7.023  -0.728   0.722  1.00  0.00     0.054 A 
ATOM     10  C   UNL     1       7.177  -0.718  -2.019  1.00  0.00     0.051 A 
ATOM     11  C   UNL     1       7.709  -1.735   0.070  1.00  0.00     0.166 A 
ATOM     12  C   UNL     1       7.789  -1.734  -1.302  1.00  0.00     0.165 A 
ATOM     13  O   UNL     1       8.391  -2.841   0.547  1.00  0.00    -0.454 OA
ATOM     14  O   UNL     1       8.532  -2.858  -1.664  1.00  0.00    -0.454 OA
ATOM     15  C   UNL     1       8.647  -3.722  -0.557  1.00  0.00     0.468 C 
ENDBRANCH   6   7
ENDBRANCH   1   6
TORSDOF 4
ENDMDL
