@<TRIPOS>MOLECULE
/home/cewinharhar/GITHUB/reincatalyze/data/processed/docking_pred/2023-May-17-1006_maxeplen10_maxtrainstep1000_seadep16_gamma099_lrac9e-4_lrcr1e-3_sub6/074f71e156faecc69724e62cc987f5104d3c940c_ligand_6.pdbqt
 15 16 0 0 0
SMALL
GASTEIGER

@<TRIPOS>ATOM
      1  C          4.7010    1.8900    0.6800 C.3     1  UNL1        0.1270
      2  C          4.4180    1.1680    1.9110 C.2     1  UNL1        0.3030
      3  O          5.1650    0.3500    2.4500 O.2     1  UNL1       -0.2520
      4  O          3.1900    1.4240    2.5410 O.3     1  UNL1       -0.4810
      5  H          3.0510    2.3630    2.8820 H       1  UNL1        0.2960
      6  C          6.1230    2.2590    0.5140 C.3     1  UNL1        0.0470
      7  C          6.9740    1.3440   -0.2500 C.2     1  UNL1       -0.0430
      8  C          8.3380    1.5580   -0.3740 C.2     1  UNL1        0.0080
      9  C          6.4360    0.2660   -0.9010 C.2     1  UNL1        0.0540
     10  C          9.1340    0.7190   -1.1220 C.2     1  UNL1        0.0510
     11  C          7.2160   -0.5900   -1.6560 C.2     1  UNL1        0.1660
     12  C          8.5670   -0.3670   -1.7700 C.2     1  UNL1        0.1650
     13  O          6.8960   -1.7210   -2.3860 O.2     1  UNL1       -0.4540
     14  O          9.0760   -1.3800   -2.5830 O.2     1  UNL1       -0.4540
     15  C          8.0140   -2.0450   -3.2270 C.3     1  UNL1        0.4680
@<TRIPOS>BOND
     1    15    14    1
     2    15    13    1
     3    14    12    1
     4    13    11    1
     5    12    11    2
     6    12    10    1
     7    11     9    1
     8    10     8    2
     9     9     7    2
    10     8     7    1
    11     7     6    1
    12     6     1    1
    13     1     2    1
    14     2     3    2
    15     2     4    1
    16     4     5    1
