@<TRIPOS>MOLECULE
/home/cewinharhar/GITHUB/reincatalyze/data/processed/docking_pred/2023-May-17-1006_maxeplen10_maxtrainstep1000_seadep16_gamma099_lrac9e-4_lrcr1e-3_sub6/074f71e156faecc69724e62cc987f5104d3c940c_ligand_6.pdbqt
 15 16 0 0 0
SMALL
GASTEIGER

@<TRIPOS>ATOM
      1  C          6.3830    1.3150    0.5990 C.3     1  UNL1        0.1270
      2  C          5.2170    1.2560    1.4660 C.2     1  UNL1        0.3030
      3  O          4.2560    2.0260    1.4290 O.2     1  UNL1       -0.2520
      4  O          5.1800    0.2340    2.4280 O.3     1  UNL1       -0.4810
      5  H          5.1900    0.5290    3.3920 H       1  UNL1        0.2960
      6  C          6.1510    0.7750   -0.7570 C.3     1  UNL1        0.0470
      7  C          6.9430   -0.3860   -1.1690 C.2     1  UNL1       -0.0430
      8  C          7.2990   -0.5880   -2.4940 C.2     1  UNL1        0.0080
      9  C          7.3250   -1.3320   -0.2560 C.2     1  UNL1        0.0540
     10  C          8.0130   -1.6980   -2.8880 C.2     1  UNL1        0.0510
     11  C          8.0430   -2.4530   -0.6280 C.2     1  UNL1        0.1660
     12  C          8.3890   -2.6400   -1.9440 C.2     1  UNL1        0.1650
     13  O          8.5280   -3.5200    0.1090 O.2     1  UNL1       -0.4540
     14  O          9.0970   -3.8410   -2.0080 O.2     1  UNL1       -0.4540
     15  C          8.9240   -4.5540   -0.8050 C.3     1  UNL1        0.4680
@<TRIPOS>BOND
     1    10     8    1
     2    10    12    2
     3     8     7    2
     4    14    12    1
     5    14    15    1
     6    12    11    1
     7     7     6    1
     8     7     9    1
     9    15    13    1
    10     6     1    1
    11    11     9    2
    12    11    13    1
    13     1     2    1
    14     3     2    2
    15     2     4    1
    16     4     5    1
