@<TRIPOS>MOLECULE
/home/cewinharhar/GITHUB/reincatalyze/data/processed/docking_pred/2023-May-17-1006_maxeplen10_maxtrainstep1000_seadep16_gamma099_lrac9e-4_lrcr1e-3_sub6/088b63c47bd4d7a6949fea46fb2e227d24226938_ligand_6.pdbqt
 15 16 0 0 0
SMALL
GASTEIGER

@<TRIPOS>ATOM
      1  C          4.7410    1.8360    0.7240 C.3     1  UNL1        0.1270
      2  C          4.4070    1.1200    1.9450 C.2     1  UNL1        0.3030
      3  O          5.1110    0.2710    2.4940 O.2     1  UNL1       -0.2520
      4  O          3.1770    1.4210    2.5510 O.3     1  UNL1       -0.4810
      5  H          2.3510    1.1910    2.0210 H       1  UNL1        0.2960
      6  C          6.1750    2.1770    0.6010 C.3     1  UNL1        0.0470
      7  C          7.0160    1.2880   -0.2030 C.2     1  UNL1       -0.0430
      8  C          8.3680    1.5370   -0.3830 C.2     1  UNL1        0.0080
      9  C          6.4790    0.1990   -0.8360 C.2     1  UNL1        0.0540
     10  C          9.1530    0.7220   -1.1680 C.2     1  UNL1        0.0510
     11  C          7.2480   -0.6330   -1.6280 C.2     1  UNL1        0.1660
     12  C          8.5860   -0.3750   -1.7970 C.2     1  UNL1        0.1650
     13  O          6.9260   -1.7690   -2.3500 O.2     1  UNL1       -0.4540
     14  O          9.0860   -1.3720   -2.6360 O.2     1  UNL1       -0.4540
     15  C          8.0150   -2.0610   -3.2380 C.3     1  UNL1        0.4680
@<TRIPOS>BOND
     1    15    14    1
     2    15    13    1
     3    14    12    1
     4    13    11    1
     5    12    11    2
     6    12    10    1
     7    11     9    1
     8    10     8    2
     9     9     7    2
    10     8     7    1
    11     7     6    1
    12     6     1    1
    13     1     2    1
    14     2     3    2
    15     2     4    1
    16     5     4    1
