@<TRIPOS>MOLECULE
/home/cewinharhar/GITHUB/reincatalyze/data/processed/docking_pred/2023-May-17-1006_maxeplen10_maxtrainstep1000_seadep16_gamma099_lrac9e-4_lrcr1e-3_sub6/088b63c47bd4d7a6949fea46fb2e227d24226938_ligand_6.pdbqt
 15 16 0 0 0
SMALL
GASTEIGER

@<TRIPOS>ATOM
      1  C          6.4150    1.3810    0.5870 C.3     1  UNL1        0.1270
      2  C          5.2180    1.3820    1.4150 C.2     1  UNL1        0.3030
      3  O          4.2680    2.1580    1.3010 O.2     1  UNL1       -0.2520
      4  O          5.1370    0.4160    2.4300 O.3     1  UNL1       -0.4810
      5  H          4.5340    0.6380    3.2080 H       1  UNL1        0.2960
      6  C          6.2010    0.8520   -0.7770 C.3     1  UNL1        0.0470
      7  C          6.9620   -0.3350   -1.1700 C.2     1  UNL1       -0.0430
      8  C          7.2880   -0.5810   -2.4950 C.2     1  UNL1        0.0080
      9  C          7.3430   -1.2630   -0.2380 C.2     1  UNL1        0.0540
     10  C          7.9720   -1.7150   -2.8710 C.2     1  UNL1        0.0510
     11  C          8.0310   -2.4090   -0.5920 C.2     1  UNL1        0.1660
     12  C          8.3480   -2.6390   -1.9090 C.2     1  UNL1        0.1650
     13  O          8.5090   -3.4640    0.1650 O.2     1  UNL1       -0.4540
     14  O          9.0300   -3.8550   -1.9530 O.2     1  UNL1       -0.4540
     15  C          8.8660   -4.5310   -0.7270 C.3     1  UNL1        0.4680
@<TRIPOS>BOND
     1    10     8    1
     2    10    12    2
     3     8     7    2
     4    14    12    1
     5    14    15    1
     6    12    11    1
     7     7     6    1
     8     7     9    1
     9     6     1    1
    10    15    13    1
    11    11     9    2
    12    11    13    1
    13     1     2    1
    14     3     2    2
    15     2     4    1
    16     4     5    1
