MODEL 1
REMARK VINA RESULT:      -7.7      0.000      0.000
REMARK SMILES O=C(O)CCc1ccc2c(c1)OCO2
REMARK SMILES IDX 4 1 2 2 1 3 3 4 5 6 6 7 7 8 11 9 8 10 10 11 9 12 12 13 14 14
REMARK SMILES IDX 13 15
REMARK H PARENT 3 5
REMARK Flexibility Score: inf
ROOT
ATOM      1  C   UNL     1       4.741   1.836   0.724  1.00  0.00     0.127 C 
ENDROOT
BRANCH   1   2
ATOM      2  C   UNL     1       4.407   1.120   1.945  1.00  0.00     0.303 C 
ATOM      3  O   UNL     1       5.111   0.271   2.494  1.00  0.00    -0.252 OA
BRANCH   2   4
ATOM      4  O   UNL     1       3.177   1.421   2.551  1.00  0.00    -0.481 OA
ATOM      5  H   UNL     1       2.351   1.191   2.021  1.00  0.00     0.296 HD
ENDBRANCH   2   4
ENDBRANCH   1   2
BRANCH   1   6
ATOM      6  C   UNL     1       6.175   2.177   0.601  1.00  0.00     0.047 C 
BRANCH   6   7
ATOM      7  C   UNL     1       7.016   1.288  -0.203  1.00  0.00    -0.043 A 
ATOM      8  C   UNL     1       8.368   1.537  -0.383  1.00  0.00     0.008 A 
ATOM      9  C   UNL     1       6.479   0.199  -0.836  1.00  0.00     0.054 A 
ATOM     10  C   UNL     1       9.153   0.722  -1.168  1.00  0.00     0.051 A 
ATOM     11  C   UNL     1       7.248  -0.633  -1.628  1.00  0.00     0.166 A 
ATOM     12  C   UNL     1       8.586  -0.375  -1.797  1.00  0.00     0.165 A 
ATOM     13  O   UNL     1       6.926  -1.769  -2.350  1.00  0.00    -0.454 OA
ATOM     14  O   UNL     1       9.086  -1.372  -2.636  1.00  0.00    -0.454 OA
ATOM     15  C   UNL     1       8.015  -2.061  -3.238  1.00  0.00     0.468 C 
ENDBRANCH   6   7
ENDBRANCH   1   6
TORSDOF 4
ENDMDL
MODEL 2
REMARK VINA RESULT:      -7.6      2.149      2.549
REMARK SMILES O=C(O)CCc1ccc2c(c1)OCO2
REMARK SMILES IDX 4 1 2 2 1 3 3 4 5 6 6 7 7 8 11 9 8 10 10 11 9 12 12 13 14 14
REMARK SMILES IDX 13 15
REMARK H PARENT 3 5
REMARK Flexibility Score: inf
ROOT
ATOM      1  C   UNL     1       5.429   2.834   0.121  1.00  0.00     0.127 C 
ENDROOT
BRANCH   1   2
ATOM      2  C   UNL     1       6.149   3.816   0.918  1.00  0.00     0.303 C 
ATOM      3  O   UNL     1       6.152   3.878   2.148  1.00  0.00    -0.252 OA
BRANCH   2   4
ATOM      4  O   UNL     1       6.907   4.775   0.227  1.00  0.00    -0.481 OA
ATOM      5  H   UNL     1       7.461   4.434  -0.544  1.00  0.00     0.296 HD
ENDBRANCH   2   4
ENDBRANCH   1   2
BRANCH   1   6
ATOM      6  C   UNL     1       5.327   1.504   0.758  1.00  0.00     0.047 C 
BRANCH   6   7
ATOM      7  C   UNL     1       6.113   0.413   0.177  1.00  0.00    -0.043 A 
ATOM      8  C   UNL     1       6.536  -0.663   0.942  1.00  0.00     0.008 A 
ATOM      9  C   UNL     1       6.489   0.445  -1.140  1.00  0.00     0.054 A 
ATOM     10  C   UNL     1       7.306  -1.671   0.405  1.00  0.00     0.051 A 
ATOM     11  C   UNL     1       7.261  -0.555  -1.700  1.00  0.00     0.166 A 
ATOM     12  C   UNL     1       7.672  -1.616  -0.930  1.00  0.00     0.165 A 
ATOM     13  O   UNL     1       7.750  -0.729  -2.983  1.00  0.00    -0.454 OA
ATOM     14  O   UNL     1       8.424  -2.449  -1.760  1.00  0.00    -0.454 OA
ATOM     15  C   UNL     1       8.745  -1.763  -2.948  1.00  0.00     0.468 C 
ENDBRANCH   6   7
ENDBRANCH   1   6
TORSDOF 4
ENDMDL
MODEL 3
REMARK VINA RESULT:      -7.5      2.501      2.825
REMARK SMILES O=C(O)CCc1ccc2c(c1)OCO2
REMARK SMILES IDX 4 1 2 2 1 3 3 4 5 6 6 7 7 8 11 9 8 10 10 11 9 12 12 13 14 14
REMARK SMILES IDX 13 15
REMARK H PARENT 3 5
REMARK Flexibility Score: inf
ROOT
ATOM      1  C   UNL     1       5.396   2.834   0.116  1.00  0.00     0.127 C 
ENDROOT
BRANCH   1   2
ATOM      2  C   UNL     1       6.216   3.836   0.778  1.00  0.00     0.303 C 
ATOM      3  O   UNL     1       6.909   4.683   0.212  1.00  0.00    -0.252 OA
BRANCH   2   4
ATOM      4  O   UNL     1       6.219   3.842   2.181  1.00  0.00    -0.481 OA
ATOM      5  H   UNL     1       7.123   3.778   2.624  1.00  0.00     0.296 HD
ENDBRANCH   2   4
ENDBRANCH   1   2
BRANCH   1   6
ATOM      6  C   UNL     1       5.415   1.511   0.777  1.00  0.00     0.047 C 
BRANCH   6   7
ATOM      7  C   UNL     1       6.234   0.462   0.167  1.00  0.00    -0.043 A 
ATOM      8  C   UNL     1       6.470   0.427  -1.198  1.00  0.00     0.008 A 
ATOM      9  C   UNL     1       6.763  -0.546   0.931  1.00  0.00     0.054 A 
ATOM     10  C   UNL     1       7.211  -0.580  -1.777  1.00  0.00     0.051 A 
ATOM     11  C   UNL     1       7.509  -1.566   0.372  1.00  0.00     0.166 A 
ATOM     12  C   UNL     1       7.736  -1.586  -0.983  1.00  0.00     0.165 A 
ATOM     13  O   UNL     1       8.130  -2.666   0.937  1.00  0.00    -0.454 OA
ATOM     14  O   UNL     1       8.508  -2.719  -1.245  1.00  0.00    -0.454 OA
ATOM     15  C   UNL     1       8.498  -3.566  -0.119  1.00  0.00     0.468 C 
ENDBRANCH   6   7
ENDBRANCH   1   6
TORSDOF 4
ENDMDL
MODEL 4
REMARK VINA RESULT:      -7.5      1.846      2.492
REMARK SMILES O=C(O)CCc1ccc2c(c1)OCO2
REMARK SMILES IDX 4 1 2 2 1 3 3 4 5 6 6 7 7 8 11 9 8 10 10 11 9 12 12 13 14 14
REMARK SMILES IDX 13 15
REMARK H PARENT 3 5
REMARK Flexibility Score: inf
ROOT
ATOM      1  C   UNL     1       6.415   1.381   0.587  1.00  0.00     0.127 C 
ENDROOT
BRANCH   1   2
ATOM      2  C   UNL     1       5.218   1.382   1.415  1.00  0.00     0.303 C 
ATOM      3  O   UNL     1       4.268   2.158   1.301  1.00  0.00    -0.252 OA
BRANCH   2   4
ATOM      4  O   UNL     1       5.137   0.416   2.430  1.00  0.00    -0.481 OA
ATOM      5  H   UNL     1       4.534   0.638   3.208  1.00  0.00     0.296 HD
ENDBRANCH   2   4
ENDBRANCH   1   2
BRANCH   1   6
ATOM      6  C   UNL     1       6.201   0.852  -0.777  1.00  0.00     0.047 C 
BRANCH   6   7
ATOM      7  C   UNL     1       6.962  -0.335  -1.170  1.00  0.00    -0.043 A 
ATOM      8  C   UNL     1       7.288  -0.581  -2.495  1.00  0.00     0.008 A 
ATOM      9  C   UNL     1       7.343  -1.263  -0.238  1.00  0.00     0.054 A 
ATOM     10  C   UNL     1       7.972  -1.715  -2.871  1.00  0.00     0.051 A 
ATOM     11  C   UNL     1       8.031  -2.409  -0.592  1.00  0.00     0.166 A 
ATOM     12  C   UNL     1       8.348  -2.639  -1.909  1.00  0.00     0.165 A 
ATOM     13  O   UNL     1       8.509  -3.464   0.165  1.00  0.00    -0.454 OA
ATOM     14  O   UNL     1       9.030  -3.855  -1.953  1.00  0.00    -0.454 OA
ATOM     15  C   UNL     1       8.866  -4.531  -0.727  1.00  0.00     0.468 C 
ENDBRANCH   6   7
ENDBRANCH   1   6
TORSDOF 4
ENDMDL
MODEL 5
REMARK VINA RESULT:      -7.5      1.424      5.387
REMARK SMILES O=C(O)CCc1ccc2c(c1)OCO2
REMARK SMILES IDX 4 1 2 2 1 3 3 4 5 6 6 7 7 8 11 9 8 10 10 11 9 12 12 13 14 14
REMARK SMILES IDX 13 15
REMARK H PARENT 3 5
REMARK Flexibility Score: inf
ROOT
ATOM      1  C   UNL     1       8.306  -0.315  -2.845  1.00  0.00     0.127 C 
ENDROOT
BRANCH   1   2
ATOM      2  C   UNL     1       8.465  -1.744  -3.065  1.00  0.00     0.303 C 
ATOM      3  O   UNL     1       9.531  -2.362  -3.026  1.00  0.00    -0.252 OA
BRANCH   2   4
ATOM      4  O   UNL     1       7.307  -2.486  -3.347  1.00  0.00    -0.481 OA
ATOM      5  H   UNL     1       6.535  -1.973  -3.743  1.00  0.00     0.296 HD
ENDBRANCH   2   4
ENDBRANCH   1   2
BRANCH   1   6
ATOM      6  C   UNL     1       8.761   0.141  -1.515  1.00  0.00     0.047 C 
BRANCH   6   7
ATOM      7  C   UNL     1       7.793   0.100  -0.417  1.00  0.00    -0.043 A 
ATOM      8  C   UNL     1       7.748  -0.964   0.470  1.00  0.00     0.008 A 
ATOM      9  C   UNL     1       6.872   1.102  -0.258  1.00  0.00     0.054 A 
ATOM     10  C   UNL     1       6.814  -1.021   1.481  1.00  0.00     0.051 A 
ATOM     11  C   UNL     1       5.927   1.066   0.750  1.00  0.00     0.166 A 
ATOM     12  C   UNL     1       5.894   0.005   1.622  1.00  0.00     0.165 A 
ATOM     13  O   UNL     1       4.918   1.948   1.095  1.00  0.00    -0.454 OA
ATOM     14  O   UNL     1       4.848   0.248   2.513  1.00  0.00    -0.454 OA
ATOM     15  C   UNL     1       4.036   1.286   2.014  1.00  0.00     0.468 C 
ENDBRANCH   6   7
ENDBRANCH   1   6
TORSDOF 4
ENDMDL
