@<TRIPOS>MOLECULE
/home/cewinharhar/GITHUB/reincatalyze/data/processed/docking_pred/2023-May-17-1006_maxeplen10_maxtrainstep1000_seadep16_gamma099_lrac9e-4_lrcr1e-3_sub6/088b63c47bd4d7a6949fea46fb2e227d24226938_ligand_6.pdbqt
 15 16 0 0 0
SMALL
GASTEIGER

@<TRIPOS>ATOM
      1  C          8.3060   -0.3150   -2.8450 C.3     1  UNL1        0.1270
      2  C          8.4650   -1.7440   -3.0650 C.2     1  UNL1        0.3030
      3  O          9.5310   -2.3620   -3.0260 O.2     1  UNL1       -0.2520
      4  O          7.3070   -2.4860   -3.3470 O.3     1  UNL1       -0.4810
      5  H          6.5350   -1.9730   -3.7430 H       1  UNL1        0.2960
      6  C          8.7610    0.1410   -1.5150 C.3     1  UNL1        0.0470
      7  C          7.7930    0.1000   -0.4170 C.2     1  UNL1       -0.0430
      8  C          7.7480   -0.9640    0.4700 C.2     1  UNL1        0.0080
      9  C          6.8720    1.1020   -0.2580 C.2     1  UNL1        0.0540
     10  C          6.8140   -1.0210    1.4810 C.2     1  UNL1        0.0510
     11  C          5.9270    1.0660    0.7500 C.2     1  UNL1        0.1660
     12  C          5.8940    0.0050    1.6220 C.2     1  UNL1        0.1650
     13  O          4.9180    1.9480    1.0950 O.2     1  UNL1       -0.4540
     14  O          4.8480    0.2480    2.5130 O.2     1  UNL1       -0.4540
     15  C          4.0360    1.2860    2.0140 C.3     1  UNL1        0.4680
@<TRIPOS>BOND
     1     5     4    1
     2     4     2    1
     3     2     3    2
     4     2     1    1
     5     1     6    1
     6     6     7    1
     7     7     9    2
     8     7     8    1
     9     9    11    1
    10     8    10    2
    11    11    13    1
    12    11    12    2
    13    13    15    1
    14    10    12    1
    15    12    14    1
    16    15    14    1
