@<TRIPOS>MOLECULE
/home/cewinharhar/GITHUB/reincatalyze/data/processed/docking_pred/2023-May-17-1006_maxeplen10_maxtrainstep1000_seadep16_gamma099_lrac9e-4_lrcr1e-3_sub6/088b63c47bd4d7a6949fea46fb2e227d24226938_ligand_6.pdbqt
 15 16 0 0 0
SMALL
GASTEIGER

@<TRIPOS>ATOM
      1  C          5.3960    2.8340    0.1160 C.3     1  UNL1        0.1270
      2  C          6.2160    3.8360    0.7780 C.2     1  UNL1        0.3030
      3  O          6.9090    4.6830    0.2120 O.2     1  UNL1       -0.2520
      4  O          6.2190    3.8420    2.1810 O.3     1  UNL1       -0.4810
      5  H          7.1230    3.7780    2.6240 H       1  UNL1        0.2960
      6  C          5.4150    1.5110    0.7770 C.3     1  UNL1        0.0470
      7  C          6.2340    0.4620    0.1670 C.2     1  UNL1       -0.0430
      8  C          6.4700    0.4270   -1.1980 C.2     1  UNL1        0.0080
      9  C          6.7630   -0.5460    0.9310 C.2     1  UNL1        0.0540
     10  C          7.2110   -0.5800   -1.7770 C.2     1  UNL1        0.0510
     11  C          7.5090   -1.5660    0.3720 C.2     1  UNL1        0.1660
     12  C          7.7360   -1.5860   -0.9830 C.2     1  UNL1        0.1650
     13  O          8.1300   -2.6660    0.9370 O.2     1  UNL1       -0.4540
     14  O          8.5080   -2.7190   -1.2450 O.2     1  UNL1       -0.4540
     15  C          8.4980   -3.5660   -0.1190 C.3     1  UNL1        0.4680
@<TRIPOS>BOND
     1    10     8    1
     2    10    12    2
     3    14    12    1
     4    14    15    1
     5     8     7    2
     6    12    11    1
     7    15    13    1
     8     1     6    1
     9     1     2    1
    10     7     6    1
    11     7     9    1
    12     3     2    2
    13    11     9    2
    14    11    13    1
    15     2     4    1
    16     4     5    1
