@<TRIPOS>MOLECULE
/home/cewinharhar/GITHUB/reincatalyze/data/processed/docking_pred/2023-May-17-1006_maxeplen10_maxtrainstep1000_seadep16_gamma099_lrac9e-4_lrcr1e-3_sub6/088b63c47bd4d7a6949fea46fb2e227d24226938_ligand_6.pdbqt
 15 16 0 0 0
SMALL
GASTEIGER

@<TRIPOS>ATOM
      1  C          5.4290    2.8340    0.1210 C.3     1  UNL1        0.1270
      2  C          6.1490    3.8160    0.9180 C.2     1  UNL1        0.3030
      3  O          6.1520    3.8780    2.1480 O.2     1  UNL1       -0.2520
      4  O          6.9070    4.7750    0.2270 O.3     1  UNL1       -0.4810
      5  H          7.4610    4.4340   -0.5440 H       1  UNL1        0.2960
      6  C          5.3270    1.5040    0.7580 C.3     1  UNL1        0.0470
      7  C          6.1130    0.4130    0.1770 C.2     1  UNL1       -0.0430
      8  C          6.5360   -0.6630    0.9420 C.2     1  UNL1        0.0080
      9  C          6.4890    0.4450   -1.1400 C.2     1  UNL1        0.0540
     10  C          7.3060   -1.6710    0.4050 C.2     1  UNL1        0.0510
     11  C          7.2610   -0.5550   -1.7000 C.2     1  UNL1        0.1660
     12  C          7.6720   -1.6160   -0.9300 C.2     1  UNL1        0.1650
     13  O          7.7500   -0.7290   -2.9830 O.2     1  UNL1       -0.4540
     14  O          8.4240   -2.4490   -1.7600 O.2     1  UNL1       -0.4540
     15  C          8.7450   -1.7630   -2.9480 C.3     1  UNL1        0.4680
@<TRIPOS>BOND
     1    13    15    1
     2    13    11    1
     3    15    14    1
     4    14    12    1
     5    11     9    1
     6    11    12    2
     7     9     7    2
     8    12    10    1
     9     5     4    1
    10     1     6    1
    11     1     2    1
    12     7     6    1
    13     7     8    1
    14     4     2    1
    15    10     8    2
    16     2     3    2
