MODEL 1
REMARK VINA RESULT:      -7.6      0.000      0.000
REMARK SMILES O=C(O)CCc1ccc2c(c1)OCO2
REMARK SMILES IDX 4 1 2 2 1 3 3 4 5 6 6 7 7 8 11 9 8 10 10 11 9 12 12 13 14 14
REMARK SMILES IDX 13 15
REMARK H PARENT 3 5
REMARK Flexibility Score: inf
ROOT
ATOM      1  C   UNL     1       5.396   2.874   0.119  1.00  0.00     0.127 C 
ENDROOT
BRANCH   1   2
ATOM      2  C   UNL     1       6.224   3.862   0.793  1.00  0.00     0.303 C 
ATOM      3  O   UNL     1       6.894   4.735   0.238  1.00  0.00    -0.252 OA
BRANCH   2   4
ATOM      4  O   UNL     1       6.263   3.821   2.196  1.00  0.00    -0.481 OA
ATOM      5  H   UNL     1       5.827   4.593   2.676  1.00  0.00     0.296 HD
ENDBRANCH   2   4
ENDBRANCH   1   2
BRANCH   1   6
ATOM      6  C   UNL     1       5.333   1.570   0.813  1.00  0.00     0.047 C 
BRANCH   6   7
ATOM      7  C   UNL     1       6.104   0.462   0.245  1.00  0.00    -0.043 A 
ATOM      8  C   UNL     1       6.532  -0.598   1.028  1.00  0.00     0.008 A 
ATOM      9  C   UNL     1       6.459   0.462  -1.077  1.00  0.00     0.054 A 
ATOM     10  C   UNL     1       7.288  -1.623   0.504  1.00  0.00     0.051 A 
ATOM     11  C   UNL     1       7.217  -0.555  -1.626  1.00  0.00     0.166 A 
ATOM     12  C   UNL     1       7.634  -1.601  -0.838  1.00  0.00     0.165 A 
ATOM     13  O   UNL     1       7.685  -0.762  -2.911  1.00  0.00    -0.454 OA
ATOM     14  O   UNL     1       8.368  -2.457  -1.660  1.00  0.00    -0.454 OA
ATOM     15  C   UNL     1       8.675  -1.801  -2.868  1.00  0.00     0.468 C 
ENDBRANCH   6   7
ENDBRANCH   1   6
TORSDOF 4
ENDMDL
MODEL 2
REMARK VINA RESULT:      -7.6      2.130      2.516
REMARK SMILES O=C(O)CCc1ccc2c(c1)OCO2
REMARK SMILES IDX 4 1 2 2 1 3 3 4 5 6 6 7 7 8 11 9 8 10 10 11 9 12 12 13 14 14
REMARK SMILES IDX 13 15
REMARK H PARENT 3 5
REMARK Flexibility Score: inf
ROOT
ATOM      1  C   UNL     1       4.707   1.879   0.686  1.00  0.00     0.127 C 
ENDROOT
BRANCH   1   2
ATOM      2  C   UNL     1       4.421   1.154   1.914  1.00  0.00     0.303 C 
ATOM      3  O   UNL     1       5.164   0.330   2.450  1.00  0.00    -0.252 OA
BRANCH   2   4
ATOM      4  O   UNL     1       3.193   1.413   2.544  1.00  0.00    -0.481 OA
ATOM      5  H   UNL     1       2.526   0.657   2.546  1.00  0.00     0.296 HD
ENDBRANCH   2   4
ENDBRANCH   1   2
BRANCH   1   6
ATOM      6  C   UNL     1       6.130   2.244   0.522  1.00  0.00     0.047 C 
BRANCH   6   7
ATOM      7  C   UNL     1       6.980   1.328  -0.242  1.00  0.00    -0.043 A 
ATOM      8  C   UNL     1       8.345   1.536  -0.363  1.00  0.00     0.008 A 
ATOM      9  C   UNL     1       6.440   0.253  -0.897  1.00  0.00     0.054 A 
ATOM     10  C   UNL     1       9.140   0.697  -1.111  1.00  0.00     0.051 A 
ATOM     11  C   UNL     1       7.217  -0.604  -1.653  1.00  0.00     0.166 A 
ATOM     12  C   UNL     1       8.570  -0.385  -1.762  1.00  0.00     0.165 A 
ATOM     13  O   UNL     1       6.895  -1.732  -2.386  1.00  0.00    -0.454 OA
ATOM     14  O   UNL     1       9.077  -1.399  -2.577  1.00  0.00    -0.454 OA
ATOM     15  C   UNL     1       8.013  -2.058  -3.225  1.00  0.00     0.468 C 
ENDBRANCH   6   7
ENDBRANCH   1   6
TORSDOF 4
ENDMDL
MODEL 3
REMARK VINA RESULT:      -7.5      2.000      2.996
REMARK SMILES O=C(O)CCc1ccc2c(c1)OCO2
REMARK SMILES IDX 4 1 2 2 1 3 3 4 5 6 6 7 7 8 11 9 8 10 10 11 9 12 12 13 14 14
REMARK SMILES IDX 13 15
REMARK H PARENT 3 5
REMARK Flexibility Score: inf
ROOT
ATOM      1  C   UNL     1       6.398   1.258   0.709  1.00  0.00     0.127 C 
ENDROOT
BRANCH   1   2
ATOM      2  C   UNL     1       5.236   1.123   1.573  1.00  0.00     0.303 C 
ATOM      3  O   UNL     1       5.069   0.242   2.418  1.00  0.00    -0.252 OA
BRANCH   2   4
ATOM      4  O   UNL     1       4.215   2.077   1.433  1.00  0.00    -0.481 OA
ATOM      5  H   UNL     1       3.296   1.718   1.225  1.00  0.00     0.296 HD
ENDBRANCH   2   4
ENDBRANCH   1   2
BRANCH   1   6
ATOM      6  C   UNL     1       6.182   0.770  -0.670  1.00  0.00     0.047 C 
BRANCH   6   7
ATOM      7  C   UNL     1       6.953  -0.396  -1.105  1.00  0.00    -0.043 A 
ATOM      8  C   UNL     1       7.262  -0.605  -2.440  1.00  0.00     0.008 A 
ATOM      9  C   UNL     1       7.362  -1.342  -0.202  1.00  0.00     0.054 A 
ATOM     10  C   UNL     1       7.956  -1.719  -2.855  1.00  0.00     0.051 A 
ATOM     11  C   UNL     1       8.061  -2.468  -0.595  1.00  0.00     0.166 A 
ATOM     12  C   UNL     1       8.360  -2.660  -1.922  1.00  0.00     0.165 A 
ATOM     13  O   UNL     1       8.565  -3.535   0.128  1.00  0.00    -0.454 OA
ATOM     14  O   UNL     1       9.059  -3.866  -2.007  1.00  0.00    -0.454 OA
ATOM     15  C   UNL     1       8.924  -4.574  -0.796  1.00  0.00     0.468 C 
ENDBRANCH   6   7
ENDBRANCH   1   6
TORSDOF 4
ENDMDL
MODEL 4
REMARK VINA RESULT:      -7.5      1.805      5.284
REMARK SMILES O=C(O)CCc1ccc2c(c1)OCO2
REMARK SMILES IDX 4 1 2 2 1 3 3 4 5 6 6 7 7 8 11 9 8 10 10 11 9 12 12 13 14 14
REMARK SMILES IDX 13 15
REMARK H PARENT 3 5
REMARK Flexibility Score: inf
ROOT
ATOM      1  C   UNL     1       8.316  -0.326  -2.819  1.00  0.00     0.127 C 
ENDROOT
BRANCH   1   2
ATOM      2  C   UNL     1       8.470  -1.752  -3.059  1.00  0.00     0.303 C 
ATOM      3  O   UNL     1       9.535  -2.372  -3.037  1.00  0.00    -0.252 OA
BRANCH   2   4
ATOM      4  O   UNL     1       7.308  -2.488  -3.341  1.00  0.00    -0.481 OA
ATOM      5  H   UNL     1       6.939  -2.397  -4.275  1.00  0.00     0.296 HD
ENDBRANCH   2   4
ENDBRANCH   1   2
BRANCH   1   6
ATOM      6  C   UNL     1       8.771   0.110  -1.482  1.00  0.00     0.047 C 
BRANCH   6   7
ATOM      7  C   UNL     1       7.796   0.078  -0.390  1.00  0.00    -0.043 A 
ATOM      8  C   UNL     1       7.738  -0.985   0.498  1.00  0.00     0.008 A 
ATOM      9  C   UNL     1       6.880   1.085  -0.239  1.00  0.00     0.054 A 
ATOM     10  C   UNL     1       6.798  -1.034   1.503  1.00  0.00     0.051 A 
ATOM     11  C   UNL     1       5.928   1.057   0.762  1.00  0.00     0.166 A 
ATOM     12  C   UNL     1       5.883  -0.002   1.637  1.00  0.00     0.165 A 
ATOM     13  O   UNL     1       4.923   1.946   1.100  1.00  0.00    -0.454 OA
ATOM     14  O   UNL     1       4.832   0.249   2.520  1.00  0.00    -0.454 OA
ATOM     15  C   UNL     1       4.031   1.291   2.014  1.00  0.00     0.468 C 
ENDBRANCH   6   7
ENDBRANCH   1   6
TORSDOF 4
ENDMDL
