@<TRIPOS>MOLECULE
/home/cewinharhar/GITHUB/reincatalyze/data/processed/docking_pred/2023-May-17-1006_maxeplen10_maxtrainstep1000_seadep16_gamma099_lrac9e-4_lrcr1e-3_sub6/08a74a7e320cd1ecb560e86b752820c061dfae11_ligand_6.pdbqt
 15 16 0 0 0
SMALL
GASTEIGER

@<TRIPOS>ATOM
      1  C          5.3960    2.8740    0.1190 C.3     1  UNL1        0.1270
      2  C          6.2240    3.8620    0.7930 C.2     1  UNL1        0.3030
      3  O          6.8940    4.7350    0.2380 O.2     1  UNL1       -0.2520
      4  O          6.2630    3.8210    2.1960 O.3     1  UNL1       -0.4810
      5  H          5.8270    4.5930    2.6760 H       1  UNL1        0.2960
      6  C          5.3330    1.5700    0.8130 C.3     1  UNL1        0.0470
      7  C          6.1040    0.4620    0.2450 C.2     1  UNL1       -0.0430
      8  C          6.5320   -0.5980    1.0280 C.2     1  UNL1        0.0080
      9  C          6.4590    0.4620   -1.0770 C.2     1  UNL1        0.0540
     10  C          7.2880   -1.6230    0.5040 C.2     1  UNL1        0.0510
     11  C          7.2170   -0.5550   -1.6260 C.2     1  UNL1        0.1660
     12  C          7.6340   -1.6010   -0.8380 C.2     1  UNL1        0.1650
     13  O          7.6850   -0.7620   -2.9110 O.2     1  UNL1       -0.4540
     14  O          8.3680   -2.4570   -1.6600 O.2     1  UNL1       -0.4540
     15  C          8.6750   -1.8010   -2.8680 C.3     1  UNL1        0.4680
@<TRIPOS>BOND
     1    13    15    1
     2    13    11    1
     3    15    14    1
     4    14    12    1
     5    11     9    1
     6    11    12    2
     7     9     7    2
     8    12    10    1
     9     1     2    1
    10     1     6    1
    11     3     2    2
    12     7     6    1
    13     7     8    1
    14    10     8    2
    15     2     4    1
    16     4     5    1
