@<TRIPOS>MOLECULE
/home/cewinharhar/GITHUB/reincatalyze/data/processed/docking_pred/2023-May-17-1006_maxeplen10_maxtrainstep1000_seadep16_gamma099_lrac9e-4_lrcr1e-3_sub6/08a74a7e320cd1ecb560e86b752820c061dfae11_ligand_6.pdbqt
 15 16 0 0 0
SMALL
GASTEIGER

@<TRIPOS>ATOM
      1  C          8.3160   -0.3260   -2.8190 C.3     1  UNL1        0.1270
      2  C          8.4700   -1.7520   -3.0590 C.2     1  UNL1        0.3030
      3  O          9.5350   -2.3720   -3.0370 O.2     1  UNL1       -0.2520
      4  O          7.3080   -2.4880   -3.3410 O.3     1  UNL1       -0.4810
      5  H          6.9390   -2.3970   -4.2750 H       1  UNL1        0.2960
      6  C          8.7710    0.1100   -1.4820 C.3     1  UNL1        0.0470
      7  C          7.7960    0.0780   -0.3900 C.2     1  UNL1       -0.0430
      8  C          7.7380   -0.9850    0.4980 C.2     1  UNL1        0.0080
      9  C          6.8800    1.0850   -0.2390 C.2     1  UNL1        0.0540
     10  C          6.7980   -1.0340    1.5030 C.2     1  UNL1        0.0510
     11  C          5.9280    1.0570    0.7620 C.2     1  UNL1        0.1660
     12  C          5.8830   -0.0020    1.6370 C.2     1  UNL1        0.1650
     13  O          4.9230    1.9460    1.1000 O.2     1  UNL1       -0.4540
     14  O          4.8320    0.2490    2.5200 O.2     1  UNL1       -0.4540
     15  C          4.0310    1.2910    2.0140 C.3     1  UNL1        0.4680
@<TRIPOS>BOND
     1     5     4    1
     2     4     2    1
     3     2     3    2
     4     2     1    1
     5     1     6    1
     6     6     7    1
     7     7     9    2
     8     7     8    1
     9     9    11    1
    10     8    10    2
    11    11    13    1
    12    11    12    2
    13    13    15    1
    14    10    12    1
    15    12    14    1
    16    15    14    1
