@<TRIPOS>MOLECULE
/home/cewinharhar/GITHUB/reincatalyze/data/processed/docking_pred/2023-May-17-1006_maxeplen10_maxtrainstep1000_seadep16_gamma099_lrac9e-4_lrcr1e-3_sub6/08a74a7e320cd1ecb560e86b752820c061dfae11_ligand_6.pdbqt
 15 16 0 0 0
SMALL
GASTEIGER

@<TRIPOS>ATOM
      1  C          4.7070    1.8790    0.6860 C.3     1  UNL1        0.1270
      2  C          4.4210    1.1540    1.9140 C.2     1  UNL1        0.3030
      3  O          5.1640    0.3300    2.4500 O.2     1  UNL1       -0.2520
      4  O          3.1930    1.4130    2.5440 O.3     1  UNL1       -0.4810
      5  H          2.5260    0.6570    2.5460 H       1  UNL1        0.2960
      6  C          6.1300    2.2440    0.5220 C.3     1  UNL1        0.0470
      7  C          6.9800    1.3280   -0.2420 C.2     1  UNL1       -0.0430
      8  C          8.3450    1.5360   -0.3630 C.2     1  UNL1        0.0080
      9  C          6.4400    0.2530   -0.8970 C.2     1  UNL1        0.0540
     10  C          9.1400    0.6970   -1.1110 C.2     1  UNL1        0.0510
     11  C          7.2170   -0.6040   -1.6530 C.2     1  UNL1        0.1660
     12  C          8.5700   -0.3850   -1.7620 C.2     1  UNL1        0.1650
     13  O          6.8950   -1.7320   -2.3860 O.2     1  UNL1       -0.4540
     14  O          9.0770   -1.3990   -2.5770 O.2     1  UNL1       -0.4540
     15  C          8.0130   -2.0580   -3.2250 C.3     1  UNL1        0.4680
@<TRIPOS>BOND
     1    15    14    1
     2    15    13    1
     3    14    12    1
     4    13    11    1
     5    12    11    2
     6    12    10    1
     7    11     9    1
     8    10     8    2
     9     9     7    2
    10     8     7    1
    11     7     6    1
    12     6     1    1
    13     1     2    1
    14     2     3    2
    15     2     4    1
    16     4     5    1
