@<TRIPOS>MOLECULE
/home/cewinharhar/GITHUB/reincatalyze/data/processed/docking_pred/2023-May-17-1006_maxeplen10_maxtrainstep1000_seadep16_gamma099_lrac9e-4_lrcr1e-3_sub6/08a74a7e320cd1ecb560e86b752820c061dfae11_ligand_6.pdbqt
 15 16 0 0 0
SMALL
GASTEIGER

@<TRIPOS>ATOM
      1  C          6.3980    1.2580    0.7090 C.3     1  UNL1        0.1270
      2  C          5.2360    1.1230    1.5730 C.2     1  UNL1        0.3030
      3  O          5.0690    0.2420    2.4180 O.2     1  UNL1       -0.2520
      4  O          4.2150    2.0770    1.4330 O.3     1  UNL1       -0.4810
      5  H          3.2960    1.7180    1.2250 H       1  UNL1        0.2960
      6  C          6.1820    0.7700   -0.6700 C.3     1  UNL1        0.0470
      7  C          6.9530   -0.3960   -1.1050 C.2     1  UNL1       -0.0430
      8  C          7.2620   -0.6050   -2.4400 C.2     1  UNL1        0.0080
      9  C          7.3620   -1.3420   -0.2020 C.2     1  UNL1        0.0540
     10  C          7.9560   -1.7190   -2.8550 C.2     1  UNL1        0.0510
     11  C          8.0610   -2.4680   -0.5950 C.2     1  UNL1        0.1660
     12  C          8.3600   -2.6600   -1.9220 C.2     1  UNL1        0.1650
     13  O          8.5650   -3.5350    0.1280 O.2     1  UNL1       -0.4540
     14  O          9.0590   -3.8660   -2.0070 O.2     1  UNL1       -0.4540
     15  C          8.9240   -4.5740   -0.7960 C.3     1  UNL1        0.4680
@<TRIPOS>BOND
     1    10     8    1
     2    10    12    2
     3     8     7    2
     4    14    12    1
     5    14    15    1
     6    12    11    1
     7     7     6    1
     8     7     9    1
     9    15    13    1
    10     6     1    1
    11    11     9    2
    12    11    13    1
    13     1     2    1
    14     5     4    1
    15     4     2    1
    16     2     3    2
