@<TRIPOS>MOLECULE
/home/cewinharhar/GITHUB/reincatalyze/data/processed/docking_pred/2023-May-17-1006_maxeplen10_maxtrainstep1000_seadep16_gamma099_lrac9e-4_lrcr1e-3_sub6/08d2e2d4a7c660d60546aaed77652d308bf13ce5_ligand_6.pdbqt
 15 16 0 0 0
SMALL
GASTEIGER

@<TRIPOS>ATOM
      1  C          5.5070    2.6660    0.1000 C.3     1  UNL1        0.1270
      2  C          6.1580    3.7020    0.8860 C.2     1  UNL1        0.3030
      3  O          6.2040    3.7470    2.1170 O.2     1  UNL1       -0.2520
      4  O          6.7900    4.7410    0.1850 O.3     1  UNL1       -0.4810
      5  H          6.6280    5.6740    0.5310 H       1  UNL1        0.2960
      6  C          5.5460    1.3260    0.7240 C.3     1  UNL1        0.0470
      7  C          6.3330    0.2890    0.0520 C.2     1  UNL1       -0.0430
      8  C          6.4350    0.2370   -1.3290 C.2     1  UNL1        0.0080
      9  C          6.9640   -0.6890    0.7750 C.2     1  UNL1        0.0540
     10  C          7.1450   -0.7580   -1.9630 C.2     1  UNL1        0.0510
     11  C          7.6830   -1.6970    0.1600 C.2     1  UNL1        0.1660
     12  C          7.7760   -1.7350   -1.2100 C.2     1  UNL1        0.1650
     13  O          8.3890   -2.7680    0.6780 O.2     1  UNL1       -0.4540
     14  O          8.5520   -2.8500   -1.5300 O.2     1  UNL1       -0.4540
     15  C          8.6790   -3.6760   -0.3960 C.3     1  UNL1        0.4680
@<TRIPOS>BOND
     1    10     8    1
     2    10    12    2
     3    14    12    1
     4    14    15    1
     5     8     7    2
     6    12    11    1
     7    15    13    1
     8     7     6    1
     9     7     9    1
    10     1     6    1
    11     1     2    1
    12    11    13    1
    13    11     9    2
    14     4     5    1
    15     4     2    1
    16     2     3    2
