@<TRIPOS>MOLECULE
/home/cewinharhar/GITHUB/reincatalyze/data/processed/docking_pred/2023-May-17-1006_maxeplen10_maxtrainstep1000_seadep16_gamma099_lrac9e-4_lrcr1e-3_sub6/08d2e2d4a7c660d60546aaed77652d308bf13ce5_ligand_6.pdbqt
 15 16 0 0 0
SMALL
GASTEIGER

@<TRIPOS>ATOM
      1  C          5.4070    2.8720    0.1150 C.3     1  UNL1        0.1270
      2  C          6.2300    3.8660    0.7840 C.2     1  UNL1        0.3030
      3  O          6.9040    4.7330    0.2240 O.2     1  UNL1       -0.2520
      4  O          6.2630    3.8390    2.1870 O.3     1  UNL1       -0.4810
      5  H          6.2580    2.9260    2.6140 H       1  UNL1        0.2960
      6  C          5.3530    1.5690    0.8130 C.3     1  UNL1        0.0470
      7  C          6.1120    0.4590    0.2340 C.2     1  UNL1       -0.0430
      8  C          6.5420   -0.6070    1.0090 C.2     1  UNL1        0.0080
      9  C          6.4530    0.4610   -1.0930 C.2     1  UNL1        0.0540
     10  C          7.2860   -1.6350    0.4720 C.2     1  UNL1        0.0510
     11  C          7.1990   -0.5590   -1.6520 C.2     1  UNL1        0.1660
     12  C          7.6180   -1.6100   -0.8730 C.2     1  UNL1        0.1650
     13  O          7.6530   -0.7640   -2.9440 O.2     1  UNL1       -0.4540
     14  O          8.3380   -2.4680   -1.7050 O.2     1  UNL1       -0.4540
     15  C          8.6360   -1.8090   -2.9140 C.3     1  UNL1        0.4680
@<TRIPOS>BOND
     1    13    15    1
     2    13    11    1
     3    15    14    1
     4    14    12    1
     5    11     9    1
     6    11    12    2
     7     9     7    2
     8    12    10    1
     9     1     2    1
    10     1     6    1
    11     3     2    2
    12     7     6    1
    13     7     8    1
    14    10     8    2
    15     2     4    1
    16     4     5    1
