@<TRIPOS>MOLECULE
/home/cewinharhar/GITHUB/reincatalyze/data/processed/docking_pred/2023-May-17-1006_maxeplen10_maxtrainstep1000_seadep16_gamma099_lrac9e-4_lrcr1e-3_sub6/08d2e2d4a7c660d60546aaed77652d308bf13ce5_ligand_6.pdbqt
 15 16 0 0 0
SMALL
GASTEIGER

@<TRIPOS>ATOM
      1  C          6.3850    1.3030    0.6180 C.3     1  UNL1        0.1270
      2  C          5.1880    1.2870    1.4440 C.2     1  UNL1        0.3030
      3  O          4.2600    2.0950    1.3770 O.2     1  UNL1       -0.2520
      4  O          5.0770    0.2650    2.4000 O.3     1  UNL1       -0.4810
      5  H          5.9220   -0.2460    2.6050 H       1  UNL1        0.2960
      6  C          6.1750    0.7880   -0.7530 C.3     1  UNL1        0.0470
      7  C          6.9490   -0.3850   -1.1620 C.2     1  UNL1       -0.0430
      8  C          7.2650   -0.6180   -2.4910 C.2     1  UNL1        0.0080
      9  C          7.3530   -1.3140   -0.2390 C.2     1  UNL1        0.0540
     10  C          7.9620   -1.7400   -2.8810 C.2     1  UNL1        0.0510
     11  C          8.0540   -2.4470   -0.6070 C.2     1  UNL1        0.1660
     12  C          8.3610   -2.6640   -1.9290 C.2     1  UNL1        0.1650
     13  O          8.5550   -3.5000    0.1380 O.2     1  UNL1       -0.4540
     14  O          9.0610   -3.8700   -1.9870 O.2     1  UNL1       -0.4540
     15  C          8.9190   -4.5560   -0.7640 C.3     1  UNL1        0.4680
@<TRIPOS>BOND
     1    10     8    1
     2    10    12    2
     3     8     7    2
     4    14    12    1
     5    14    15    1
     6    12    11    1
     7     7     6    1
     8     7     9    1
     9    15    13    1
    10     6     1    1
    11    11     9    2
    12    11    13    1
    13     1     2    1
    14     3     2    2
    15     2     4    1
    16     4     5    1
