@<TRIPOS>MOLECULE
/home/cewinharhar/GITHUB/reincatalyze/data/processed/docking_pred/2023-May-17-1006_maxeplen10_maxtrainstep1000_seadep16_gamma099_lrac9e-4_lrcr1e-3_sub6/08d2e2d4a7c660d60546aaed77652d308bf13ce5_ligand_6.pdbqt
 15 16 0 0 0
SMALL
GASTEIGER

@<TRIPOS>ATOM
      1  C          8.2880   -0.3340   -2.8460 C.3     1  UNL1        0.1270
      2  C          8.4640   -1.7610   -3.0670 C.2     1  UNL1        0.3030
      3  O          9.5350   -2.3690   -3.0090 O.2     1  UNL1       -0.2520
      4  O          7.3190   -2.5120   -3.3740 O.3     1  UNL1       -0.4810
      5  H          6.5010   -1.9870   -3.6420 H       1  UNL1        0.2960
      6  C          8.7420    0.1270   -1.5170 C.3     1  UNL1        0.0470
      7  C          7.7710    0.0980   -0.4210 C.2     1  UNL1       -0.0430
      8  C          7.7260   -0.9550    0.4800 C.2     1  UNL1        0.0080
      9  C          6.8460    1.0980   -0.2780 C.2     1  UNL1        0.0540
     10  C          6.7900   -1.0010    1.4890 C.2     1  UNL1        0.0510
     11  C          5.8980    1.0730    0.7270 C.2     1  UNL1        0.1660
     12  C          5.8670    0.0240    1.6140 C.2     1  UNL1        0.1650
     13  O          4.8860    1.9570    1.0580 O.2     1  UNL1       -0.4540
     14  O          4.8170    0.2750    2.4980 O.2     1  UNL1       -0.4540
     15  C          4.0040    1.3040    1.9830 C.3     1  UNL1        0.4680
@<TRIPOS>BOND
     1     5     4    1
     2     4     2    1
     3     2     3    2
     4     2     1    1
     5     1     6    1
     6     6     7    1
     7     7     9    2
     8     7     8    1
     9     9    11    1
    10     8    10    2
    11    11    13    1
    12    11    12    2
    13    13    15    1
    14    10    12    1
    15    12    14    1
    16    15    14    1
