MODEL 1
REMARK VINA RESULT:      -7.6      0.000      0.000
REMARK SMILES O=C(O)CCc1ccc2c(c1)OCO2
REMARK SMILES IDX 4 1 2 2 1 3 3 4 5 6 6 7 7 8 11 9 8 10 10 11 9 12 12 13 14 14
REMARK SMILES IDX 13 15
REMARK H PARENT 3 5
REMARK Flexibility Score: inf
ROOT
ATOM      1  C   UNL     1       5.407   2.872   0.115  1.00  0.00     0.127 C 
ENDROOT
BRANCH   1   2
ATOM      2  C   UNL     1       6.230   3.866   0.784  1.00  0.00     0.303 C 
ATOM      3  O   UNL     1       6.904   4.733   0.224  1.00  0.00    -0.252 OA
BRANCH   2   4
ATOM      4  O   UNL     1       6.263   3.839   2.187  1.00  0.00    -0.481 OA
ATOM      5  H   UNL     1       6.258   2.926   2.614  1.00  0.00     0.296 HD
ENDBRANCH   2   4
ENDBRANCH   1   2
BRANCH   1   6
ATOM      6  C   UNL     1       5.353   1.569   0.813  1.00  0.00     0.047 C 
BRANCH   6   7
ATOM      7  C   UNL     1       6.112   0.459   0.234  1.00  0.00    -0.043 A 
ATOM      8  C   UNL     1       6.542  -0.607   1.009  1.00  0.00     0.008 A 
ATOM      9  C   UNL     1       6.453   0.461  -1.093  1.00  0.00     0.054 A 
ATOM     10  C   UNL     1       7.286  -1.635   0.472  1.00  0.00     0.051 A 
ATOM     11  C   UNL     1       7.199  -0.559  -1.652  1.00  0.00     0.166 A 
ATOM     12  C   UNL     1       7.618  -1.610  -0.873  1.00  0.00     0.165 A 
ATOM     13  O   UNL     1       7.653  -0.764  -2.944  1.00  0.00    -0.454 OA
ATOM     14  O   UNL     1       8.338  -2.468  -1.705  1.00  0.00    -0.454 OA
ATOM     15  C   UNL     1       8.636  -1.809  -2.914  1.00  0.00     0.468 C 
ENDBRANCH   6   7
ENDBRANCH   1   6
TORSDOF 4
ENDMDL
MODEL 2
REMARK VINA RESULT:      -7.6      2.124      2.522
REMARK SMILES O=C(O)CCc1ccc2c(c1)OCO2
REMARK SMILES IDX 4 1 2 2 1 3 3 4 5 6 6 7 7 8 11 9 8 10 10 11 9 12 12 13 14 14
REMARK SMILES IDX 13 15
REMARK H PARENT 3 5
REMARK Flexibility Score: inf
ROOT
ATOM      1  C   UNL     1       4.667   1.857   0.665  1.00  0.00     0.127 C 
ENDROOT
BRANCH   1   2
ATOM      2  C   UNL     1       4.396   1.163   1.915  1.00  0.00     0.303 C 
ATOM      3  O   UNL     1       5.149   0.357   2.465  1.00  0.00    -0.252 OA
BRANCH   2   4
ATOM      4  O   UNL     1       3.174   1.432   2.550  1.00  0.00    -0.481 OA
ATOM      5  H   UNL     1       2.718   2.294   2.291  1.00  0.00     0.296 HD
ENDBRANCH   2   4
ENDBRANCH   1   2
BRANCH   1   6
ATOM      6  C   UNL     1       6.081   2.251   0.492  1.00  0.00     0.047 C 
BRANCH   6   7
ATOM      7  C   UNL     1       6.949   1.345  -0.264  1.00  0.00    -0.043 A 
ATOM      8  C   UNL     1       8.310   1.580  -0.387  1.00  0.00     0.008 A 
ATOM      9  C   UNL     1       6.430   0.253  -0.907  1.00  0.00     0.054 A 
ATOM     10  C   UNL     1       9.120   0.748  -1.127  1.00  0.00     0.051 A 
ATOM     11  C   UNL     1       7.224  -0.596  -1.654  1.00  0.00     0.166 A 
ATOM     12  C   UNL     1       8.572  -0.352  -1.767  1.00  0.00     0.165 A 
ATOM     13  O   UNL     1       6.924  -1.738  -2.376  1.00  0.00    -0.454 OA
ATOM     14  O   UNL     1       9.099  -1.363  -2.571  1.00  0.00    -0.454 OA
ATOM     15  C   UNL     1       8.048  -2.050  -3.212  1.00  0.00     0.468 C 
ENDBRANCH   6   7
ENDBRANCH   1   6
TORSDOF 4
ENDMDL
MODEL 3
REMARK VINA RESULT:      -7.5      1.979      2.908
REMARK SMILES O=C(O)CCc1ccc2c(c1)OCO2
REMARK SMILES IDX 4 1 2 2 1 3 3 4 5 6 6 7 7 8 11 9 8 10 10 11 9 12 12 13 14 14
REMARK SMILES IDX 13 15
REMARK H PARENT 3 5
REMARK Flexibility Score: inf
ROOT
ATOM      1  C   UNL     1       6.385   1.303   0.618  1.00  0.00     0.127 C 
ENDROOT
BRANCH   1   2
ATOM      2  C   UNL     1       5.188   1.287   1.444  1.00  0.00     0.303 C 
ATOM      3  O   UNL     1       4.260   2.095   1.377  1.00  0.00    -0.252 OA
BRANCH   2   4
ATOM      4  O   UNL     1       5.077   0.265   2.400  1.00  0.00    -0.481 OA
ATOM      5  H   UNL     1       5.922  -0.246   2.605  1.00  0.00     0.296 HD
ENDBRANCH   2   4
ENDBRANCH   1   2
BRANCH   1   6
ATOM      6  C   UNL     1       6.175   0.788  -0.753  1.00  0.00     0.047 C 
BRANCH   6   7
ATOM      7  C   UNL     1       6.949  -0.385  -1.162  1.00  0.00    -0.043 A 
ATOM      8  C   UNL     1       7.265  -0.618  -2.491  1.00  0.00     0.008 A 
ATOM      9  C   UNL     1       7.353  -1.314  -0.239  1.00  0.00     0.054 A 
ATOM     10  C   UNL     1       7.962  -1.740  -2.881  1.00  0.00     0.051 A 
ATOM     11  C   UNL     1       8.054  -2.447  -0.607  1.00  0.00     0.166 A 
ATOM     12  C   UNL     1       8.361  -2.664  -1.929  1.00  0.00     0.165 A 
ATOM     13  O   UNL     1       8.555  -3.500   0.138  1.00  0.00    -0.454 OA
ATOM     14  O   UNL     1       9.061  -3.870  -1.987  1.00  0.00    -0.454 OA
ATOM     15  C   UNL     1       8.919  -4.556  -0.764  1.00  0.00     0.468 C 
ENDBRANCH   6   7
ENDBRANCH   1   6
TORSDOF 4
ENDMDL
MODEL 4
REMARK VINA RESULT:      -7.5      1.805      5.290
REMARK SMILES O=C(O)CCc1ccc2c(c1)OCO2
REMARK SMILES IDX 4 1 2 2 1 3 3 4 5 6 6 7 7 8 11 9 8 10 10 11 9 12 12 13 14 14
REMARK SMILES IDX 13 15
REMARK H PARENT 3 5
REMARK Flexibility Score: inf
ROOT
ATOM      1  C   UNL     1       8.288  -0.334  -2.846  1.00  0.00     0.127 C 
ENDROOT
BRANCH   1   2
ATOM      2  C   UNL     1       8.464  -1.761  -3.067  1.00  0.00     0.303 C 
ATOM      3  O   UNL     1       9.535  -2.369  -3.009  1.00  0.00    -0.252 OA
BRANCH   2   4
ATOM      4  O   UNL     1       7.319  -2.512  -3.374  1.00  0.00    -0.481 OA
ATOM      5  H   UNL     1       6.501  -1.987  -3.642  1.00  0.00     0.296 HD
ENDBRANCH   2   4
ENDBRANCH   1   2
BRANCH   1   6
ATOM      6  C   UNL     1       8.742   0.127  -1.517  1.00  0.00     0.047 C 
BRANCH   6   7
ATOM      7  C   UNL     1       7.771   0.098  -0.421  1.00  0.00    -0.043 A 
ATOM      8  C   UNL     1       7.726  -0.955   0.480  1.00  0.00     0.008 A 
ATOM      9  C   UNL     1       6.846   1.098  -0.278  1.00  0.00     0.054 A 
ATOM     10  C   UNL     1       6.790  -1.001   1.489  1.00  0.00     0.051 A 
ATOM     11  C   UNL     1       5.898   1.073   0.727  1.00  0.00     0.166 A 
ATOM     12  C   UNL     1       5.867   0.024   1.614  1.00  0.00     0.165 A 
ATOM     13  O   UNL     1       4.886   1.957   1.058  1.00  0.00    -0.454 OA
ATOM     14  O   UNL     1       4.817   0.275   2.498  1.00  0.00    -0.454 OA
ATOM     15  C   UNL     1       4.004   1.304   1.983  1.00  0.00     0.468 C 
ENDBRANCH   6   7
ENDBRANCH   1   6
TORSDOF 4
ENDMDL
