@<TRIPOS>MOLECULE
/home/cewinharhar/GITHUB/reincatalyze/data/processed/docking_pred/2023-May-17-1006_maxeplen10_maxtrainstep1000_seadep16_gamma099_lrac9e-4_lrcr1e-3_sub6/08d2e2d4a7c660d60546aaed77652d308bf13ce5_ligand_6.pdbqt
 15 16 0 0 0
SMALL
GASTEIGER

@<TRIPOS>ATOM
      1  C          4.6670    1.8570    0.6650 C.3     1  UNL1        0.1270
      2  C          4.3960    1.1630    1.9150 C.2     1  UNL1        0.3030
      3  O          5.1490    0.3570    2.4650 O.2     1  UNL1       -0.2520
      4  O          3.1740    1.4320    2.5500 O.3     1  UNL1       -0.4810
      5  H          2.7180    2.2940    2.2910 H       1  UNL1        0.2960
      6  C          6.0810    2.2510    0.4920 C.3     1  UNL1        0.0470
      7  C          6.9490    1.3450   -0.2640 C.2     1  UNL1       -0.0430
      8  C          8.3100    1.5800   -0.3870 C.2     1  UNL1        0.0080
      9  C          6.4300    0.2530   -0.9070 C.2     1  UNL1        0.0540
     10  C          9.1200    0.7480   -1.1270 C.2     1  UNL1        0.0510
     11  C          7.2240   -0.5960   -1.6540 C.2     1  UNL1        0.1660
     12  C          8.5720   -0.3520   -1.7670 C.2     1  UNL1        0.1650
     13  O          6.9240   -1.7380   -2.3760 O.2     1  UNL1       -0.4540
     14  O          9.0990   -1.3630   -2.5710 O.2     1  UNL1       -0.4540
     15  C          8.0480   -2.0500   -3.2120 C.3     1  UNL1        0.4680
@<TRIPOS>BOND
     1    15    14    1
     2    15    13    1
     3    14    12    1
     4    13    11    1
     5    12    11    2
     6    12    10    1
     7    11     9    1
     8    10     8    2
     9     9     7    2
    10     8     7    1
    11     7     6    1
    12     6     1    1
    13     1     2    1
    14     2     3    2
    15     2     4    1
    16     5     4    1
