@<TRIPOS>MOLECULE
/home/cewinharhar/GITHUB/reincatalyze/data/processed/docking_pred/2023-May-17-1006_maxeplen10_maxtrainstep1000_seadep16_gamma099_lrac9e-4_lrcr1e-3_sub6/08e84468c81f1cd513554bb3b422d21af10d92b8_ligand_6.pdbqt
 15 16 0 0 0
SMALL
GASTEIGER

@<TRIPOS>ATOM
      1  C          8.3110   -0.3190   -2.8620 C.3     1  UNL1        0.1270
      2  C          8.4740   -1.7490   -3.0730 C.2     1  UNL1        0.3030
      3  O          9.5420   -2.3620   -3.0330 O.2     1  UNL1       -0.2520
      4  O          7.3170   -2.4950   -3.3450 O.3     1  UNL1       -0.4810
      5  H          6.9750   -3.0760   -2.5950 H       1  UNL1        0.2960
      6  C          8.7610    0.1470   -1.5320 C.3     1  UNL1        0.0470
      7  C          7.7910    0.1040   -0.4360 C.2     1  UNL1       -0.0430
      8  C          7.7360   -0.9670    0.4420 C.2     1  UNL1        0.0080
      9  C          6.8770    1.1110   -0.2700 C.2     1  UNL1        0.0540
     10  C          6.8010   -1.0260    1.4510 C.2     1  UNL1        0.0510
     11  C          5.9300    1.0740    0.7360 C.2     1  UNL1        0.1660
     12  C          5.8890    0.0060    1.6000 C.2     1  UNL1        0.1650
     13  O          4.9280    1.9610    1.0870 O.2     1  UNL1       -0.4540
     14  O          4.8420    0.2490    2.4910 O.2     1  UNL1       -0.4540
     15  C          4.0390    1.2970    1.9990 C.3     1  UNL1        0.4680
@<TRIPOS>BOND
     1     4     2    1
     2     4     5    1
     3     2     3    2
     4     2     1    1
     5     1     6    1
     6     6     7    1
     7     7     9    2
     8     7     8    1
     9     9    11    1
    10     8    10    2
    11    11    13    1
    12    11    12    2
    13    13    15    1
    14    10    12    1
    15    12    14    1
    16    15    14    1
