@<TRIPOS>MOLECULE
/home/cewinharhar/GITHUB/reincatalyze/data/processed/docking_pred/2023-May-17-1006_maxeplen10_maxtrainstep1000_seadep16_gamma099_lrac9e-4_lrcr1e-3_sub6/08e84468c81f1cd513554bb3b422d21af10d92b8_ligand_6.pdbqt
 15 16 0 0 0
SMALL
GASTEIGER

@<TRIPOS>ATOM
      1  C          5.4140    2.8670    0.1270 C.3     1  UNL1        0.1270
      2  C          6.2430    3.8500    0.8080 C.2     1  UNL1        0.3030
      3  O          6.8830    4.7490    0.2610 O.2     1  UNL1       -0.2520
      4  O          6.3200    3.7690    2.2070 O.3     1  UNL1       -0.4810
      5  H          5.8850    4.5190    2.7210 H       1  UNL1        0.2960
      6  C          5.3470    1.5590    0.8140 C.3     1  UNL1        0.0470
      7  C          6.1290    0.4570    0.2500 C.2     1  UNL1       -0.0430
      8  C          6.5850   -0.5870    1.0400 C.2     1  UNL1        0.0080
      9  C          6.4660    0.4460   -1.0770 C.2     1  UNL1        0.0540
     10  C          7.3500   -1.6060    0.5180 C.2     1  UNL1        0.0510
     11  C          7.2330   -0.5660   -1.6230 C.2     1  UNL1        0.1660
     12  C          7.6770   -1.5950   -0.8290 C.2     1  UNL1        0.1650
     13  O          7.6870   -0.7810   -2.9130 O.2     1  UNL1       -0.4540
     14  O          8.4140   -2.4490   -1.6500 O.2     1  UNL1       -0.4540
     15  C          8.6940   -1.8030   -2.8700 C.3     1  UNL1        0.4680
@<TRIPOS>BOND
     1    13    15    1
     2    13    11    1
     3    15    14    1
     4    14    12    1
     5    11     9    1
     6    11    12    2
     7     9     7    2
     8    12    10    1
     9     1     2    1
    10     1     6    1
    11     7     6    1
    12     7     8    1
    13     3     2    2
    14    10     8    2
    15     2     4    1
    16     4     5    1
