@<TRIPOS>MOLECULE
/home/cewinharhar/GITHUB/reincatalyze/data/processed/docking_pred/2023-May-17-1006_maxeplen10_maxtrainstep1000_seadep16_gamma099_lrac9e-4_lrcr1e-3_sub6/08e84468c81f1cd513554bb3b422d21af10d92b8_ligand_6.pdbqt
 15 16 0 0 0
SMALL
GASTEIGER

@<TRIPOS>ATOM
      1  C          6.3970    1.2800    0.6420 C.3     1  UNL1        0.1270
      2  C          5.2620    1.1430    1.5410 C.2     1  UNL1        0.3030
      3  O          5.1290    0.2700    2.4010 O.2     1  UNL1       -0.2520
      4  O          4.2280    2.0850    1.4220 O.3     1  UNL1       -0.4810
      5  H          3.4060    1.7820    0.9200 H       1  UNL1        0.2960
      6  C          6.1560    0.7440   -0.7150 C.3     1  UNL1        0.0470
      7  C          6.9450   -0.4170   -1.1340 C.2     1  UNL1       -0.0430
      8  C          7.2920   -0.6150   -2.4610 C.2     1  UNL1        0.0080
      9  C          7.3320   -1.3660   -0.2250 C.2     1  UNL1        0.0540
     10  C          8.0030   -1.7250   -2.8630 C.2     1  UNL1        0.0510
     11  C          8.0460   -2.4860   -0.6050 C.2     1  UNL1        0.1660
     12  C          8.3840   -2.6700   -1.9240 C.2     1  UNL1        0.1650
     13  O          8.5350   -3.5550    0.1250 O.2     1  UNL1       -0.4540
     14  O          9.0900   -3.8720   -1.9960 O.2     1  UNL1       -0.4540
     15  C          8.9240   -4.5870   -0.7940 C.3     1  UNL1        0.4680
@<TRIPOS>BOND
     1    10     8    1
     2    10    12    2
     3     8     7    2
     4    14    12    1
     5    14    15    1
     6    12    11    1
     7     7     6    1
     8     7     9    1
     9    15    13    1
    10     6     1    1
    11    11     9    2
    12    11    13    1
    13     1     2    1
    14     5     4    1
    15     4     2    1
    16     2     3    2
