@<TRIPOS>MOLECULE
/home/cewinharhar/GITHUB/reincatalyze/data/processed/docking_pred/2023-May-17-1006_maxeplen10_maxtrainstep1000_seadep16_gamma099_lrac9e-4_lrcr1e-3_sub6/08e84468c81f1cd513554bb3b422d21af10d92b8_ligand_6.pdbqt
 15 16 0 0 0
SMALL
GASTEIGER

@<TRIPOS>ATOM
      1  C          5.3840    2.8320    0.3650 C.3     1  UNL1        0.1270
      2  C          6.2390    3.7720    1.0730 C.2     1  UNL1        0.3030
      3  O          6.4640    3.7650    2.2850 O.2     1  UNL1       -0.2520
      4  O          6.8620    4.7750    0.3130 O.3     1  UNL1       -0.4810
      5  H          7.4460    5.4200    0.8220 H       1  UNL1        0.2960
      6  C          5.3740    1.4730    0.9480 C.3     1  UNL1        0.0470
      7  C          6.2200    0.4590    0.3150 C.2     1  UNL1       -0.0430
      8  C          6.4980    0.4920   -1.0430 C.2     1  UNL1        0.0080
      9  C          6.7320   -0.5810    1.0450 C.2     1  UNL1        0.0540
     10  C          7.2640   -0.4820   -1.6460 C.2     1  UNL1        0.0510
     11  C          7.5030   -1.5680    0.4620 C.2     1  UNL1        0.1660
     12  C          7.7720   -1.5220   -0.8850 C.2     1  UNL1        0.1650
     13  O          8.1150   -2.6900    0.9920 O.2     1  UNL1       -0.4540
     14  O          8.5600   -2.6360   -1.1770 O.2     1  UNL1       -0.4540
     15  C          8.5220   -3.5360   -0.0940 C.3     1  UNL1        0.4680
@<TRIPOS>BOND
     1    10     8    1
     2    10    12    2
     3    14    12    1
     4    14    15    1
     5     8     7    2
     6    12    11    1
     7    15    13    1
     8     4     5    1
     9     4     2    1
    10     7     6    1
    11     7     9    1
    12     1     6    1
    13     1     2    1
    14    11    13    1
    15    11     9    2
    16     2     3    2
