@<TRIPOS>MOLECULE
/home/cewinharhar/GITHUB/reincatalyze/data/processed/docking_pred/2023-May-17-1006_maxeplen10_maxtrainstep1000_seadep16_gamma099_lrac9e-4_lrcr1e-3_sub6/090474ec6ad34f6c7e6271970b3dfdf762d08d64_ligand_6.pdbqt
 15 16 0 0 0
SMALL
GASTEIGER

@<TRIPOS>ATOM
      1  C          5.4100    2.8480    0.1130 C.3     1  UNL1        0.1270
      2  C          6.3270    3.7300    0.8170 C.2     1  UNL1        0.3030
      3  O          6.8040    4.7740    0.3700 O.2     1  UNL1       -0.2520
      4  O          6.7030    3.3620    2.1190 O.3     1  UNL1       -0.4810
      5  H          7.6270    2.9720    2.2220 H       1  UNL1        0.2960
      6  C          5.2600    1.5160    0.7370 C.3     1  UNL1        0.0470
      7  C          6.0550    0.4160    0.1870 C.2     1  UNL1       -0.0430
      8  C          6.4860   -0.6350    0.9820 C.2     1  UNL1        0.0080
      9  C          6.4330    0.4150   -1.1290 C.2     1  UNL1        0.0540
     10  C          7.2640   -1.6510    0.4750 C.2     1  UNL1        0.0510
     11  C          7.2130   -0.5940   -1.6610 C.2     1  UNL1        0.1660
     12  C          7.6310   -1.6300   -0.8610 C.2     1  UNL1        0.1650
     13  O          7.7050   -0.8000   -2.9370 O.2     1  UNL1       -0.4540
     14  O          8.3910   -2.4800   -1.6670 O.2     1  UNL1       -0.4540
     15  C          8.7090   -1.8240   -2.8730 C.3     1  UNL1        0.4680
@<TRIPOS>BOND
     1    13    15    1
     2    13    11    1
     3    15    14    1
     4    14    12    1
     5    11     9    1
     6    11    12    2
     7     9     7    2
     8    12    10    1
     9     1     6    1
    10     1     2    1
    11     7     6    1
    12     7     8    1
    13     3     2    2
    14    10     8    2
    15     2     4    1
    16     4     5    1
