@<TRIPOS>MOLECULE
/home/cewinharhar/GITHUB/reincatalyze/data/processed/docking_pred/2023-May-17-1006_maxeplen10_maxtrainstep1000_seadep16_gamma099_lrac9e-4_lrcr1e-3_sub6/090474ec6ad34f6c7e6271970b3dfdf762d08d64_ligand_6.pdbqt
 15 16 0 0 0
SMALL
GASTEIGER

@<TRIPOS>ATOM
      1  C          4.7010    1.8890    0.7750 C.3     1  UNL1        0.1270
      2  C          4.3430    1.1380    1.9680 C.2     1  UNL1        0.3030
      3  O          5.0200    0.2480    2.4860 O.2     1  UNL1       -0.2520
      4  O          3.1210    1.4510    2.5840 O.3     1  UNL1       -0.4810
      5  H          2.4820    0.6830    2.7220 H       1  UNL1        0.2960
      6  C          6.1350    2.2390    0.6950 C.3     1  UNL1        0.0470
      7  C          7.0070    1.3530   -0.0800 C.2     1  UNL1       -0.0430
      8  C          8.3790    1.5460   -0.1270 C.2     1  UNL1        0.0080
      9  C          6.4830    0.3240   -0.8160 C.2     1  UNL1        0.0540
     10  C          9.1950    0.7360   -0.8840 C.2     1  UNL1        0.0510
     11  C          7.2830   -0.5020   -1.5820 C.2     1  UNL1        0.1660
     12  C          8.6410   -0.2990   -1.6190 C.2     1  UNL1        0.1650
     13  O          6.9790   -1.5830   -2.3910 O.2     1  UNL1       -0.4540
     14  O          9.1710   -1.2750   -2.4650 O.2     1  UNL1       -0.4540
     15  C          8.1300   -1.8800   -3.1950 C.3     1  UNL1        0.4680
@<TRIPOS>BOND
     1    15    14    1
     2    15    13    1
     3    14    12    1
     4    13    11    1
     5    12    11    2
     6    12    10    1
     7    11     9    1
     8    10     8    2
     9     9     7    2
    10     8     7    1
    11     7     6    1
    12     6     1    1
    13     1     2    1
    14     2     3    2
    15     2     4    1
    16     4     5    1
