@<TRIPOS>MOLECULE
/home/cewinharhar/GITHUB/reincatalyze/data/processed/docking_pred/2023-May-17-1006_maxeplen10_maxtrainstep1000_seadep16_gamma099_lrac9e-4_lrcr1e-3_sub6/090474ec6ad34f6c7e6271970b3dfdf762d08d64_ligand_6.pdbqt
 15 16 0 0 0
SMALL
GASTEIGER

@<TRIPOS>ATOM
      1  C          8.1460   -1.2650   -0.1690 C.3     1  UNL1        0.1270
      2  C          7.9810   -2.4530    0.6530 C.2     1  UNL1        0.3030
      3  O          8.7810   -3.3860    0.7340 O.2     1  UNL1       -0.2520
      4  O          6.8100   -2.5480    1.4220 O.3     1  UNL1       -0.4810
      5  H          6.8970   -2.3070    2.3970 H       1  UNL1        0.2960
      6  C          6.8720   -0.6310   -0.5700 C.3     1  UNL1        0.0470
      7  C          6.5660    0.6880   -0.0110 C.2     1  UNL1       -0.0430
      8  C          5.4820    1.4300   -0.4540 C.2     1  UNL1        0.0080
      9  C          7.3730    1.2480    0.9440 C.2     1  UNL1        0.0540
     10  C          5.2150    2.6850    0.0440 C.2     1  UNL1        0.0510
     11  C          7.1230    2.5060    1.4590 C.2     1  UNL1        0.1660
     12  C          6.0440    3.2290    1.0110 C.2     1  UNL1        0.1650
     13  O          7.7890    3.2570    2.4120 O.2     1  UNL1       -0.4540
     14  O          6.0550    4.4400    1.7050 O.2     1  UNL1       -0.4540
     15  C          7.2980    4.6050    2.3460 C.3     1  UNL1        0.4680
@<TRIPOS>BOND
     1     6     1    1
     2     6     7    1
     3     8     7    2
     4     8    10    1
     5     1     2    1
     6     7     9    1
     7    10    12    2
     8     2     3    2
     9     2     4    1
    10     9    11    2
    11    12    11    1
    12    12    14    1
    13     4     5    1
    14    11    13    1
    15    14    15    1
    16    15    13    1
