@<TRIPOS>MOLECULE
/home/cewinharhar/GITHUB/reincatalyze/data/processed/docking_pred/2023-May-17-1006_maxeplen10_maxtrainstep1000_seadep16_gamma099_lrac9e-4_lrcr1e-3_sub6/090474ec6ad34f6c7e6271970b3dfdf762d08d64_ligand_6.pdbqt
 15 16 0 0 0
SMALL
GASTEIGER

@<TRIPOS>ATOM
      1  C          6.0160    0.5760    0.2570 C.3     1  UNL1        0.1270
      2  C          5.1610    1.1300    1.2960 C.2     1  UNL1        0.3030
      3  O          4.5820    2.2160    1.2440 O.2     1  UNL1       -0.2520
      4  O          4.9790    0.3630    2.4570 O.3     1  UNL1       -0.4810
      5  H          5.4900    0.6620    3.2730 H       1  UNL1        0.2960
      6  C          7.1840    1.4210   -0.0730 C.3     1  UNL1        0.0470
      7  C          8.2930    1.4460    0.8830 C.2     1  UNL1       -0.0430
      8  C          8.3420    2.3730    1.9120 C.2     1  UNL1        0.0080
      9  C          9.3410    0.5720    0.7630 C.2     1  UNL1        0.0540
     10  C          9.4020    2.4210    2.7900 C.2     1  UNL1        0.0510
     11  C         10.4150    0.6010    1.6320 C.2     1  UNL1        0.1660
     12  C         10.4500    1.5260    2.6480 C.2     1  UNL1        0.1650
     13  O         11.5620   -0.1690    1.7010 O.2     1  UNL1       -0.4540
     14  O         11.6390    1.3120    3.3460 O.2     1  UNL1       -0.4540
     15  C         12.4860    0.4780    2.5900 C.3     1  UNL1        0.4680
@<TRIPOS>BOND
     1     6     1    1
     2     6     7    1
     3     1     2    1
     4     9     7    2
     5     9    11    1
     6     7     8    1
     7     3     2    2
     8     2     4    1
     9    11    13    1
    10    11    12    2
    11    13    15    1
    12     8    10    2
    13     4     5    1
    14    15    14    1
    15    12    10    1
    16    12    14    1
