@<TRIPOS>MOLECULE
/home/cewinharhar/GITHUB/reincatalyze/data/processed/docking_pred/2023-May-17-1006_maxeplen10_maxtrainstep1000_seadep16_gamma099_lrac9e-4_lrcr1e-3_sub6/090474ec6ad34f6c7e6271970b3dfdf762d08d64_ligand_6.pdbqt
 15 16 0 0 0
SMALL
GASTEIGER

@<TRIPOS>ATOM
      1  C          8.0890   -0.5080   -2.2680 C.3     1  UNL1        0.1270
      2  C          8.3710   -1.7760   -2.9230 C.2     1  UNL1        0.3030
      3  O          9.4830   -2.2930   -3.0360 O.2     1  UNL1       -0.2520
      4  O          7.2840   -2.4720   -3.4750 O.3     1  UNL1       -0.4810
      5  H          7.1890   -3.4380   -3.2020 H       1  UNL1        0.2960
      6  C          6.9020   -0.5380   -1.3870 C.3     1  UNL1        0.0470
      7  C          6.6430    0.6410   -0.5590 C.2     1  UNL1       -0.0430
      8  C          5.5050    1.4140   -0.7330 C.2     1  UNL1        0.0080
      9  C          7.5440    1.0400    0.3930 C.2     1  UNL1        0.0540
     10  C          5.2780    2.5440    0.0200 C.2     1  UNL1        0.0510
     11  C          7.3370    2.1700    1.1610 C.2     1  UNL1        0.1660
     12  C          6.2040    2.9250    0.9780 C.2     1  UNL1        0.1650
     13  O          8.0950    2.7520    2.1620 O.2     1  UNL1       -0.4540
     14  O          6.2760    3.9850    1.8840 O.2     1  UNL1       -0.4540
     15  C          7.5810    4.0700    2.4060 C.3     1  UNL1        0.4680
@<TRIPOS>BOND
     1     4     5    1
     2     4     2    1
     3     3     2    2
     4     2     1    1
     5     1     6    1
     6     6     7    1
     7     8     7    2
     8     8    10    1
     9     7     9    1
    10    10    12    2
    11     9    11    2
    12    12    11    1
    13    12    14    1
    14    11    13    1
    15    14    15    1
    16    13    15    1
