MODEL 1
REMARK VINA RESULT:      -7.8      0.000      0.000
REMARK SMILES O=C(O)CCc1ccc2c(c1)OCO2
REMARK SMILES IDX 4 1 2 2 1 3 3 4 5 6 6 7 7 8 11 9 8 10 10 11 9 12 12 13 14 14
REMARK SMILES IDX 13 15
REMARK H PARENT 3 5
REMARK Flexibility Score: inf
ROOT
ATOM      1  C   UNL     1       5.629   1.703   0.864  1.00  0.00     0.127 C 
ENDROOT
BRANCH   1   2
ATOM      2  C   UNL     1       4.967   0.862   1.848  1.00  0.00     0.303 C 
ATOM      3  O   UNL     1       5.420  -0.183   2.319  1.00  0.00    -0.252 OA
BRANCH   2   4
ATOM      4  O   UNL     1       3.703   1.272   2.301  1.00  0.00    -0.481 OA
ATOM      5  H   UNL     1       3.689   2.067   2.920  1.00  0.00     0.296 HD
ENDBRANCH   2   4
ENDBRANCH   1   2
BRANCH   1   6
ATOM      6  C   UNL     1       5.709   1.102  -0.484  1.00  0.00     0.047 C 
BRANCH   6   7
ATOM      7  C   UNL     1       6.953   0.420  -0.849  1.00  0.00    -0.043 A 
ATOM      8  C   UNL     1       8.187   1.034  -0.699  1.00  0.00     0.008 A 
ATOM      9  C   UNL     1       6.929  -0.839  -1.388  1.00  0.00     0.054 A 
ATOM     10  C   UNL     1       9.354   0.408  -1.075  1.00  0.00     0.051 A 
ATOM     11  C   UNL     1       8.088  -1.487  -1.772  1.00  0.00     0.166 A 
ATOM     12  C   UNL     1       9.304  -0.867  -1.617  1.00  0.00     0.165 A 
ATOM     13  O   UNL     1       8.301  -2.736  -2.329  1.00  0.00    -0.454 OA
ATOM     14  O   UNL     1      10.273  -1.755  -2.087  1.00  0.00    -0.454 OA
ATOM     15  C   UNL     1       9.650  -2.786  -2.818  1.00  0.00     0.468 C 
ENDBRANCH   6   7
ENDBRANCH   1   6
TORSDOF 4
ENDMDL
MODEL 2
REMARK VINA RESULT:      -7.6      2.478      3.243
REMARK SMILES O=C(O)CCc1ccc2c(c1)OCO2
REMARK SMILES IDX 4 1 2 2 1 3 3 4 5 6 6 7 7 8 11 9 8 10 10 11 9 12 12 13 14 14
REMARK SMILES IDX 13 15
REMARK H PARENT 3 5
REMARK Flexibility Score: inf
ROOT
ATOM      1  C   UNL     1       5.572   2.902  -0.091  1.00  0.00     0.127 C 
ENDROOT
BRANCH   1   2
ATOM      2  C   UNL     1       6.289   3.882   0.711  1.00  0.00     0.303 C 
ATOM      3  O   UNL     1       7.019   4.772   0.271  1.00  0.00    -0.252 OA
BRANCH   2   4
ATOM      4  O   UNL     1       6.136   3.809   2.104  1.00  0.00    -0.481 OA
ATOM      5  H   UNL     1       5.508   3.099   2.447  1.00  0.00     0.296 HD
ENDBRANCH   2   4
ENDBRANCH   1   2
BRANCH   1   6
ATOM      6  C   UNL     1       4.944   1.822   0.700  1.00  0.00     0.047 C 
BRANCH   6   7
ATOM      7  C   UNL     1       5.694   0.575   0.858  1.00  0.00    -0.043 A 
ATOM      8  C   UNL     1       5.793  -0.061   2.086  1.00  0.00     0.008 A 
ATOM      9  C   UNL     1       6.357   0.017  -0.203  1.00  0.00     0.054 A 
ATOM     10  C   UNL     1       6.527  -1.215   2.245  1.00  0.00     0.051 A 
ATOM     11  C   UNL     1       7.100  -1.141  -0.068  1.00  0.00     0.166 A 
ATOM     12  C   UNL     1       7.187  -1.761   1.155  1.00  0.00     0.165 A 
ATOM     13  O   UNL     1       7.838  -1.871  -0.983  1.00  0.00    -0.454 OA
ATOM     14  O   UNL     1       7.993  -2.887   0.980  1.00  0.00    -0.454 OA
ATOM     15  C   UNL     1       8.658  -2.801  -0.259  1.00  0.00     0.468 C 
ENDBRANCH   6   7
ENDBRANCH   1   6
TORSDOF 4
ENDMDL
MODEL 3
REMARK VINA RESULT:      -7.5      1.243      2.052
REMARK SMILES O=C(O)CCc1ccc2c(c1)OCO2
REMARK SMILES IDX 4 1 2 2 1 3 3 4 5 6 6 7 7 8 11 9 8 10 10 11 9 12 12 13 14 14
REMARK SMILES IDX 13 15
REMARK H PARENT 3 5
REMARK Flexibility Score: inf
ROOT
ATOM      1  C   UNL     1       5.729   1.547  -0.303  1.00  0.00     0.127 C 
ENDROOT
BRANCH   1   2
ATOM      2  C   UNL     1       5.170   2.175   0.884  1.00  0.00     0.303 C 
ATOM      3  O   UNL     1       4.263   1.714   1.579  1.00  0.00    -0.252 OA
BRANCH   2   4
ATOM      4  O   UNL     1       5.707   3.412   1.272  1.00  0.00    -0.481 OA
ATOM      5  H   UNL     1       5.080   4.200   1.239  1.00  0.00     0.296 HD
ENDBRANCH   2   4
ENDBRANCH   1   2
BRANCH   1   6
ATOM      6  C   UNL     1       7.193   1.350  -0.246  1.00  0.00     0.047 C 
BRANCH   6   7
ATOM      7  C   UNL     1       7.761   0.255  -1.034  1.00  0.00    -0.043 A 
ATOM      8  C   UNL     1       7.007  -0.428  -1.976  1.00  0.00     0.008 A 
ATOM      9  C   UNL     1       9.053  -0.155  -0.834  1.00  0.00     0.054 A 
ATOM     10  C   UNL     1       7.529  -1.482  -2.692  1.00  0.00     0.051 A 
ATOM     11  C   UNL     1       9.598  -1.210  -1.542  1.00  0.00     0.166 A 
ATOM     12  C   UNL     1       8.839  -1.876  -2.473  1.00  0.00     0.165 A 
ATOM     13  O   UNL     1      10.856  -1.786  -1.508  1.00  0.00    -0.454 OA
ATOM     14  O   UNL     1       9.649  -2.875  -3.013  1.00  0.00    -0.454 OA
ATOM     15  C   UNL     1      10.796  -3.037  -2.210  1.00  0.00     0.468 C 
ENDBRANCH   6   7
ENDBRANCH   1   6
TORSDOF 4
ENDMDL
MODEL 4
REMARK VINA RESULT:      -7.4      2.001      2.277
REMARK SMILES O=C(O)CCc1ccc2c(c1)OCO2
REMARK SMILES IDX 4 1 2 2 1 3 3 4 5 6 6 7 7 8 11 9 8 10 10 11 9 12 12 13 14 14
REMARK SMILES IDX 13 15
REMARK H PARENT 3 5
REMARK Flexibility Score: inf
ROOT
ATOM      1  C   UNL     1       5.574   1.364  -0.188  1.00  0.00     0.127 C 
ENDROOT
BRANCH   1   2
ATOM      2  C   UNL     1       5.053   2.109   0.947  1.00  0.00     0.303 C 
ATOM      3  O   UNL     1       4.149   1.735   1.697  1.00  0.00    -0.252 OA
BRANCH   2   4
ATOM      4  O   UNL     1       5.626   3.362   1.213  1.00  0.00    -0.481 OA
ATOM      5  H   UNL     1       5.020   4.161   1.106  1.00  0.00     0.296 HD
ENDBRANCH   2   4
ENDBRANCH   1   2
BRANCH   1   6
ATOM      6  C   UNL     1       6.251   0.102   0.182  1.00  0.00     0.047 C 
BRANCH   6   7
ATOM      7  C   UNL     1       7.692   0.011  -0.058  1.00  0.00    -0.043 A 
ATOM      8  C   UNL     1       8.346   0.904  -0.892  1.00  0.00     0.008 A 
ATOM      9  C   UNL     1       8.434  -0.992   0.508  1.00  0.00     0.054 A 
ATOM     10  C   UNL     1       9.695   0.798  -1.147  1.00  0.00     0.051 A 
ATOM     11  C   UNL     1       9.789  -1.118   0.267  1.00  0.00     0.166 A 
ATOM     12  C   UNL     1      10.424  -0.224  -0.561  1.00  0.00     0.165 A 
ATOM     13  O   UNL     1      10.722  -2.033   0.721  1.00  0.00    -0.454 OA
ATOM     14  O   UNL     1      11.767  -0.604  -0.610  1.00  0.00    -0.454 OA
ATOM     15  C   UNL     1      11.909  -1.899  -0.076  1.00  0.00     0.468 C 
ENDBRANCH   6   7
ENDBRANCH   1   6
TORSDOF 4
ENDMDL
MODEL 5
REMARK VINA RESULT:      -7.3      2.275      2.819
REMARK SMILES O=C(O)CCc1ccc2c(c1)OCO2
REMARK SMILES IDX 4 1 2 2 1 3 3 4 5 6 6 7 7 8 11 9 8 10 10 11 9 12 12 13 14 14
REMARK SMILES IDX 13 15
REMARK H PARENT 3 5
REMARK Flexibility Score: inf
ROOT
ATOM      1  C   UNL     1       5.116   2.432   0.290  1.00  0.00     0.127 C 
ENDROOT
BRANCH   1   2
ATOM      2  C   UNL     1       6.084   3.398   0.785  1.00  0.00     0.303 C 
ATOM      3  O   UNL     1       6.510   4.372   0.161  1.00  0.00    -0.252 OA
BRANCH   2   4
ATOM      4  O   UNL     1       6.579   3.207   2.085  1.00  0.00    -0.481 OA
ATOM      5  H   UNL     1       7.307   2.517   2.187  1.00  0.00     0.296 HD
ENDBRANCH   2   4
ENDBRANCH   1   2
BRANCH   1   6
ATOM      6  C   UNL     1       5.663   1.495  -0.714  1.00  0.00     0.047 C 
BRANCH   6   7
ATOM      7  C   UNL     1       6.810   0.674  -0.321  1.00  0.00    -0.043 A 
ATOM      8  C   UNL     1       6.741  -0.199   0.754  1.00  0.00     0.008 A 
ATOM      9  C   UNL     1       8.004   0.774  -0.984  1.00  0.00     0.054 A 
ATOM     10  C   UNL     1       7.830  -0.945   1.148  1.00  0.00     0.051 A 
ATOM     11  C   UNL     1       9.109   0.035  -0.607  1.00  0.00     0.166 A 
ATOM     12  C   UNL     1       9.026  -0.827   0.460  1.00  0.00     0.165 A 
ATOM     13  O   UNL     1      10.393  -0.025  -1.121  1.00  0.00    -0.454 OA
ATOM     14  O   UNL     1      10.282  -1.421   0.596  1.00  0.00    -0.454 OA
ATOM     15  C   UNL     1      11.225  -0.710  -0.172  1.00  0.00     0.468 C 
ENDBRANCH   6   7
ENDBRANCH   1   6
TORSDOF 4
ENDMDL
