@<TRIPOS>MOLECULE
/home/cewinharhar/GITHUB/reincatalyze/data/processed/docking_pred/2023-May-17-1006_maxeplen10_maxtrainstep1000_seadep16_gamma099_lrac9e-4_lrcr1e-3_sub6/09c0e00cbaa22f287e1ef7d21129eabb08ea3244_ligand_6.pdbqt
 15 16 0 0 0
SMALL
GASTEIGER

@<TRIPOS>ATOM
      1  C          5.5720    2.9020   -0.0910 C.3     1  UNL1        0.1270
      2  C          6.2890    3.8820    0.7110 C.2     1  UNL1        0.3030
      3  O          7.0190    4.7720    0.2710 O.2     1  UNL1       -0.2520
      4  O          6.1360    3.8090    2.1040 O.3     1  UNL1       -0.4810
      5  H          5.5080    3.0990    2.4470 H       1  UNL1        0.2960
      6  C          4.9440    1.8220    0.7000 C.3     1  UNL1        0.0470
      7  C          5.6940    0.5750    0.8580 C.2     1  UNL1       -0.0430
      8  C          5.7930   -0.0610    2.0860 C.2     1  UNL1        0.0080
      9  C          6.3570    0.0170   -0.2030 C.2     1  UNL1        0.0540
     10  C          6.5270   -1.2150    2.2450 C.2     1  UNL1        0.0510
     11  C          7.1000   -1.1410   -0.0680 C.2     1  UNL1        0.1660
     12  C          7.1870   -1.7610    1.1550 C.2     1  UNL1        0.1650
     13  O          7.8380   -1.8710   -0.9830 O.2     1  UNL1       -0.4540
     14  O          7.9930   -2.8870    0.9800 O.2     1  UNL1       -0.4540
     15  C          8.6580   -2.8010   -0.2590 C.3     1  UNL1        0.4680
@<TRIPOS>BOND
     1    13    15    1
     2    13    11    1
     3    15    14    1
     4     9    11    1
     5     9     7    2
     6     1     6    1
     7     1     2    1
     8    11    12    2
     9     3     2    2
    10     6     7    1
    11     2     4    1
    12     7     8    1
    13    14    12    1
    14    12    10    1
    15     8    10    2
    16     4     5    1
