@<TRIPOS>MOLECULE
/home/cewinharhar/GITHUB/reincatalyze/data/processed/docking_pred/2023-May-17-1006_maxeplen10_maxtrainstep1000_seadep16_gamma099_lrac9e-4_lrcr1e-3_sub6/09c0e00cbaa22f287e1ef7d21129eabb08ea3244_ligand_6.pdbqt
 15 16 0 0 0
SMALL
GASTEIGER

@<TRIPOS>ATOM
      1  C          5.7290    1.5470   -0.3030 C.3     1  UNL1        0.1270
      2  C          5.1700    2.1750    0.8840 C.2     1  UNL1        0.3030
      3  O          4.2630    1.7140    1.5790 O.2     1  UNL1       -0.2520
      4  O          5.7070    3.4120    1.2720 O.3     1  UNL1       -0.4810
      5  H          5.0800    4.2000    1.2390 H       1  UNL1        0.2960
      6  C          7.1930    1.3500   -0.2460 C.3     1  UNL1        0.0470
      7  C          7.7610    0.2550   -1.0340 C.2     1  UNL1       -0.0430
      8  C          7.0070   -0.4280   -1.9760 C.2     1  UNL1        0.0080
      9  C          9.0530   -0.1550   -0.8340 C.2     1  UNL1        0.0540
     10  C          7.5290   -1.4820   -2.6920 C.2     1  UNL1        0.0510
     11  C          9.5980   -1.2100   -1.5420 C.2     1  UNL1        0.1660
     12  C          8.8390   -1.8760   -2.4730 C.2     1  UNL1        0.1650
     13  O         10.8560   -1.7860   -1.5080 O.2     1  UNL1       -0.4540
     14  O          9.6490   -2.8750   -3.0130 O.2     1  UNL1       -0.4540
     15  C         10.7960   -3.0370   -2.2100 C.3     1  UNL1        0.4680
@<TRIPOS>BOND
     1    14    12    1
     2    14    15    1
     3    10    12    2
     4    10     8    1
     5    12    11    1
     6    15    13    1
     7     8     7    2
     8    11    13    1
     9    11     9    2
    10     7     9    1
    11     7     6    1
    12     1     6    1
    13     1     2    1
    14     2     4    1
    15     2     3    2
    16     5     4    1
