@<TRIPOS>MOLECULE
/home/cewinharhar/GITHUB/reincatalyze/data/processed/docking_pred/2023-May-17-1006_maxeplen10_maxtrainstep1000_seadep16_gamma099_lrac9e-4_lrcr1e-3_sub6/09c0e00cbaa22f287e1ef7d21129eabb08ea3244_ligand_6.pdbqt
 15 16 0 0 0
SMALL
GASTEIGER

@<TRIPOS>ATOM
      1  C          5.1160    2.4320    0.2900 C.3     1  UNL1        0.1270
      2  C          6.0840    3.3980    0.7850 C.2     1  UNL1        0.3030
      3  O          6.5100    4.3720    0.1610 O.2     1  UNL1       -0.2520
      4  O          6.5790    3.2070    2.0850 O.3     1  UNL1       -0.4810
      5  H          7.3070    2.5170    2.1870 H       1  UNL1        0.2960
      6  C          5.6630    1.4950   -0.7140 C.3     1  UNL1        0.0470
      7  C          6.8100    0.6740   -0.3210 C.2     1  UNL1       -0.0430
      8  C          6.7410   -0.1990    0.7540 C.2     1  UNL1        0.0080
      9  C          8.0040    0.7740   -0.9840 C.2     1  UNL1        0.0540
     10  C          7.8300   -0.9450    1.1480 C.2     1  UNL1        0.0510
     11  C          9.1090    0.0350   -0.6070 C.2     1  UNL1        0.1660
     12  C          9.0260   -0.8270    0.4600 C.2     1  UNL1        0.1650
     13  O         10.3930   -0.0250   -1.1210 O.2     1  UNL1       -0.4540
     14  O         10.2820   -1.4210    0.5960 O.2     1  UNL1       -0.4540
     15  C         11.2250   -0.7100   -0.1720 C.3     1  UNL1        0.4680
@<TRIPOS>BOND
     1    13    11    1
     2    13    15    1
     3     9    11    1
     4     9     7    2
     5     6     7    1
     6     6     1    1
     7    11    12    2
     8     7     8    1
     9    15    14    1
    10     3     2    2
    11     1     2    1
    12    12    14    1
    13    12    10    1
    14     8    10    2
    15     2     4    1
    16     4     5    1
