@<TRIPOS>MOLECULE
/home/cewinharhar/GITHUB/reincatalyze/data/processed/docking_pred/2023-May-17-1006_maxeplen10_maxtrainstep1000_seadep16_gamma099_lrac9e-4_lrcr1e-3_sub6/09c0e00cbaa22f287e1ef7d21129eabb08ea3244_ligand_6.pdbqt
 15 16 0 0 0
SMALL
GASTEIGER

@<TRIPOS>ATOM
      1  C          5.6290    1.7030    0.8640 C.3     1  UNL1        0.1270
      2  C          4.9670    0.8620    1.8480 C.2     1  UNL1        0.3030
      3  O          5.4200   -0.1830    2.3190 O.2     1  UNL1       -0.2520
      4  O          3.7030    1.2720    2.3010 O.3     1  UNL1       -0.4810
      5  H          3.6890    2.0670    2.9200 H       1  UNL1        0.2960
      6  C          5.7090    1.1020   -0.4840 C.3     1  UNL1        0.0470
      7  C          6.9530    0.4200   -0.8490 C.2     1  UNL1       -0.0430
      8  C          8.1870    1.0340   -0.6990 C.2     1  UNL1        0.0080
      9  C          6.9290   -0.8390   -1.3880 C.2     1  UNL1        0.0540
     10  C          9.3540    0.4080   -1.0750 C.2     1  UNL1        0.0510
     11  C          8.0880   -1.4870   -1.7720 C.2     1  UNL1        0.1660
     12  C          9.3040   -0.8670   -1.6170 C.2     1  UNL1        0.1650
     13  O          8.3010   -2.7360   -2.3290 O.2     1  UNL1       -0.4540
     14  O         10.2730   -1.7550   -2.0870 O.2     1  UNL1       -0.4540
     15  C          9.6500   -2.7860   -2.8180 C.3     1  UNL1        0.4680
@<TRIPOS>BOND
     1    15    13    1
     2    15    14    1
     3    13    11    1
     4    14    12    1
     5    11    12    2
     6    11     9    1
     7    12    10    1
     8     9     7    2
     9    10     8    2
    10     7     8    1
    11     7     6    1
    12     6     1    1
    13     1     2    1
    14     2     4    1
    15     2     3    2
    16     4     5    1
