@<TRIPOS>MOLECULE
/home/cewinharhar/GITHUB/reincatalyze/data/processed/docking_pred/2023-May-17-1006_maxeplen10_maxtrainstep1000_seadep16_gamma099_lrac9e-4_lrcr1e-3_sub6/09c0e00cbaa22f287e1ef7d21129eabb08ea3244_ligand_6.pdbqt
 15 16 0 0 0
SMALL
GASTEIGER

@<TRIPOS>ATOM
      1  C          5.5740    1.3640   -0.1880 C.3     1  UNL1        0.1270
      2  C          5.0530    2.1090    0.9470 C.2     1  UNL1        0.3030
      3  O          4.1490    1.7350    1.6970 O.2     1  UNL1       -0.2520
      4  O          5.6260    3.3620    1.2130 O.3     1  UNL1       -0.4810
      5  H          5.0200    4.1610    1.1060 H       1  UNL1        0.2960
      6  C          6.2510    0.1020    0.1820 C.3     1  UNL1        0.0470
      7  C          7.6920    0.0110   -0.0580 C.2     1  UNL1       -0.0430
      8  C          8.3460    0.9040   -0.8920 C.2     1  UNL1        0.0080
      9  C          8.4340   -0.9920    0.5080 C.2     1  UNL1        0.0540
     10  C          9.6950    0.7980   -1.1470 C.2     1  UNL1        0.0510
     11  C          9.7890   -1.1180    0.2670 C.2     1  UNL1        0.1660
     12  C         10.4240   -0.2240   -0.5610 C.2     1  UNL1        0.1650
     13  O         10.7220   -2.0330    0.7210 O.2     1  UNL1       -0.4540
     14  O         11.7670   -0.6040   -0.6100 O.2     1  UNL1       -0.4540
     15  C         11.9090   -1.8990   -0.0760 C.3     1  UNL1        0.4680
@<TRIPOS>BOND
     1    10     8    1
     2    10    12    2
     3     8     7    2
     4    14    12    1
     5    14    15    1
     6    12    11    1
     7     1     6    1
     8     1     2    1
     9    15    13    1
    10     7     6    1
    11     7     9    1
    12    11     9    2
    13    11    13    1
    14     2     4    1
    15     2     3    2
    16     5     4    1
