@<TRIPOS>MOLECULE
/home/cewinharhar/GITHUB/reincatalyze/data/processed/docking_pred/2023-May-17-1006_maxeplen10_maxtrainstep1000_seadep16_gamma099_lrac9e-4_lrcr1e-3_sub6/0bc78f1071f374665515956646110ea4a2a90639_ligand_6.pdbqt
 15 16 0 0 0
SMALL
GASTEIGER

@<TRIPOS>ATOM
      1  C          5.4100    2.8790    0.1030 C.3     1  UNL1        0.1270
      2  C          6.2270    3.8600    0.7990 C.2     1  UNL1        0.3030
      3  O          6.8580    4.7750    0.2670 O.2     1  UNL1       -0.2520
      4  O          6.3040    3.7600    2.1970 O.3     1  UNL1       -0.4810
      5  H          7.1210    4.1640    2.6280 H       1  UNL1        0.2960
      6  C          5.3290    1.5710    0.7880 C.3     1  UNL1        0.0470
      7  C          6.1020    0.4620    0.2250 C.2     1  UNL1       -0.0430
      8  C          6.5190   -0.6030    1.0090 C.2     1  UNL1        0.0080
      9  C          6.4710    0.4650   -1.0940 C.2     1  UNL1        0.0540
     10  C          7.2770   -1.6280    0.4890 C.2     1  UNL1        0.0510
     11  C          7.2310   -0.5540   -1.6380 C.2     1  UNL1        0.1660
     12  C          7.6360   -1.6030   -0.8490 C.2     1  UNL1        0.1650
     13  O          7.7120   -0.7580   -2.9190 O.2     1  UNL1       -0.4540
     14  O          8.3760   -2.4590   -1.6660 O.2     1  UNL1       -0.4540
     15  C          8.6970   -1.8000   -2.8690 C.3     1  UNL1        0.4680
@<TRIPOS>BOND
     1    13    15    1
     2    13    11    1
     3    15    14    1
     4    14    12    1
     5    11     9    1
     6    11    12    2
     7     9     7    2
     8    12    10    1
     9     1     6    1
    10     1     2    1
    11     7     6    1
    12     7     8    1
    13     3     2    2
    14    10     8    2
    15     2     4    1
    16     4     5    1
