@<TRIPOS>MOLECULE
/home/cewinharhar/GITHUB/reincatalyze/data/processed/docking_pred/2023-May-17-1006_maxeplen10_maxtrainstep1000_seadep16_gamma099_lrac9e-4_lrcr1e-3_sub6/0bc78f1071f374665515956646110ea4a2a90639_ligand_6.pdbqt
 15 16 0 0 0
SMALL
GASTEIGER

@<TRIPOS>ATOM
      1  C          6.4340    1.2380    0.7120 C.3     1  UNL1        0.1270
      2  C          5.2430    1.1590    1.5430 C.2     1  UNL1        0.3030
      3  O          5.0330    0.3160    2.4170 O.2     1  UNL1       -0.2520
      4  O          4.2450    2.1230    1.3320 O.3     1  UNL1       -0.4810
      5  H          3.3200    1.7710    1.1380 H       1  UNL1        0.2960
      6  C          6.2300    0.7750   -0.6770 C.3     1  UNL1        0.0470
      7  C          6.9830   -0.4010   -1.1160 C.2     1  UNL1       -0.0430
      8  C          7.2650   -0.6230   -2.4550 C.2     1  UNL1        0.0080
      9  C          7.4010   -1.3430   -0.2130 C.2     1  UNL1        0.0540
     10  C          7.9420   -1.7470   -2.8740 C.2     1  UNL1        0.0510
     11  C          8.0820   -2.4780   -0.6100 C.2     1  UNL1        0.1660
     12  C          8.3550   -2.6840   -1.9400 C.2     1  UNL1        0.1650
     13  O          8.5910   -3.5430    0.1120 O.2     1  UNL1       -0.4540
     14  O          9.0410   -3.8960   -2.0280 O.2     1  UNL1       -0.4540
     15  C          8.9230   -4.5930   -0.8090 C.3     1  UNL1        0.4680
@<TRIPOS>BOND
     1    10     8    1
     2    10    12    2
     3     8     7    2
     4    14    12    1
     5    14    15    1
     6    12    11    1
     7     7     6    1
     8     7     9    1
     9    15    13    1
    10     6     1    1
    11    11     9    2
    12    11    13    1
    13     1     2    1
    14     5     4    1
    15     4     2    1
    16     2     3    2
