@<TRIPOS>MOLECULE
/home/cewinharhar/GITHUB/reincatalyze/data/processed/docking_pred/2023-May-17-1006_maxeplen10_maxtrainstep1000_seadep16_gamma099_lrac9e-4_lrcr1e-3_sub6/0bc78f1071f374665515956646110ea4a2a90639_ligand_6.pdbqt
 15 16 0 0 0
SMALL
GASTEIGER

@<TRIPOS>ATOM
      1  C          8.2310   -0.1940   -2.8540 C.3     1  UNL1        0.1270
      2  C          8.4870   -1.6100   -3.0650 C.2     1  UNL1        0.3030
      3  O          9.5820   -2.1650   -2.9570 O.2     1  UNL1       -0.2520
      4  O          7.3940   -2.4160   -3.4220 O.3     1  UNL1       -0.4810
      5  H          6.5460   -1.9310   -3.6710 H       1  UNL1        0.2960
      6  C          8.6880    0.3100   -1.5410 C.3     1  UNL1        0.0470
      7  C          7.7430    0.2450   -0.4240 C.2     1  UNL1       -0.0430
      8  C          7.7770   -0.7920    0.4960 C.2     1  UNL1        0.0080
      9  C          6.7660    1.1940   -0.2780 C.2     1  UNL1        0.0540
     10  C          6.8660   -0.8730    1.5250 C.2     1  UNL1        0.0510
     11  C          5.8410    1.1330    0.7470 C.2     1  UNL1        0.1660
     12  C          5.8880    0.1000    1.6520 C.2     1  UNL1        0.1650
     13  O          4.7870    1.9640    1.0840 O.2     1  UNL1       -0.4540
     14  O          4.8440    0.3080    2.5550 O.2     1  UNL1       -0.4540
     15  C          3.9630    1.2790    2.0390 C.3     1  UNL1        0.4680
@<TRIPOS>BOND
     1     5     4    1
     2     4     2    1
     3     2     3    2
     4     2     1    1
     5     1     6    1
     6     6     7    1
     7     7     9    2
     8     7     8    1
     9     9    11    1
    10     8    10    2
    11    11    13    1
    12    11    12    2
    13    13    15    1
    14    10    12    1
    15    12    14    1
    16    15    14    1
