@<TRIPOS>MOLECULE
/home/cewinharhar/GITHUB/reincatalyze/data/processed/docking_pred/2023-May-17-1006_maxeplen10_maxtrainstep1000_seadep16_gamma099_lrac9e-4_lrcr1e-3_sub6/0bc78f1071f374665515956646110ea4a2a90639_ligand_6.pdbqt
 15 16 0 0 0
SMALL
GASTEIGER

@<TRIPOS>ATOM
      1  C          5.3340    2.8430    0.1470 C.3     1  UNL1        0.1270
      2  C          6.1560    3.7540    0.9280 C.2     1  UNL1        0.3030
      3  O          6.2840    3.7320    2.1540 O.2     1  UNL1       -0.2520
      4  O          6.8640    4.7440    0.2290 O.3     1  UNL1       -0.4810
      5  H          6.8290    5.6740    0.6170 H       1  UNL1        0.2960
      6  C          5.2520    1.4780    0.7070 C.3     1  UNL1        0.0470
      7  C          6.1270    0.4550    0.1310 C.2     1  UNL1       -0.0430
      8  C          6.4590    0.4590   -1.2150 C.2     1  UNL1        0.0080
      9  C          6.6160   -0.5650    0.9040 C.2     1  UNL1        0.0540
     10  C          7.2530   -0.5220   -1.7650 C.2     1  UNL1        0.0510
     11  C          7.4150   -1.5600    0.3740 C.2     1  UNL1        0.1660
     12  C          7.7360   -1.5420   -0.9620 C.2     1  UNL1        0.1650
     13  O          8.0110   -2.6660    0.9530 O.2     1  UNL1       -0.4540
     14  O          8.5410   -2.6580   -1.1970 O.2     1  UNL1       -0.4540
     15  C          8.4650   -3.5340   -0.0960 C.3     1  UNL1        0.4680
@<TRIPOS>BOND
     1    10     8    1
     2    10    12    2
     3     8     7    2
     4    14    12    1
     5    14    15    1
     6    12    11    1
     7    15    13    1
     8     7     6    1
     9     7     9    1
    10     1     6    1
    11     1     2    1
    12     4     5    1
    13     4     2    1
    14    11     9    2
    15    11    13    1
    16     2     3    2
