MODEL 1
REMARK VINA RESULT:      -7.6      0.000      0.000
REMARK SMILES O=C(O)CCc1ccc2c(c1)OCO2
REMARK SMILES IDX 4 1 2 2 1 3 3 4 5 6 6 7 7 8 11 9 8 10 10 11 9 12 12 13 14 14
REMARK SMILES IDX 13 15
REMARK H PARENT 3 5
REMARK Flexibility Score: inf
ROOT
ATOM      1  C   UNL     1       4.681   1.880   0.655  1.00  0.00     0.127 C 
ENDROOT
BRANCH   1   2
ATOM      2  C   UNL     1       4.376   1.175   1.890  1.00  0.00     0.303 C 
ATOM      3  O   UNL     1       5.108   0.356   2.448  1.00  0.00    -0.252 OA
BRANCH   2   4
ATOM      4  O   UNL     1       3.142   1.449   2.501  1.00  0.00    -0.481 OA
ATOM      5  H   UNL     1       2.484   1.984   1.955  1.00  0.00     0.296 HD
ENDBRANCH   2   4
ENDBRANCH   1   2
BRANCH   1   6
ATOM      6  C   UNL     1       6.105   2.251   0.511  1.00  0.00     0.047 C 
BRANCH   6   7
ATOM      7  C   UNL     1       6.965   1.350  -0.259  1.00  0.00    -0.043 A 
ATOM      8  C   UNL     1       8.322   1.591  -0.403  1.00  0.00     0.008 A 
ATOM      9  C   UNL     1       6.441   0.256  -0.896  1.00  0.00     0.054 A 
ATOM     10  C   UNL     1       9.125   0.764  -1.157  1.00  0.00     0.051 A 
ATOM     11  C   UNL     1       7.227  -0.587  -1.658  1.00  0.00     0.166 A 
ATOM     12  C   UNL     1       8.572  -0.337  -1.791  1.00  0.00     0.165 A 
ATOM     13  O   UNL     1       6.921  -1.729  -2.377  1.00  0.00    -0.454 OA
ATOM     14  O   UNL     1       9.090  -1.344  -2.605  1.00  0.00    -0.454 OA
ATOM     15  C   UNL     1       8.033  -2.035  -3.231  1.00  0.00     0.468 C 
ENDBRANCH   6   7
ENDBRANCH   1   6
TORSDOF 4
ENDMDL
MODEL 2
REMARK VINA RESULT:      -7.5      1.877      2.434
REMARK SMILES O=C(O)CCc1ccc2c(c1)OCO2
REMARK SMILES IDX 4 1 2 2 1 3 3 4 5 6 6 7 7 8 11 9 8 10 10 11 9 12 12 13 14 14
REMARK SMILES IDX 13 15
REMARK H PARENT 3 5
REMARK Flexibility Score: inf
ROOT
ATOM      1  C   UNL     1       6.434   1.238   0.712  1.00  0.00     0.127 C 
ENDROOT
BRANCH   1   2
ATOM      2  C   UNL     1       5.243   1.159   1.543  1.00  0.00     0.303 C 
ATOM      3  O   UNL     1       5.033   0.316   2.417  1.00  0.00    -0.252 OA
BRANCH   2   4
ATOM      4  O   UNL     1       4.245   2.123   1.332  1.00  0.00    -0.481 OA
ATOM      5  H   UNL     1       3.320   1.771   1.138  1.00  0.00     0.296 HD
ENDBRANCH   2   4
ENDBRANCH   1   2
BRANCH   1   6
ATOM      6  C   UNL     1       6.230   0.775  -0.677  1.00  0.00     0.047 C 
BRANCH   6   7
ATOM      7  C   UNL     1       6.983  -0.401  -1.116  1.00  0.00    -0.043 A 
ATOM      8  C   UNL     1       7.265  -0.623  -2.455  1.00  0.00     0.008 A 
ATOM      9  C   UNL     1       7.401  -1.343  -0.213  1.00  0.00     0.054 A 
ATOM     10  C   UNL     1       7.942  -1.747  -2.874  1.00  0.00     0.051 A 
ATOM     11  C   UNL     1       8.082  -2.478  -0.610  1.00  0.00     0.166 A 
ATOM     12  C   UNL     1       8.355  -2.684  -1.940  1.00  0.00     0.165 A 
ATOM     13  O   UNL     1       8.591  -3.543   0.112  1.00  0.00    -0.454 OA
ATOM     14  O   UNL     1       9.041  -3.896  -2.028  1.00  0.00    -0.454 OA
ATOM     15  C   UNL     1       8.923  -4.593  -0.809  1.00  0.00     0.468 C 
ENDBRANCH   6   7
ENDBRANCH   1   6
TORSDOF 4
ENDMDL
MODEL 3
REMARK VINA RESULT:      -7.5      2.473      2.808
REMARK SMILES O=C(O)CCc1ccc2c(c1)OCO2
REMARK SMILES IDX 4 1 2 2 1 3 3 4 5 6 6 7 7 8 11 9 8 10 10 11 9 12 12 13 14 14
REMARK SMILES IDX 13 15
REMARK H PARENT 3 5
REMARK Flexibility Score: inf
ROOT
ATOM      1  C   UNL     1       5.334   2.843   0.147  1.00  0.00     0.127 C 
ENDROOT
BRANCH   1   2
ATOM      2  C   UNL     1       6.156   3.754   0.928  1.00  0.00     0.303 C 
ATOM      3  O   UNL     1       6.284   3.732   2.154  1.00  0.00    -0.252 OA
BRANCH   2   4
ATOM      4  O   UNL     1       6.864   4.744   0.229  1.00  0.00    -0.481 OA
ATOM      5  H   UNL     1       6.829   5.674   0.617  1.00  0.00     0.296 HD
ENDBRANCH   2   4
ENDBRANCH   1   2
BRANCH   1   6
ATOM      6  C   UNL     1       5.252   1.478   0.707  1.00  0.00     0.047 C 
BRANCH   6   7
ATOM      7  C   UNL     1       6.127   0.455   0.131  1.00  0.00    -0.043 A 
ATOM      8  C   UNL     1       6.459   0.459  -1.215  1.00  0.00     0.008 A 
ATOM      9  C   UNL     1       6.616  -0.565   0.904  1.00  0.00     0.054 A 
ATOM     10  C   UNL     1       7.253  -0.522  -1.765  1.00  0.00     0.051 A 
ATOM     11  C   UNL     1       7.415  -1.560   0.374  1.00  0.00     0.166 A 
ATOM     12  C   UNL     1       7.736  -1.542  -0.962  1.00  0.00     0.165 A 
ATOM     13  O   UNL     1       8.011  -2.666   0.953  1.00  0.00    -0.454 OA
ATOM     14  O   UNL     1       8.541  -2.658  -1.197  1.00  0.00    -0.454 OA
ATOM     15  C   UNL     1       8.465  -3.534  -0.096  1.00  0.00     0.468 C 
ENDBRANCH   6   7
ENDBRANCH   1   6
TORSDOF 4
ENDMDL
MODEL 4
REMARK VINA RESULT:      -7.5      1.433      5.375
REMARK SMILES O=C(O)CCc1ccc2c(c1)OCO2
REMARK SMILES IDX 4 1 2 2 1 3 3 4 5 6 6 7 7 8 11 9 8 10 10 11 9 12 12 13 14 14
REMARK SMILES IDX 13 15
REMARK H PARENT 3 5
REMARK Flexibility Score: inf
ROOT
ATOM      1  C   UNL     1       8.231  -0.194  -2.854  1.00  0.00     0.127 C 
ENDROOT
BRANCH   1   2
ATOM      2  C   UNL     1       8.487  -1.610  -3.065  1.00  0.00     0.303 C 
ATOM      3  O   UNL     1       9.582  -2.165  -2.957  1.00  0.00    -0.252 OA
BRANCH   2   4
ATOM      4  O   UNL     1       7.394  -2.416  -3.422  1.00  0.00    -0.481 OA
ATOM      5  H   UNL     1       6.546  -1.931  -3.671  1.00  0.00     0.296 HD
ENDBRANCH   2   4
ENDBRANCH   1   2
BRANCH   1   6
ATOM      6  C   UNL     1       8.688   0.310  -1.541  1.00  0.00     0.047 C 
BRANCH   6   7
ATOM      7  C   UNL     1       7.743   0.245  -0.424  1.00  0.00    -0.043 A 
ATOM      8  C   UNL     1       7.777  -0.792   0.496  1.00  0.00     0.008 A 
ATOM      9  C   UNL     1       6.766   1.194  -0.278  1.00  0.00     0.054 A 
ATOM     10  C   UNL     1       6.866  -0.873   1.525  1.00  0.00     0.051 A 
ATOM     11  C   UNL     1       5.841   1.133   0.747  1.00  0.00     0.166 A 
ATOM     12  C   UNL     1       5.888   0.100   1.652  1.00  0.00     0.165 A 
ATOM     13  O   UNL     1       4.787   1.964   1.084  1.00  0.00    -0.454 OA
ATOM     14  O   UNL     1       4.844   0.308   2.555  1.00  0.00    -0.454 OA
ATOM     15  C   UNL     1       3.963   1.279   2.039  1.00  0.00     0.468 C 
ENDBRANCH   6   7
ENDBRANCH   1   6
TORSDOF 4
ENDMDL
MODEL 5
REMARK VINA RESULT:      -5.2      2.125      2.533
REMARK SMILES O=C(O)CCc1ccc2c(c1)OCO2
REMARK SMILES IDX 4 1 2 2 1 3 3 4 5 6 6 7 7 8 11 9 8 10 10 11 9 12 12 13 14 14
REMARK SMILES IDX 13 15
REMARK H PARENT 3 5
REMARK Flexibility Score: inf
ROOT
ATOM      1  C   UNL     1       5.410   2.879   0.103  1.00  0.00     0.127 C 
ENDROOT
BRANCH   1   2
ATOM      2  C   UNL     1       6.227   3.860   0.799  1.00  0.00     0.303 C 
ATOM      3  O   UNL     1       6.858   4.775   0.267  1.00  0.00    -0.252 OA
BRANCH   2   4
ATOM      4  O   UNL     1       6.304   3.760   2.197  1.00  0.00    -0.481 OA
ATOM      5  H   UNL     1       7.121   4.164   2.628  1.00  0.00     0.296 HD
ENDBRANCH   2   4
ENDBRANCH   1   2
BRANCH   1   6
ATOM      6  C   UNL     1       5.329   1.571   0.788  1.00  0.00     0.047 C 
BRANCH   6   7
ATOM      7  C   UNL     1       6.102   0.462   0.225  1.00  0.00    -0.043 A 
ATOM      8  C   UNL     1       6.519  -0.603   1.009  1.00  0.00     0.008 A 
ATOM      9  C   UNL     1       6.471   0.465  -1.094  1.00  0.00     0.054 A 
ATOM     10  C   UNL     1       7.277  -1.628   0.489  1.00  0.00     0.051 A 
ATOM     11  C   UNL     1       7.231  -0.554  -1.638  1.00  0.00     0.166 A 
ATOM     12  C   UNL     1       7.636  -1.603  -0.849  1.00  0.00     0.165 A 
ATOM     13  O   UNL     1       7.712  -0.758  -2.919  1.00  0.00    -0.454 OA
ATOM     14  O   UNL     1       8.376  -2.459  -1.666  1.00  0.00    -0.454 OA
ATOM     15  C   UNL     1       8.697  -1.800  -2.869  1.00  0.00     0.468 C 
ENDBRANCH   6   7
ENDBRANCH   1   6
TORSDOF 4
ENDMDL
