@<TRIPOS>MOLECULE
/home/cewinharhar/GITHUB/reincatalyze/data/processed/docking_pred/2023-May-17-1006_maxeplen10_maxtrainstep1000_seadep16_gamma099_lrac9e-4_lrcr1e-3_sub6/0bc78f1071f374665515956646110ea4a2a90639_ligand_6.pdbqt
 15 16 0 0 0
SMALL
GASTEIGER

@<TRIPOS>ATOM
      1  C          4.6810    1.8800    0.6550 C.3     1  UNL1        0.1270
      2  C          4.3760    1.1750    1.8900 C.2     1  UNL1        0.3030
      3  O          5.1080    0.3560    2.4480 O.2     1  UNL1       -0.2520
      4  O          3.1420    1.4490    2.5010 O.3     1  UNL1       -0.4810
      5  H          2.4840    1.9840    1.9550 H       1  UNL1        0.2960
      6  C          6.1050    2.2510    0.5110 C.3     1  UNL1        0.0470
      7  C          6.9650    1.3500   -0.2590 C.2     1  UNL1       -0.0430
      8  C          8.3220    1.5910   -0.4030 C.2     1  UNL1        0.0080
      9  C          6.4410    0.2560   -0.8960 C.2     1  UNL1        0.0540
     10  C          9.1250    0.7640   -1.1570 C.2     1  UNL1        0.0510
     11  C          7.2270   -0.5870   -1.6580 C.2     1  UNL1        0.1660
     12  C          8.5720   -0.3370   -1.7910 C.2     1  UNL1        0.1650
     13  O          6.9210   -1.7290   -2.3770 O.2     1  UNL1       -0.4540
     14  O          9.0900   -1.3440   -2.6050 O.2     1  UNL1       -0.4540
     15  C          8.0330   -2.0350   -3.2310 C.3     1  UNL1        0.4680
@<TRIPOS>BOND
     1    15    14    1
     2    15    13    1
     3    14    12    1
     4    13    11    1
     5    12    11    2
     6    12    10    1
     7    11     9    1
     8    10     8    2
     9     9     7    2
    10     8     7    1
    11     7     6    1
    12     6     1    1
    13     1     2    1
    14     2     3    2
    15     2     4    1
    16     5     4    1
