@<TRIPOS>MOLECULE
/home/cewinharhar/GITHUB/reincatalyze/data/processed/docking_pred/2023-May-17-1006_maxeplen10_maxtrainstep1000_seadep16_gamma099_lrac9e-4_lrcr1e-3_sub6/0c0669ff2f8dcec30d9aff9f411b757c1c1ac29f_ligand_6.pdbqt
 15 16 0 0 0
SMALL
GASTEIGER

@<TRIPOS>ATOM
      1  C          5.4240    2.8810    0.0930 C.3     1  UNL1        0.1270
      2  C          6.2320    3.8760    0.7800 C.2     1  UNL1        0.3030
      3  O          6.9200    4.7410    0.2360 O.2     1  UNL1       -0.2520
      4  O          6.2300    3.8490    2.1840 O.3     1  UNL1       -0.4810
      5  H          5.3350    3.7090    2.6250 H       1  UNL1        0.2960
      6  C          5.3570    1.5780    0.7880 C.3     1  UNL1        0.0470
      7  C          6.1250    0.4670    0.2210 C.2     1  UNL1       -0.0430
      8  C          6.5380   -0.6020    1.0020 C.2     1  UNL1        0.0080
      9  C          6.4940    0.4720   -1.0980 C.2     1  UNL1        0.0540
     10  C          7.2910   -1.6290    0.4790 C.2     1  UNL1        0.0510
     11  C          7.2490   -0.5480   -1.6450 C.2     1  UNL1        0.1660
     12  C          7.6500   -1.6010   -0.8590 C.2     1  UNL1        0.1650
     13  O          7.7290   -0.7500   -2.9270 O.2     1  UNL1       -0.4540
     14  O          8.3870   -2.4580   -1.6790 O.2     1  UNL1       -0.4540
     15  C          8.7110   -1.7970   -2.8800 C.3     1  UNL1        0.4680
@<TRIPOS>BOND
     1    13    15    1
     2    13    11    1
     3    15    14    1
     4    14    12    1
     5    11     9    1
     6    11    12    2
     7     9     7    2
     8    12    10    1
     9     1     2    1
    10     1     6    1
    11     7     6    1
    12     7     8    1
    13     3     2    2
    14    10     8    2
    15     2     4    1
    16     4     5    1
