@<TRIPOS>MOLECULE
/home/cewinharhar/GITHUB/reincatalyze/data/processed/docking_pred/2023-May-17-1006_maxeplen10_maxtrainstep1000_seadep16_gamma099_lrac9e-4_lrcr1e-3_sub6/0c0669ff2f8dcec30d9aff9f411b757c1c1ac29f_ligand_6.pdbqt
 15 16 0 0 0
SMALL
GASTEIGER

@<TRIPOS>ATOM
      1  C          8.3060   -0.3170   -2.8530 C.3     1  UNL1        0.1270
      2  C          8.4660   -1.7460   -3.0700 C.2     1  UNL1        0.3030
      3  O          9.5330   -2.3620   -3.0300 O.2     1  UNL1       -0.2520
      4  O          7.3090   -2.4890   -3.3500 O.3     1  UNL1       -0.4810
      5  H          6.5360   -1.9770   -3.7470 H       1  UNL1        0.2960
      6  C          8.7610    0.1430   -1.5240 C.3     1  UNL1        0.0470
      7  C          7.7920    0.1030   -0.4260 C.2     1  UNL1       -0.0430
      8  C          7.7460   -0.9610    0.4610 C.2     1  UNL1        0.0080
      9  C          6.8730    1.1060   -0.2660 C.2     1  UNL1        0.0540
     10  C          6.8130   -1.0170    1.4720 C.2     1  UNL1        0.0510
     11  C          5.9280    1.0710    0.7410 C.2     1  UNL1        0.1660
     12  C          5.8940    0.0100    1.6140 C.2     1  UNL1        0.1650
     13  O          4.9200    1.9550    1.0870 O.2     1  UNL1       -0.4540
     14  O          4.8480    0.2540    2.5050 O.2     1  UNL1       -0.4540
     15  C          4.0380    1.2930    2.0060 C.3     1  UNL1        0.4680
@<TRIPOS>BOND
     1     5     4    1
     2     4     2    1
     3     2     3    2
     4     2     1    1
     5     1     6    1
     6     6     7    1
     7     7     9    2
     8     7     8    1
     9     9    11    1
    10     8    10    2
    11    11    13    1
    12    11    12    2
    13    13    15    1
    14    10    12    1
    15    12    14    1
    16    15    14    1
