@<TRIPOS>MOLECULE
/home/cewinharhar/GITHUB/reincatalyze/data/processed/docking_pred/2023-May-17-1006_maxeplen10_maxtrainstep1000_seadep16_gamma099_lrac9e-4_lrcr1e-3_sub6/0c0669ff2f8dcec30d9aff9f411b757c1c1ac29f_ligand_6.pdbqt
 15 16 0 0 0
SMALL
GASTEIGER

@<TRIPOS>ATOM
      1  C          4.7000    1.8810    0.6870 C.3     1  UNL1        0.1270
      2  C          4.4110    1.1630    1.9180 C.2     1  UNL1        0.3030
      3  O          5.1530    0.3400    2.4590 O.2     1  UNL1       -0.2520
      4  O          3.1840    1.4270    2.5460 O.3     1  UNL1       -0.4810
      5  H          2.5310    0.6600    2.5870 H       1  UNL1        0.2960
      6  C          6.1230    2.2500    0.5270 C.3     1  UNL1        0.0470
      7  C          6.9760    1.3400   -0.2400 C.2     1  UNL1       -0.0430
      8  C          8.3380    1.5610   -0.3710 C.2     1  UNL1        0.0080
      9  C          6.4420    0.2570   -0.8860 C.2     1  UNL1        0.0540
     10  C          9.1360    0.7260   -1.1210 C.2     1  UNL1        0.0510
     11  C          7.2220   -0.5950   -1.6440 C.2     1  UNL1        0.1660
     12  C          8.5720   -0.3640   -1.7640 C.2     1  UNL1        0.1650
     13  O          6.9060   -1.7300   -2.3700 O.2     1  UNL1       -0.4540
     14  O          9.0830   -1.3760   -2.5780 O.2     1  UNL1       -0.4540
     15  C          8.0210   -2.0480   -3.2160 C.3     1  UNL1        0.4680
@<TRIPOS>BOND
     1    15    14    1
     2    15    13    1
     3    14    12    1
     4    13    11    1
     5    12    11    2
     6    12    10    1
     7    11     9    1
     8    10     8    2
     9     9     7    2
    10     8     7    1
    11     7     6    1
    12     6     1    1
    13     1     2    1
    14     2     3    2
    15     2     4    1
    16     4     5    1
