MODEL 1
REMARK VINA RESULT:      -7.6      0.000      0.000
REMARK SMILES O=C(O)CCc1ccc2c(c1)OCO2
REMARK SMILES IDX 4 1 2 2 1 3 3 4 5 6 6 7 7 8 11 9 8 10 10 11 9 12 12 13 14 14
REMARK SMILES IDX 13 15
REMARK H PARENT 3 5
REMARK Flexibility Score: inf
ROOT
ATOM      1  C   UNL     1       5.424   2.881   0.093  1.00  0.00     0.127 C 
ENDROOT
BRANCH   1   2
ATOM      2  C   UNL     1       6.232   3.876   0.780  1.00  0.00     0.303 C 
ATOM      3  O   UNL     1       6.920   4.741   0.236  1.00  0.00    -0.252 OA
BRANCH   2   4
ATOM      4  O   UNL     1       6.230   3.849   2.184  1.00  0.00    -0.481 OA
ATOM      5  H   UNL     1       5.335   3.709   2.625  1.00  0.00     0.296 HD
ENDBRANCH   2   4
ENDBRANCH   1   2
BRANCH   1   6
ATOM      6  C   UNL     1       5.357   1.578   0.788  1.00  0.00     0.047 C 
BRANCH   6   7
ATOM      7  C   UNL     1       6.125   0.467   0.221  1.00  0.00    -0.043 A 
ATOM      8  C   UNL     1       6.538  -0.602   1.002  1.00  0.00     0.008 A 
ATOM      9  C   UNL     1       6.494   0.472  -1.098  1.00  0.00     0.054 A 
ATOM     10  C   UNL     1       7.291  -1.629   0.479  1.00  0.00     0.051 A 
ATOM     11  C   UNL     1       7.249  -0.548  -1.645  1.00  0.00     0.166 A 
ATOM     12  C   UNL     1       7.650  -1.601  -0.859  1.00  0.00     0.165 A 
ATOM     13  O   UNL     1       7.729  -0.750  -2.927  1.00  0.00    -0.454 OA
ATOM     14  O   UNL     1       8.387  -2.458  -1.679  1.00  0.00    -0.454 OA
ATOM     15  C   UNL     1       8.711  -1.797  -2.880  1.00  0.00     0.468 C 
ENDBRANCH   6   7
ENDBRANCH   1   6
TORSDOF 4
ENDMDL
MODEL 2
REMARK VINA RESULT:      -7.6      2.130      2.522
REMARK SMILES O=C(O)CCc1ccc2c(c1)OCO2
REMARK SMILES IDX 4 1 2 2 1 3 3 4 5 6 6 7 7 8 11 9 8 10 10 11 9 12 12 13 14 14
REMARK SMILES IDX 13 15
REMARK H PARENT 3 5
REMARK Flexibility Score: inf
ROOT
ATOM      1  C   UNL     1       4.700   1.881   0.687  1.00  0.00     0.127 C 
ENDROOT
BRANCH   1   2
ATOM      2  C   UNL     1       4.411   1.163   1.918  1.00  0.00     0.303 C 
ATOM      3  O   UNL     1       5.153   0.340   2.459  1.00  0.00    -0.252 OA
BRANCH   2   4
ATOM      4  O   UNL     1       3.184   1.427   2.546  1.00  0.00    -0.481 OA
ATOM      5  H   UNL     1       2.531   0.660   2.587  1.00  0.00     0.296 HD
ENDBRANCH   2   4
ENDBRANCH   1   2
BRANCH   1   6
ATOM      6  C   UNL     1       6.123   2.250   0.527  1.00  0.00     0.047 C 
BRANCH   6   7
ATOM      7  C   UNL     1       6.976   1.340  -0.240  1.00  0.00    -0.043 A 
ATOM      8  C   UNL     1       8.338   1.561  -0.371  1.00  0.00     0.008 A 
ATOM      9  C   UNL     1       6.442   0.257  -0.886  1.00  0.00     0.054 A 
ATOM     10  C   UNL     1       9.136   0.726  -1.121  1.00  0.00     0.051 A 
ATOM     11  C   UNL     1       7.222  -0.595  -1.644  1.00  0.00     0.166 A 
ATOM     12  C   UNL     1       8.572  -0.364  -1.764  1.00  0.00     0.165 A 
ATOM     13  O   UNL     1       6.906  -1.730  -2.370  1.00  0.00    -0.454 OA
ATOM     14  O   UNL     1       9.083  -1.376  -2.578  1.00  0.00    -0.454 OA
ATOM     15  C   UNL     1       8.021  -2.048  -3.216  1.00  0.00     0.468 C 
ENDBRANCH   6   7
ENDBRANCH   1   6
TORSDOF 4
ENDMDL
MODEL 3
REMARK VINA RESULT:      -7.5      1.970      2.896
REMARK SMILES O=C(O)CCc1ccc2c(c1)OCO2
REMARK SMILES IDX 4 1 2 2 1 3 3 4 5 6 6 7 7 8 11 9 8 10 10 11 9 12 12 13 14 14
REMARK SMILES IDX 13 15
REMARK H PARENT 3 5
REMARK Flexibility Score: inf
ROOT
ATOM      1  C   UNL     1       6.392   1.289   0.625  1.00  0.00     0.127 C 
ENDROOT
BRANCH   1   2
ATOM      2  C   UNL     1       5.169   1.334   1.410  1.00  0.00     0.303 C 
ATOM      3  O   UNL     1       4.269   2.168   1.289  1.00  0.00    -0.252 OA
BRANCH   2   4
ATOM      4  O   UNL     1       4.995   0.344   2.391  1.00  0.00    -0.481 OA
ATOM      5  H   UNL     1       5.485   0.488   3.260  1.00  0.00     0.296 HD
ENDBRANCH   2   4
ENDBRANCH   1   2
BRANCH   1   6
ATOM      6  C   UNL     1       6.203   0.791  -0.754  1.00  0.00     0.047 C 
BRANCH   6   7
ATOM      7  C   UNL     1       6.970  -0.388  -1.160  1.00  0.00    -0.043 A 
ATOM      8  C   UNL     1       7.284  -0.626  -2.489  1.00  0.00     0.008 A 
ATOM      9  C   UNL     1       7.368  -1.317  -0.235  1.00  0.00     0.054 A 
ATOM     10  C   UNL     1       7.974  -1.753  -2.876  1.00  0.00     0.051 A 
ATOM     11  C   UNL     1       8.061  -2.455  -0.600  1.00  0.00     0.166 A 
ATOM     12  C   UNL     1       8.367  -2.677  -1.921  1.00  0.00     0.165 A 
ATOM     13  O   UNL     1       8.556  -3.510   0.147  1.00  0.00    -0.454 OA
ATOM     14  O   UNL     1       9.059  -3.888  -1.976  1.00  0.00    -0.454 OA
ATOM     15  C   UNL     1       8.913  -4.570  -0.752  1.00  0.00     0.468 C 
ENDBRANCH   6   7
ENDBRANCH   1   6
TORSDOF 4
ENDMDL
MODEL 4
REMARK VINA RESULT:      -7.4      1.803      5.287
REMARK SMILES O=C(O)CCc1ccc2c(c1)OCO2
REMARK SMILES IDX 4 1 2 2 1 3 3 4 5 6 6 7 7 8 11 9 8 10 10 11 9 12 12 13 14 14
REMARK SMILES IDX 13 15
REMARK H PARENT 3 5
REMARK Flexibility Score: inf
ROOT
ATOM      1  C   UNL     1       8.306  -0.317  -2.853  1.00  0.00     0.127 C 
ENDROOT
BRANCH   1   2
ATOM      2  C   UNL     1       8.466  -1.746  -3.070  1.00  0.00     0.303 C 
ATOM      3  O   UNL     1       9.533  -2.362  -3.030  1.00  0.00    -0.252 OA
BRANCH   2   4
ATOM      4  O   UNL     1       7.309  -2.489  -3.350  1.00  0.00    -0.481 OA
ATOM      5  H   UNL     1       6.536  -1.977  -3.747  1.00  0.00     0.296 HD
ENDBRANCH   2   4
ENDBRANCH   1   2
BRANCH   1   6
ATOM      6  C   UNL     1       8.761   0.143  -1.524  1.00  0.00     0.047 C 
BRANCH   6   7
ATOM      7  C   UNL     1       7.792   0.103  -0.426  1.00  0.00    -0.043 A 
ATOM      8  C   UNL     1       7.746  -0.961   0.461  1.00  0.00     0.008 A 
ATOM      9  C   UNL     1       6.873   1.106  -0.266  1.00  0.00     0.054 A 
ATOM     10  C   UNL     1       6.813  -1.017   1.472  1.00  0.00     0.051 A 
ATOM     11  C   UNL     1       5.928   1.071   0.741  1.00  0.00     0.166 A 
ATOM     12  C   UNL     1       5.894   0.010   1.614  1.00  0.00     0.165 A 
ATOM     13  O   UNL     1       4.920   1.955   1.087  1.00  0.00    -0.454 OA
ATOM     14  O   UNL     1       4.848   0.254   2.505  1.00  0.00    -0.454 OA
ATOM     15  C   UNL     1       4.038   1.293   2.006  1.00  0.00     0.468 C 
ENDBRANCH   6   7
ENDBRANCH   1   6
TORSDOF 4
ENDMDL
MODEL 5
REMARK VINA RESULT:      -7.4      0.940      2.109
REMARK SMILES O=C(O)CCc1ccc2c(c1)OCO2
REMARK SMILES IDX 4 1 2 2 1 3 3 4 5 6 6 7 7 8 11 9 8 10 10 11 9 12 12 13 14 14
REMARK SMILES IDX 13 15
REMARK H PARENT 3 5
REMARK Flexibility Score: inf
ROOT
ATOM      1  C   UNL     1       5.354   2.860   0.231  1.00  0.00     0.127 C 
ENDROOT
BRANCH   1   2
ATOM      2  C   UNL     1       6.213   3.815   0.914  1.00  0.00     0.303 C 
ATOM      3  O   UNL     1       6.417   3.855   2.129  1.00  0.00    -0.252 OA
BRANCH   2   4
ATOM      4  O   UNL     1       6.865   4.774   0.124  1.00  0.00    -0.481 OA
ATOM      5  H   UNL     1       6.717   4.708  -0.871  1.00  0.00     0.296 HD
ENDBRANCH   2   4
ENDBRANCH   1   2
BRANCH   1   6
ATOM      6  C   UNL     1       5.351   1.513   0.840  1.00  0.00     0.047 C 
BRANCH   6   7
ATOM      7  C   UNL     1       6.195   0.488   0.222  1.00  0.00    -0.043 A 
ATOM      8  C   UNL     1       6.484   0.508  -1.134  1.00  0.00     0.008 A 
ATOM      9  C   UNL     1       6.696  -0.548   0.965  1.00  0.00     0.054 A 
ATOM     10  C   UNL     1       7.248  -0.474  -1.723  1.00  0.00     0.051 A 
ATOM     11  C   UNL     1       7.466  -1.545   0.395  1.00  0.00     0.166 A 
ATOM     12  C   UNL     1       7.744  -1.512  -0.950  1.00  0.00     0.165 A 
ATOM     13  O   UNL     1       8.066  -2.666   0.939  1.00  0.00    -0.454 OA
ATOM     14  O   UNL     1       8.528  -2.633  -1.227  1.00  0.00    -0.454 OA
ATOM     15  C   UNL     1       8.477  -3.523  -0.137  1.00  0.00     0.468 C 
ENDBRANCH   6   7
ENDBRANCH   1   6
TORSDOF 4
ENDMDL
