@<TRIPOS>MOLECULE
/home/cewinharhar/GITHUB/reincatalyze/data/processed/docking_pred/2023-May-17-1006_maxeplen10_maxtrainstep1000_seadep16_gamma099_lrac9e-4_lrcr1e-3_sub6/0c0669ff2f8dcec30d9aff9f411b757c1c1ac29f_ligand_6.pdbqt
 15 16 0 0 0
SMALL
GASTEIGER

@<TRIPOS>ATOM
      1  C          5.3540    2.8600    0.2310 C.3     1  UNL1        0.1270
      2  C          6.2130    3.8150    0.9140 C.2     1  UNL1        0.3030
      3  O          6.4170    3.8550    2.1290 O.2     1  UNL1       -0.2520
      4  O          6.8650    4.7740    0.1240 O.3     1  UNL1       -0.4810
      5  H          6.7170    4.7080   -0.8710 H       1  UNL1        0.2960
      6  C          5.3510    1.5130    0.8400 C.3     1  UNL1        0.0470
      7  C          6.1950    0.4880    0.2220 C.2     1  UNL1       -0.0430
      8  C          6.4840    0.5080   -1.1340 C.2     1  UNL1        0.0080
      9  C          6.6960   -0.5480    0.9650 C.2     1  UNL1        0.0540
     10  C          7.2480   -0.4740   -1.7230 C.2     1  UNL1        0.0510
     11  C          7.4660   -1.5450    0.3950 C.2     1  UNL1        0.1660
     12  C          7.7440   -1.5120   -0.9500 C.2     1  UNL1        0.1650
     13  O          8.0660   -2.6660    0.9390 O.2     1  UNL1       -0.4540
     14  O          8.5280   -2.6330   -1.2270 O.2     1  UNL1       -0.4540
     15  C          8.4770   -3.5230   -0.1370 C.3     1  UNL1        0.4680
@<TRIPOS>BOND
     1    10     8    1
     2    10    12    2
     3    14    12    1
     4    14    15    1
     5     8     7    2
     6    12    11    1
     7     5     4    1
     8    15    13    1
     9     4     2    1
    10     7     6    1
    11     7     9    1
    12     1     6    1
    13     1     2    1
    14    11    13    1
    15    11     9    2
    16     2     3    2
