@<TRIPOS>MOLECULE
/home/cewinharhar/GITHUB/reincatalyze/data/processed/docking_pred/2023-May-17-1006_maxeplen10_maxtrainstep1000_seadep16_gamma099_lrac9e-4_lrcr1e-3_sub6/0c0669ff2f8dcec30d9aff9f411b757c1c1ac29f_ligand_6.pdbqt
 15 16 0 0 0
SMALL
GASTEIGER

@<TRIPOS>ATOM
      1  C          6.3920    1.2890    0.6250 C.3     1  UNL1        0.1270
      2  C          5.1690    1.3340    1.4100 C.2     1  UNL1        0.3030
      3  O          4.2690    2.1680    1.2890 O.2     1  UNL1       -0.2520
      4  O          4.9950    0.3440    2.3910 O.3     1  UNL1       -0.4810
      5  H          5.4850    0.4880    3.2600 H       1  UNL1        0.2960
      6  C          6.2030    0.7910   -0.7540 C.3     1  UNL1        0.0470
      7  C          6.9700   -0.3880   -1.1600 C.2     1  UNL1       -0.0430
      8  C          7.2840   -0.6260   -2.4890 C.2     1  UNL1        0.0080
      9  C          7.3680   -1.3170   -0.2350 C.2     1  UNL1        0.0540
     10  C          7.9740   -1.7530   -2.8760 C.2     1  UNL1        0.0510
     11  C          8.0610   -2.4550   -0.6000 C.2     1  UNL1        0.1660
     12  C          8.3670   -2.6770   -1.9210 C.2     1  UNL1        0.1650
     13  O          8.5560   -3.5100    0.1470 O.2     1  UNL1       -0.4540
     14  O          9.0590   -3.8880   -1.9760 O.2     1  UNL1       -0.4540
     15  C          8.9130   -4.5700   -0.7520 C.3     1  UNL1        0.4680
@<TRIPOS>BOND
     1    10     8    1
     2    10    12    2
     3     8     7    2
     4    14    12    1
     5    14    15    1
     6    12    11    1
     7     7     6    1
     8     7     9    1
     9     6     1    1
    10    15    13    1
    11    11     9    2
    12    11    13    1
    13     1     2    1
    14     3     2    2
    15     2     4    1
    16     4     5    1
