@<TRIPOS>MOLECULE
/home/cewinharhar/GITHUB/reincatalyze/data/processed/docking_pred/2023-May-17-1006_maxeplen10_maxtrainstep1000_seadep16_gamma099_lrac9e-4_lrcr1e-3_sub6/0df60b8790b800bbceb9ee276e91b409308b6f54_ligand_6.pdbqt
 15 16 0 0 0
SMALL
GASTEIGER

@<TRIPOS>ATOM
      1  C          8.3050   -0.3260   -2.8480 C.3     1  UNL1        0.1270
      2  C          8.4700   -1.7540   -3.0700 C.2     1  UNL1        0.3030
      3  O          9.5390   -2.3660   -3.0350 O.2     1  UNL1       -0.2520
      4  O          7.3140   -2.5010   -3.3470 O.3     1  UNL1       -0.4810
      5  H          6.9950   -3.1150   -2.6140 H       1  UNL1        0.2960
      6  C          8.7590    0.1310   -1.5180 C.3     1  UNL1        0.0470
      7  C          7.7890    0.0940   -0.4210 C.2     1  UNL1       -0.0430
      8  C          7.7390   -0.9690    0.4670 C.2     1  UNL1        0.0080
      9  C          6.8720    1.0990   -0.2640 C.2     1  UNL1        0.0540
     10  C          6.8040   -1.0220    1.4760 C.2     1  UNL1        0.0510
     11  C          5.9250    1.0670    0.7420 C.2     1  UNL1        0.1660
     12  C          5.8880    0.0070    1.6160 C.2     1  UNL1        0.1650
     13  O          4.9190    1.9530    1.0850 O.2     1  UNL1       -0.4540
     14  O          4.8400    0.2540    2.5050 O.2     1  UNL1       -0.4540
     15  C          4.0330    1.2940    2.0030 C.3     1  UNL1        0.4680
@<TRIPOS>BOND
     1     4     2    1
     2     4     5    1
     3     2     3    2
     4     2     1    1
     5     1     6    1
     6     6     7    1
     7     7     9    2
     8     7     8    1
     9     9    11    1
    10     8    10    2
    11    11    13    1
    12    11    12    2
    13    13    15    1
    14    10    12    1
    15    12    14    1
    16    15    14    1
