@<TRIPOS>MOLECULE
/home/cewinharhar/GITHUB/reincatalyze/data/processed/docking_pred/2023-May-17-1006_maxeplen10_maxtrainstep1000_seadep16_gamma099_lrac9e-4_lrcr1e-3_sub6/0df60b8790b800bbceb9ee276e91b409308b6f54_ligand_6.pdbqt
 15 16 0 0 0
SMALL
GASTEIGER

@<TRIPOS>ATOM
      1  C          5.3570    2.8550    0.1410 C.3     1  UNL1        0.1270
      2  C          6.1130    3.8730    0.8540 C.2     1  UNL1        0.3030
      3  O          6.1510    4.0120    2.0780 O.2     1  UNL1       -0.2520
      4  O          6.8640    4.7750    0.0840 O.3     1  UNL1       -0.4810
      5  H          7.3490    5.4980    0.5930 H       1  UNL1        0.2960
      6  C          5.3820    1.5260    0.7880 C.3     1  UNL1        0.0470
      7  C          6.2140    0.4890    0.1740 C.2     1  UNL1       -0.0430
      8  C          6.4980    0.4960   -1.1830 C.2     1  UNL1        0.0080
      9  C          6.7070   -0.5470    0.9220 C.2     1  UNL1        0.0540
     10  C          7.2500   -0.4980   -1.7680 C.2     1  UNL1        0.0510
     11  C          7.4650   -1.5550    0.3570 C.2     1  UNL1        0.1660
     12  C          7.7390   -1.5340   -0.9890 C.2     1  UNL1        0.1650
     13  O          8.0570   -2.6790    0.9070 O.2     1  UNL1       -0.4540
     14  O          8.5110   -2.6650   -1.2610 O.2     1  UNL1       -0.4540
     15  C          8.4550   -3.5470   -0.1640 C.3     1  UNL1        0.4680
@<TRIPOS>BOND
     1    10     8    1
     2    10    12    2
     3    14    12    1
     4    14    15    1
     5     8     7    2
     6    12    11    1
     7    15    13    1
     8     4     5    1
     9     4     2    1
    10     1     6    1
    11     1     2    1
    12     7     6    1
    13     7     9    1
    14    11    13    1
    15    11     9    2
    16     2     3    2
