MODEL 1
REMARK VINA RESULT:      -7.6      0.000      0.000
REMARK SMILES O=C(O)CCc1ccc2c(c1)OCO2
REMARK SMILES IDX 4 1 2 2 1 3 3 4 5 6 6 7 7 8 11 9 8 10 10 11 9 12 12 13 14 14
REMARK SMILES IDX 13 15
REMARK H PARENT 3 5
REMARK Flexibility Score: inf
ROOT
ATOM      1  C   UNL     1       5.423   2.875   0.120  1.00  0.00     0.127 C 
ENDROOT
BRANCH   1   2
ATOM      2  C   UNL     1       6.252   3.851   0.809  1.00  0.00     0.303 C 
ATOM      3  O   UNL     1       6.877   4.768   0.273  1.00  0.00    -0.252 OA
BRANCH   2   4
ATOM      4  O   UNL     1       6.350   3.741   2.205  1.00  0.00    -0.481 OA
ATOM      5  H   UNL     1       6.903   4.446   2.670  1.00  0.00     0.296 HD
ENDBRANCH   2   4
ENDBRANCH   1   2
BRANCH   1   6
ATOM      6  C   UNL     1       5.353   1.562   0.796  1.00  0.00     0.047 C 
BRANCH   6   7
ATOM      7  C   UNL     1       6.135   0.464   0.225  1.00  0.00    -0.043 A 
ATOM      8  C   UNL     1       6.604  -0.577   1.011  1.00  0.00     0.008 A 
ATOM      9  C   UNL     1       6.461   0.454  -1.106  1.00  0.00     0.054 A 
ATOM     10  C   UNL     1       7.371  -1.592   0.482  1.00  0.00     0.051 A 
ATOM     11  C   UNL     1       7.227  -0.554  -1.659  1.00  0.00     0.166 A 
ATOM     12  C   UNL     1       7.685  -1.580  -0.868  1.00  0.00     0.165 A 
ATOM     13  O   UNL     1       7.671  -0.767  -2.952  1.00  0.00    -0.454 OA
ATOM     14  O   UNL     1       8.419  -2.431  -1.695  1.00  0.00    -0.454 OA
ATOM     15  C   UNL     1       8.684  -1.784  -2.919  1.00  0.00     0.468 C 
ENDBRANCH   6   7
ENDBRANCH   1   6
TORSDOF 4
ENDMDL
MODEL 2
REMARK VINA RESULT:      -7.6      2.118      2.497
REMARK SMILES O=C(O)CCc1ccc2c(c1)OCO2
REMARK SMILES IDX 4 1 2 2 1 3 3 4 5 6 6 7 7 8 11 9 8 10 10 11 9 12 12 13 14 14
REMARK SMILES IDX 13 15
REMARK H PARENT 3 5
REMARK Flexibility Score: inf
ROOT
ATOM      1  C   UNL     1       4.678   1.872   0.683  1.00  0.00     0.127 C 
ENDROOT
BRANCH   1   2
ATOM      2  C   UNL     1       4.404   1.150   1.915  1.00  0.00     0.303 C 
ATOM      3  O   UNL     1       5.152   0.327   2.446  1.00  0.00    -0.252 OA
BRANCH   2   4
ATOM      4  O   UNL     1       3.183   1.411   2.557  1.00  0.00    -0.481 OA
ATOM      5  H   UNL     1       2.512   1.952   2.034  1.00  0.00     0.296 HD
ENDBRANCH   2   4
ENDBRANCH   1   2
BRANCH   1   6
ATOM      6  C   UNL     1       6.098   2.248   0.510  1.00  0.00     0.047 C 
BRANCH   6   7
ATOM      7  C   UNL     1       6.955   1.331  -0.245  1.00  0.00    -0.043 A 
ATOM      8  C   UNL     1       8.322   1.535  -0.346  1.00  0.00     0.008 A 
ATOM      9  C   UNL     1       6.419   0.260  -0.909  1.00  0.00     0.054 A 
ATOM     10  C   UNL     1       9.124   0.694  -1.085  1.00  0.00     0.051 A 
ATOM     11  C   UNL     1       7.204  -0.597  -1.657  1.00  0.00     0.166 A 
ATOM     12  C   UNL     1       8.559  -0.384  -1.747  1.00  0.00     0.165 A 
ATOM     13  O   UNL     1       6.888  -1.723  -2.398  1.00  0.00    -0.454 OA
ATOM     14  O   UNL     1       9.073  -1.397  -2.558  1.00  0.00    -0.454 OA
ATOM     15  C   UNL     1       8.016  -2.050  -3.222  1.00  0.00     0.468 C 
ENDBRANCH   6   7
ENDBRANCH   1   6
TORSDOF 4
ENDMDL
MODEL 3
REMARK VINA RESULT:      -7.5      1.970      2.871
REMARK SMILES O=C(O)CCc1ccc2c(c1)OCO2
REMARK SMILES IDX 4 1 2 2 1 3 3 4 5 6 6 7 7 8 11 9 8 10 10 11 9 12 12 13 14 14
REMARK SMILES IDX 13 15
REMARK H PARENT 3 5
REMARK Flexibility Score: inf
ROOT
ATOM      1  C   UNL     1       6.394   1.326   0.673  1.00  0.00     0.127 C 
ENDROOT
BRANCH   1   2
ATOM      2  C   UNL     1       5.196   1.283   1.495  1.00  0.00     0.303 C 
ATOM      3  O   UNL     1       4.245   2.063   1.418  1.00  0.00    -0.252 OA
BRANCH   2   4
ATOM      4  O   UNL     1       5.112   0.267   2.460  1.00  0.00    -0.481 OA
ATOM      5  H   UNL     1       5.412  -0.650   2.168  1.00  0.00     0.296 HD
ENDBRANCH   2   4
ENDBRANCH   1   2
BRANCH   1   6
ATOM      6  C   UNL     1       6.187   0.861  -0.715  1.00  0.00     0.047 C 
BRANCH   6   7
ATOM      7  C   UNL     1       6.954  -0.304  -1.161  1.00  0.00    -0.043 A 
ATOM      8  C   UNL     1       7.266  -0.498  -2.498  1.00  0.00     0.008 A 
ATOM      9  C   UNL     1       7.356  -1.261  -0.268  1.00  0.00     0.054 A 
ATOM     10  C   UNL     1       7.956  -1.611  -2.923  1.00  0.00     0.051 A 
ATOM     11  C   UNL     1       8.051  -2.386  -0.671  1.00  0.00     0.166 A 
ATOM     12  C   UNL     1       8.353  -2.565  -2.000  1.00  0.00     0.165 A 
ATOM     13  O   UNL     1       8.549  -3.463   0.040  1.00  0.00    -0.454 OA
ATOM     14  O   UNL     1       9.047  -3.772  -2.096  1.00  0.00    -0.454 OA
ATOM     15  C   UNL     1       8.905  -4.493  -0.894  1.00  0.00     0.468 C 
ENDBRANCH   6   7
ENDBRANCH   1   6
TORSDOF 4
ENDMDL
MODEL 4
REMARK VINA RESULT:      -7.4      1.794      5.289
REMARK SMILES O=C(O)CCc1ccc2c(c1)OCO2
REMARK SMILES IDX 4 1 2 2 1 3 3 4 5 6 6 7 7 8 11 9 8 10 10 11 9 12 12 13 14 14
REMARK SMILES IDX 13 15
REMARK H PARENT 3 5
REMARK Flexibility Score: inf
ROOT
ATOM      1  C   UNL     1       8.305  -0.326  -2.848  1.00  0.00     0.127 C 
ENDROOT
BRANCH   1   2
ATOM      2  C   UNL     1       8.470  -1.754  -3.070  1.00  0.00     0.303 C 
ATOM      3  O   UNL     1       9.539  -2.366  -3.035  1.00  0.00    -0.252 OA
BRANCH   2   4
ATOM      4  O   UNL     1       7.314  -2.501  -3.347  1.00  0.00    -0.481 OA
ATOM      5  H   UNL     1       6.995  -3.115  -2.614  1.00  0.00     0.296 HD
ENDBRANCH   2   4
ENDBRANCH   1   2
BRANCH   1   6
ATOM      6  C   UNL     1       8.759   0.131  -1.518  1.00  0.00     0.047 C 
BRANCH   6   7
ATOM      7  C   UNL     1       7.789   0.094  -0.421  1.00  0.00    -0.043 A 
ATOM      8  C   UNL     1       7.739  -0.969   0.467  1.00  0.00     0.008 A 
ATOM      9  C   UNL     1       6.872   1.099  -0.264  1.00  0.00     0.054 A 
ATOM     10  C   UNL     1       6.804  -1.022   1.476  1.00  0.00     0.051 A 
ATOM     11  C   UNL     1       5.925   1.067   0.742  1.00  0.00     0.166 A 
ATOM     12  C   UNL     1       5.888   0.007   1.616  1.00  0.00     0.165 A 
ATOM     13  O   UNL     1       4.919   1.953   1.085  1.00  0.00    -0.454 OA
ATOM     14  O   UNL     1       4.840   0.254   2.505  1.00  0.00    -0.454 OA
ATOM     15  C   UNL     1       4.033   1.294   2.003  1.00  0.00     0.468 C 
ENDBRANCH   6   7
ENDBRANCH   1   6
TORSDOF 4
ENDMDL
MODEL 5
REMARK VINA RESULT:      -7.0      0.944      2.113
REMARK SMILES O=C(O)CCc1ccc2c(c1)OCO2
REMARK SMILES IDX 4 1 2 2 1 3 3 4 5 6 6 7 7 8 11 9 8 10 10 11 9 12 12 13 14 14
REMARK SMILES IDX 13 15
REMARK H PARENT 3 5
REMARK Flexibility Score: inf
ROOT
ATOM      1  C   UNL     1       5.357   2.855   0.141  1.00  0.00     0.127 C 
ENDROOT
BRANCH   1   2
ATOM      2  C   UNL     1       6.113   3.873   0.854  1.00  0.00     0.303 C 
ATOM      3  O   UNL     1       6.151   4.012   2.078  1.00  0.00    -0.252 OA
BRANCH   2   4
ATOM      4  O   UNL     1       6.864   4.775   0.084  1.00  0.00    -0.481 OA
ATOM      5  H   UNL     1       7.349   5.498   0.593  1.00  0.00     0.296 HD
ENDBRANCH   2   4
ENDBRANCH   1   2
BRANCH   1   6
ATOM      6  C   UNL     1       5.382   1.526   0.788  1.00  0.00     0.047 C 
BRANCH   6   7
ATOM      7  C   UNL     1       6.214   0.489   0.174  1.00  0.00    -0.043 A 
ATOM      8  C   UNL     1       6.498   0.496  -1.183  1.00  0.00     0.008 A 
ATOM      9  C   UNL     1       6.707  -0.547   0.922  1.00  0.00     0.054 A 
ATOM     10  C   UNL     1       7.250  -0.498  -1.768  1.00  0.00     0.051 A 
ATOM     11  C   UNL     1       7.465  -1.555   0.357  1.00  0.00     0.166 A 
ATOM     12  C   UNL     1       7.739  -1.534  -0.989  1.00  0.00     0.165 A 
ATOM     13  O   UNL     1       8.057  -2.679   0.907  1.00  0.00    -0.454 OA
ATOM     14  O   UNL     1       8.511  -2.665  -1.261  1.00  0.00    -0.454 OA
ATOM     15  C   UNL     1       8.455  -3.547  -0.164  1.00  0.00     0.468 C 
ENDBRANCH   6   7
ENDBRANCH   1   6
TORSDOF 4
ENDMDL
