@<TRIPOS>MOLECULE
/home/cewinharhar/GITHUB/reincatalyze/data/processed/docking_pred/2023-May-17-1006_maxeplen10_maxtrainstep1000_seadep16_gamma099_lrac9e-4_lrcr1e-3_sub6/0df60b8790b800bbceb9ee276e91b409308b6f54_ligand_6.pdbqt
 15 16 0 0 0
SMALL
GASTEIGER

@<TRIPOS>ATOM
      1  C          6.3940    1.3260    0.6730 C.3     1  UNL1        0.1270
      2  C          5.1960    1.2830    1.4950 C.2     1  UNL1        0.3030
      3  O          4.2450    2.0630    1.4180 O.2     1  UNL1       -0.2520
      4  O          5.1120    0.2670    2.4600 O.3     1  UNL1       -0.4810
      5  H          5.4120   -0.6500    2.1680 H       1  UNL1        0.2960
      6  C          6.1870    0.8610   -0.7150 C.3     1  UNL1        0.0470
      7  C          6.9540   -0.3040   -1.1610 C.2     1  UNL1       -0.0430
      8  C          7.2660   -0.4980   -2.4980 C.2     1  UNL1        0.0080
      9  C          7.3560   -1.2610   -0.2680 C.2     1  UNL1        0.0540
     10  C          7.9560   -1.6110   -2.9230 C.2     1  UNL1        0.0510
     11  C          8.0510   -2.3860   -0.6710 C.2     1  UNL1        0.1660
     12  C          8.3530   -2.5650   -2.0000 C.2     1  UNL1        0.1650
     13  O          8.5490   -3.4630    0.0400 O.2     1  UNL1       -0.4540
     14  O          9.0470   -3.7720   -2.0960 O.2     1  UNL1       -0.4540
     15  C          8.9050   -4.4930   -0.8940 C.3     1  UNL1        0.4680
@<TRIPOS>BOND
     1    10     8    1
     2    10    12    2
     3     8     7    2
     4    14    12    1
     5    14    15    1
     6    12    11    1
     7     7     6    1
     8     7     9    1
     9    15    13    1
    10     6     1    1
    11    11     9    2
    12    11    13    1
    13     1     2    1
    14     3     2    2
    15     2     4    1
    16     5     4    1
