@<TRIPOS>MOLECULE
/home/cewinharhar/GITHUB/reincatalyze/data/processed/docking_pred/2023-May-17-1006_maxeplen10_maxtrainstep1000_seadep16_gamma099_lrac9e-4_lrcr1e-3_sub6/0df60b8790b800bbceb9ee276e91b409308b6f54_ligand_6.pdbqt
 15 16 0 0 0
SMALL
GASTEIGER

@<TRIPOS>ATOM
      1  C          4.6780    1.8720    0.6830 C.3     1  UNL1        0.1270
      2  C          4.4040    1.1500    1.9150 C.2     1  UNL1        0.3030
      3  O          5.1520    0.3270    2.4460 O.2     1  UNL1       -0.2520
      4  O          3.1830    1.4110    2.5570 O.3     1  UNL1       -0.4810
      5  H          2.5120    1.9520    2.0340 H       1  UNL1        0.2960
      6  C          6.0980    2.2480    0.5100 C.3     1  UNL1        0.0470
      7  C          6.9550    1.3310   -0.2450 C.2     1  UNL1       -0.0430
      8  C          8.3220    1.5350   -0.3460 C.2     1  UNL1        0.0080
      9  C          6.4190    0.2600   -0.9090 C.2     1  UNL1        0.0540
     10  C          9.1240    0.6940   -1.0850 C.2     1  UNL1        0.0510
     11  C          7.2040   -0.5970   -1.6570 C.2     1  UNL1        0.1660
     12  C          8.5590   -0.3840   -1.7470 C.2     1  UNL1        0.1650
     13  O          6.8880   -1.7230   -2.3980 O.2     1  UNL1       -0.4540
     14  O          9.0730   -1.3970   -2.5580 O.2     1  UNL1       -0.4540
     15  C          8.0160   -2.0500   -3.2220 C.3     1  UNL1        0.4680
@<TRIPOS>BOND
     1    15    14    1
     2    15    13    1
     3    14    12    1
     4    13    11    1
     5    12    11    2
     6    12    10    1
     7    11     9    1
     8    10     8    2
     9     9     7    2
    10     8     7    1
    11     7     6    1
    12     6     1    1
    13     1     2    1
    14     2     3    2
    15     2     4    1
    16     5     4    1
