@<TRIPOS>MOLECULE
/home/cewinharhar/GITHUB/reincatalyze/data/processed/docking_pred/2023-May-17-1006_maxeplen10_maxtrainstep1000_seadep16_gamma099_lrac9e-4_lrcr1e-3_sub6/0df60b8790b800bbceb9ee276e91b409308b6f54_ligand_6.pdbqt
 15 16 0 0 0
SMALL
GASTEIGER

@<TRIPOS>ATOM
      1  C          5.4230    2.8750    0.1200 C.3     1  UNL1        0.1270
      2  C          6.2520    3.8510    0.8090 C.2     1  UNL1        0.3030
      3  O          6.8770    4.7680    0.2730 O.2     1  UNL1       -0.2520
      4  O          6.3500    3.7410    2.2050 O.3     1  UNL1       -0.4810
      5  H          6.9030    4.4460    2.6700 H       1  UNL1        0.2960
      6  C          5.3530    1.5620    0.7960 C.3     1  UNL1        0.0470
      7  C          6.1350    0.4640    0.2250 C.2     1  UNL1       -0.0430
      8  C          6.6040   -0.5770    1.0110 C.2     1  UNL1        0.0080
      9  C          6.4610    0.4540   -1.1060 C.2     1  UNL1        0.0540
     10  C          7.3710   -1.5920    0.4820 C.2     1  UNL1        0.0510
     11  C          7.2270   -0.5540   -1.6590 C.2     1  UNL1        0.1660
     12  C          7.6850   -1.5800   -0.8680 C.2     1  UNL1        0.1650
     13  O          7.6710   -0.7670   -2.9520 O.2     1  UNL1       -0.4540
     14  O          8.4190   -2.4310   -1.6950 O.2     1  UNL1       -0.4540
     15  C          8.6840   -1.7840   -2.9190 C.3     1  UNL1        0.4680
@<TRIPOS>BOND
     1    13    15    1
     2    13    11    1
     3    15    14    1
     4    14    12    1
     5    11     9    1
     6    11    12    2
     7     9     7    2
     8    12    10    1
     9     1     6    1
    10     1     2    1
    11     7     6    1
    12     7     8    1
    13     3     2    2
    14    10     8    2
    15     2     4    1
    16     4     5    1
