MODEL 1
REMARK VINA RESULT:      -7.6      0.000      0.000
REMARK SMILES O=C(O)CCc1ccc2c(c1)OCO2
REMARK SMILES IDX 4 1 2 2 1 3 3 4 5 6 6 7 7 8 11 9 8 10 10 11 9 12 12 13 14 14
REMARK SMILES IDX 13 15
REMARK H PARENT 3 5
REMARK Flexibility Score: inf
ROOT
ATOM      1  C   UNL     1       5.410   2.868   0.130  1.00  0.00     0.127 C 
ENDROOT
BRANCH   1   2
ATOM      2  C   UNL     1       6.235   3.847   0.821  1.00  0.00     0.303 C 
ATOM      3  O   UNL     1       6.874   4.754   0.284  1.00  0.00    -0.252 OA
BRANCH   2   4
ATOM      4  O   UNL     1       6.312   3.753   2.219  1.00  0.00    -0.481 OA
ATOM      5  H   UNL     1       5.610   4.257   2.739  1.00  0.00     0.296 HD
ENDBRANCH   2   4
ENDBRANCH   1   2
BRANCH   1   6
ATOM      6  C   UNL     1       5.336   1.558   0.811  1.00  0.00     0.047 C 
BRANCH   6   7
ATOM      7  C   UNL     1       6.122   0.457   0.250  1.00  0.00    -0.043 A 
ATOM      8  C   UNL     1       6.577  -0.586   1.041  1.00  0.00     0.008 A 
ATOM      9  C   UNL     1       6.465   0.447  -1.076  1.00  0.00     0.054 A 
ATOM     10  C   UNL     1       7.346  -1.603   0.522  1.00  0.00     0.051 A 
ATOM     11  C   UNL     1       7.236  -0.563  -1.619  1.00  0.00     0.166 A 
ATOM     12  C   UNL     1       7.679  -1.591  -0.823  1.00  0.00     0.165 A 
ATOM     13  O   UNL     1       7.696  -0.776  -2.907  1.00  0.00    -0.454 OA
ATOM     14  O   UNL     1       8.421  -2.444  -1.641  1.00  0.00    -0.454 OA
ATOM     15  C   UNL     1       8.705  -1.797  -2.860  1.00  0.00     0.468 C 
ENDBRANCH   6   7
ENDBRANCH   1   6
TORSDOF 4
ENDMDL
MODEL 2
REMARK VINA RESULT:      -7.6      2.121      2.511
REMARK SMILES O=C(O)CCc1ccc2c(c1)OCO2
REMARK SMILES IDX 4 1 2 2 1 3 3 4 5 6 6 7 7 8 11 9 8 10 10 11 9 12 12 13 14 14
REMARK SMILES IDX 13 15
REMARK H PARENT 3 5
REMARK Flexibility Score: inf
ROOT
ATOM      1  C   UNL     1       4.675   1.854   0.670  1.00  0.00     0.127 C 
ENDROOT
BRANCH   1   2
ATOM      2  C   UNL     1       4.399   1.156   1.916  1.00  0.00     0.303 C 
ATOM      3  O   UNL     1       5.147   0.346   2.465  1.00  0.00    -0.252 OA
BRANCH   2   4
ATOM      4  O   UNL     1       3.176   1.428   2.550  1.00  0.00    -0.481 OA
ATOM      5  H   UNL     1       3.022   0.971   3.435  1.00  0.00     0.296 HD
ENDBRANCH   2   4
ENDBRANCH   1   2
BRANCH   1   6
ATOM      6  C   UNL     1       6.091   2.243   0.501  1.00  0.00     0.047 C 
BRANCH   6   7
ATOM      7  C   UNL     1       6.957   1.336  -0.256  1.00  0.00    -0.043 A 
ATOM      8  C   UNL     1       8.318   1.567  -0.378  1.00  0.00     0.008 A 
ATOM      9  C   UNL     1       6.435   0.247  -0.902  1.00  0.00     0.054 A 
ATOM     10  C   UNL     1       9.127   0.735  -1.120  1.00  0.00     0.051 A 
ATOM     11  C   UNL     1       7.228  -0.602  -1.651  1.00  0.00     0.166 A 
ATOM     12  C   UNL     1       8.576  -0.361  -1.763  1.00  0.00     0.165 A 
ATOM     13  O   UNL     1       6.925  -1.742  -2.376  1.00  0.00    -0.454 OA
ATOM     14  O   UNL     1       9.100  -1.372  -2.569  1.00  0.00    -0.454 OA
ATOM     15  C   UNL     1       8.049  -2.055  -3.212  1.00  0.00     0.468 C 
ENDBRANCH   6   7
ENDBRANCH   1   6
TORSDOF 4
ENDMDL
MODEL 3
REMARK VINA RESULT:      -7.5      1.795      5.282
REMARK SMILES O=C(O)CCc1ccc2c(c1)OCO2
REMARK SMILES IDX 4 1 2 2 1 3 3 4 5 6 6 7 7 8 11 9 8 10 10 11 9 12 12 13 14 14
REMARK SMILES IDX 13 15
REMARK H PARENT 3 5
REMARK Flexibility Score: inf
ROOT
ATOM      1  C   UNL     1       8.303  -0.315  -2.840  1.00  0.00     0.127 C 
ENDROOT
BRANCH   1   2
ATOM      2  C   UNL     1       8.468  -1.744  -3.061  1.00  0.00     0.303 C 
ATOM      3  O   UNL     1       9.537  -2.357  -3.022  1.00  0.00    -0.252 OA
BRANCH   2   4
ATOM      4  O   UNL     1       7.313  -2.489  -3.344  1.00  0.00    -0.481 OA
ATOM      5  H   UNL     1       6.574  -2.441  -2.660  1.00  0.00     0.296 HD
ENDBRANCH   2   4
ENDBRANCH   1   2
BRANCH   1   6
ATOM      6  C   UNL     1       8.762   0.143  -1.511  1.00  0.00     0.047 C 
BRANCH   6   7
ATOM      7  C   UNL     1       7.796   0.106  -0.411  1.00  0.00    -0.043 A 
ATOM      8  C   UNL     1       7.763  -0.948   0.490  1.00  0.00     0.008 A 
ATOM      9  C   UNL     1       6.865   1.099  -0.263  1.00  0.00     0.054 A 
ATOM     10  C   UNL     1       6.832  -1.002   1.503  1.00  0.00     0.051 A 
ATOM     11  C   UNL     1       5.921   1.067   0.746  1.00  0.00     0.166 A 
ATOM     12  C   UNL     1       5.901   0.017   1.632  1.00  0.00     0.165 A 
ATOM     13  O   UNL     1       4.904   1.943   1.082  1.00  0.00    -0.454 OA
ATOM     14  O   UNL     1       4.853   0.260   2.521  1.00  0.00    -0.454 OA
ATOM     15  C   UNL     1       4.030   1.283   2.010  1.00  0.00     0.468 C 
ENDBRANCH   6   7
ENDBRANCH   1   6
TORSDOF 4
ENDMDL
MODEL 4
REMARK VINA RESULT:      -7.4      1.949      2.841
REMARK SMILES O=C(O)CCc1ccc2c(c1)OCO2
REMARK SMILES IDX 4 1 2 2 1 3 3 4 5 6 6 7 7 8 11 9 8 10 10 11 9 12 12 13 14 14
REMARK SMILES IDX 13 15
REMARK H PARENT 3 5
REMARK Flexibility Score: inf
ROOT
ATOM      1  C   UNL     1       6.446   1.304   0.789  1.00  0.00     0.127 C 
ENDROOT
BRANCH   1   2
ATOM      2  C   UNL     1       5.170   1.323   1.486  1.00  0.00     0.303 C 
ATOM      3  O   UNL     1       4.271   2.149   1.314  1.00  0.00    -0.252 OA
BRANCH   2   4
ATOM      4  O   UNL     1       4.940   0.316   2.436  1.00  0.00    -0.481 OA
ATOM      5  H   UNL     1       4.845   0.620   3.393  1.00  0.00     0.296 HD
ENDBRANCH   2   4
ENDBRANCH   1   2
BRANCH   1   6
ATOM      6  C   UNL     1       6.339   0.986  -0.651  1.00  0.00     0.047 C 
BRANCH   6   7
ATOM      7  C   UNL     1       7.050  -0.199  -1.138  1.00  0.00    -0.043 A 
ATOM      8  C   UNL     1       7.304  -0.388  -2.487  1.00  0.00     0.008 A 
ATOM      9  C   UNL     1       7.453  -1.179  -0.270  1.00  0.00     0.054 A 
ATOM     10  C   UNL     1       7.940  -1.519  -2.950  1.00  0.00     0.051 A 
ATOM     11  C   UNL     1       8.093  -2.322  -0.711  1.00  0.00     0.166 A 
ATOM     12  C   UNL     1       8.339  -2.496  -2.052  1.00  0.00     0.165 A 
ATOM     13  O   UNL     1       8.581  -3.423  -0.030  1.00  0.00    -0.454 OA
ATOM     14  O   UNL     1       8.988  -3.724  -2.186  1.00  0.00    -0.454 OA
ATOM     15  C   UNL     1       8.867  -4.454  -0.987  1.00  0.00     0.468 C 
ENDBRANCH   6   7
ENDBRANCH   1   6
TORSDOF 4
ENDMDL
MODEL 5
REMARK VINA RESULT:      -7.2      1.153      2.019
REMARK SMILES O=C(O)CCc1ccc2c(c1)OCO2
REMARK SMILES IDX 4 1 2 2 1 3 3 4 5 6 6 7 7 8 11 9 8 10 10 11 9 12 12 13 14 14
REMARK SMILES IDX 13 15
REMARK H PARENT 3 5
REMARK Flexibility Score: inf
ROOT
ATOM      1  C   UNL     1       6.467   2.577   1.269  1.00  0.00     0.127 C 
ENDROOT
BRANCH   1   2
ATOM      2  C   UNL     1       6.454   4.030   1.207  1.00  0.00     0.303 C 
ATOM      3  O   UNL     1       6.791   4.709   0.236  1.00  0.00    -0.252 OA
BRANCH   2   4
ATOM      4  O   UNL     1       6.020   4.720   2.350  1.00  0.00    -0.481 OA
ATOM      5  H   UNL     1       5.694   5.663   2.204  1.00  0.00     0.296 HD
ENDBRANCH   2   4
ENDBRANCH   1   2
BRANCH   1   6
ATOM      6  C   UNL     1       5.929   1.919   0.059  1.00  0.00     0.047 C 
BRANCH   6   7
ATOM      7  C   UNL     1       6.577   0.684  -0.386  1.00  0.00    -0.043 A 
ATOM      8  C   UNL     1       6.532   0.278  -1.711  1.00  0.00     0.008 A 
ATOM      9  C   UNL     1       7.219  -0.132   0.508  1.00  0.00     0.054 A 
ATOM     10  C   UNL     1       7.110  -0.901  -2.124  1.00  0.00     0.051 A 
ATOM     11  C   UNL     1       7.807  -1.319   0.116  1.00  0.00     0.166 A 
ATOM     12  C   UNL     1       7.755  -1.708  -1.201  1.00  0.00     0.165 A 
ATOM     13  O   UNL     1       8.496  -2.283   0.831  1.00  0.00    -0.454 OA
ATOM     14  O   UNL     1       8.424  -2.930  -1.286  1.00  0.00    -0.454 OA
ATOM     15  C   UNL     1       8.617  -3.453   0.008  1.00  0.00     0.468 C 
ENDBRANCH   6   7
ENDBRANCH   1   6
TORSDOF 4
ENDMDL
