@<TRIPOS>MOLECULE
/home/cewinharhar/GITHUB/reincatalyze/data/processed/docking_pred/2023-May-17-1006_maxeplen10_maxtrainstep1000_seadep16_gamma099_lrac9e-4_lrcr1e-3_sub6/104e94148118840ff9051874ebdd157f969f5898_ligand_6.pdbqt
 15 16 0 0 0
SMALL
GASTEIGER

@<TRIPOS>ATOM
      1  C          6.4460    1.3040    0.7890 C.3     1  UNL1        0.1270
      2  C          5.1700    1.3230    1.4860 C.2     1  UNL1        0.3030
      3  O          4.2710    2.1490    1.3140 O.2     1  UNL1       -0.2520
      4  O          4.9400    0.3160    2.4360 O.3     1  UNL1       -0.4810
      5  H          4.8450    0.6200    3.3930 H       1  UNL1        0.2960
      6  C          6.3390    0.9860   -0.6510 C.3     1  UNL1        0.0470
      7  C          7.0500   -0.1990   -1.1380 C.2     1  UNL1       -0.0430
      8  C          7.3040   -0.3880   -2.4870 C.2     1  UNL1        0.0080
      9  C          7.4530   -1.1790   -0.2700 C.2     1  UNL1        0.0540
     10  C          7.9400   -1.5190   -2.9500 C.2     1  UNL1        0.0510
     11  C          8.0930   -2.3220   -0.7110 C.2     1  UNL1        0.1660
     12  C          8.3390   -2.4960   -2.0520 C.2     1  UNL1        0.1650
     13  O          8.5810   -3.4230   -0.0300 O.2     1  UNL1       -0.4540
     14  O          8.9880   -3.7240   -2.1860 O.2     1  UNL1       -0.4540
     15  C          8.8670   -4.4540   -0.9870 C.3     1  UNL1        0.4680
@<TRIPOS>BOND
     1    10     8    1
     2    10    12    2
     3     8     7    2
     4    14    12    1
     5    14    15    1
     6    12    11    1
     7     7     6    1
     8     7     9    1
     9    15    13    1
    10    11     9    2
    11    11    13    1
    12     6     1    1
    13     1     2    1
    14     3     2    2
    15     2     4    1
    16     4     5    1
