@<TRIPOS>MOLECULE
/home/cewinharhar/GITHUB/reincatalyze/data/processed/docking_pred/2023-May-17-1006_maxeplen10_maxtrainstep1000_seadep16_gamma099_lrac9e-4_lrcr1e-3_sub6/104e94148118840ff9051874ebdd157f969f5898_ligand_6.pdbqt
 15 16 0 0 0
SMALL
GASTEIGER

@<TRIPOS>ATOM
      1  C          6.4670    2.5770    1.2690 C.3     1  UNL1        0.1270
      2  C          6.4540    4.0300    1.2070 C.2     1  UNL1        0.3030
      3  O          6.7910    4.7090    0.2360 O.2     1  UNL1       -0.2520
      4  O          6.0200    4.7200    2.3500 O.3     1  UNL1       -0.4810
      5  H          5.6940    5.6630    2.2040 H       1  UNL1        0.2960
      6  C          5.9290    1.9190    0.0590 C.3     1  UNL1        0.0470
      7  C          6.5770    0.6840   -0.3860 C.2     1  UNL1       -0.0430
      8  C          6.5320    0.2780   -1.7110 C.2     1  UNL1        0.0080
      9  C          7.2190   -0.1320    0.5080 C.2     1  UNL1        0.0540
     10  C          7.1100   -0.9010   -2.1240 C.2     1  UNL1        0.0510
     11  C          7.8070   -1.3190    0.1160 C.2     1  UNL1        0.1660
     12  C          7.7550   -1.7080   -1.2010 C.2     1  UNL1        0.1650
     13  O          8.4960   -2.2830    0.8310 O.2     1  UNL1       -0.4540
     14  O          8.4240   -2.9300   -1.2860 O.2     1  UNL1       -0.4540
     15  C          8.6170   -3.4530    0.0080 C.3     1  UNL1        0.4680
@<TRIPOS>BOND
     1    10     8    1
     2    10    12    2
     3     8     7    2
     4    14    12    1
     5    14    15    1
     6    12    11    1
     7     7     6    1
     8     7     9    1
     9    15    13    1
    10     6     1    1
    11    11     9    2
    12    11    13    1
    13     3     2    2
    14     2     1    1
    15     2     4    1
    16     5     4    1
