@<TRIPOS>MOLECULE
/home/cewinharhar/GITHUB/reincatalyze/data/processed/docking_pred/2023-May-17-1006_maxeplen10_maxtrainstep1000_seadep16_gamma099_lrac9e-4_lrcr1e-3_sub6/104e94148118840ff9051874ebdd157f969f5898_ligand_6.pdbqt
 15 16 0 0 0
SMALL
GASTEIGER

@<TRIPOS>ATOM
      1  C          5.4100    2.8680    0.1300 C.3     1  UNL1        0.1270
      2  C          6.2350    3.8470    0.8210 C.2     1  UNL1        0.3030
      3  O          6.8740    4.7540    0.2840 O.2     1  UNL1       -0.2520
      4  O          6.3120    3.7530    2.2190 O.3     1  UNL1       -0.4810
      5  H          5.6100    4.2570    2.7390 H       1  UNL1        0.2960
      6  C          5.3360    1.5580    0.8110 C.3     1  UNL1        0.0470
      7  C          6.1220    0.4570    0.2500 C.2     1  UNL1       -0.0430
      8  C          6.5770   -0.5860    1.0410 C.2     1  UNL1        0.0080
      9  C          6.4650    0.4470   -1.0760 C.2     1  UNL1        0.0540
     10  C          7.3460   -1.6030    0.5220 C.2     1  UNL1        0.0510
     11  C          7.2360   -0.5630   -1.6190 C.2     1  UNL1        0.1660
     12  C          7.6790   -1.5910   -0.8230 C.2     1  UNL1        0.1650
     13  O          7.6960   -0.7760   -2.9070 O.2     1  UNL1       -0.4540
     14  O          8.4210   -2.4440   -1.6410 O.2     1  UNL1       -0.4540
     15  C          8.7050   -1.7970   -2.8600 C.3     1  UNL1        0.4680
@<TRIPOS>BOND
     1    13    15    1
     2    13    11    1
     3    15    14    1
     4    14    12    1
     5    11     9    1
     6    11    12    2
     7     9     7    2
     8    12    10    1
     9     1     6    1
    10     1     2    1
    11     7     6    1
    12     7     8    1
    13     3     2    2
    14    10     8    2
    15     2     4    1
    16     4     5    1
