@<TRIPOS>MOLECULE
/home/cewinharhar/GITHUB/reincatalyze/data/processed/docking_pred/2023-May-17-1006_maxeplen10_maxtrainstep1000_seadep16_gamma099_lrac9e-4_lrcr1e-3_sub6/104e94148118840ff9051874ebdd157f969f5898_ligand_6.pdbqt
 15 16 0 0 0
SMALL
GASTEIGER

@<TRIPOS>ATOM
      1  C          8.3030   -0.3150   -2.8400 C.3     1  UNL1        0.1270
      2  C          8.4680   -1.7440   -3.0610 C.2     1  UNL1        0.3030
      3  O          9.5370   -2.3570   -3.0220 O.2     1  UNL1       -0.2520
      4  O          7.3130   -2.4890   -3.3440 O.3     1  UNL1       -0.4810
      5  H          6.5740   -2.4410   -2.6600 H       1  UNL1        0.2960
      6  C          8.7620    0.1430   -1.5110 C.3     1  UNL1        0.0470
      7  C          7.7960    0.1060   -0.4110 C.2     1  UNL1       -0.0430
      8  C          7.7630   -0.9480    0.4900 C.2     1  UNL1        0.0080
      9  C          6.8650    1.0990   -0.2630 C.2     1  UNL1        0.0540
     10  C          6.8320   -1.0020    1.5030 C.2     1  UNL1        0.0510
     11  C          5.9210    1.0670    0.7460 C.2     1  UNL1        0.1660
     12  C          5.9010    0.0170    1.6320 C.2     1  UNL1        0.1650
     13  O          4.9040    1.9430    1.0820 O.2     1  UNL1       -0.4540
     14  O          4.8530    0.2600    2.5210 O.2     1  UNL1       -0.4540
     15  C          4.0300    1.2830    2.0100 C.3     1  UNL1        0.4680
@<TRIPOS>BOND
     1     4     2    1
     2     4     5    1
     3     2     3    2
     4     2     1    1
     5     1     6    1
     6     6     7    1
     7     7     9    2
     8     7     8    1
     9     9    11    1
    10     8    10    2
    11    11    13    1
    12    11    12    2
    13    13    15    1
    14    10    12    1
    15    12    14    1
    16    15    14    1
