MODEL 1
REMARK VINA RESULT:      -7.6      0.000      0.000
REMARK SMILES O=C(O)CCc1ccc2c(c1)OCO2
REMARK SMILES IDX 4 1 2 2 1 3 3 4 5 6 6 7 7 8 11 9 8 10 10 11 9 12 12 13 14 14
REMARK SMILES IDX 13 15
REMARK H PARENT 3 5
REMARK Flexibility Score: inf
ROOT
ATOM      1  C   UNL     1       5.355   2.889   0.149  1.00  0.00     0.127 C 
ENDROOT
BRANCH   1   2
ATOM      2  C   UNL     1       6.193   3.879   0.808  1.00  0.00     0.303 C 
ATOM      3  O   UNL     1       6.834   4.766   0.242  1.00  0.00    -0.252 OA
BRANCH   2   4
ATOM      4  O   UNL     1       6.281   3.819   2.208  1.00  0.00    -0.481 OA
ATOM      5  H   UNL     1       5.948   2.971   2.639  1.00  0.00     0.296 HD
ENDBRANCH   2   4
ENDBRANCH   1   2
BRANCH   1   6
ATOM      6  C   UNL     1       5.305   1.586   0.846  1.00  0.00     0.047 C 
BRANCH   6   7
ATOM      7  C   UNL     1       6.080   0.482   0.276  1.00  0.00    -0.043 A 
ATOM      8  C   UNL     1       6.520  -0.575   1.058  1.00  0.00     0.008 A 
ATOM      9  C   UNL     1       6.428   0.482  -1.049  1.00  0.00     0.054 A 
ATOM     10  C   UNL     1       7.280  -1.595   0.531  1.00  0.00     0.051 A 
ATOM     11  C   UNL     1       7.189  -0.532  -1.600  1.00  0.00     0.166 A 
ATOM     12  C   UNL     1       7.617  -1.573  -0.813  1.00  0.00     0.165 A 
ATOM     13  O   UNL     1       7.652  -0.737  -2.888  1.00  0.00    -0.454 OA
ATOM     14  O   UNL     1       8.353  -2.426  -1.638  1.00  0.00    -0.454 OA
ATOM     15  C   UNL     1       8.648  -1.769  -2.849  1.00  0.00     0.468 C 
ENDBRANCH   6   7
ENDBRANCH   1   6
TORSDOF 4
ENDMDL
MODEL 2
REMARK VINA RESULT:      -7.6      2.144      2.525
REMARK SMILES O=C(O)CCc1ccc2c(c1)OCO2
REMARK SMILES IDX 4 1 2 2 1 3 3 4 5 6 6 7 7 8 11 9 8 10 10 11 9 12 12 13 14 14
REMARK SMILES IDX 13 15
REMARK H PARENT 3 5
REMARK Flexibility Score: inf
ROOT
ATOM      1  C   UNL     1       4.701   1.854   0.688  1.00  0.00     0.127 C 
ENDROOT
BRANCH   1   2
ATOM      2  C   UNL     1       4.410   1.138   1.921  1.00  0.00     0.303 C 
ATOM      3  O   UNL     1       5.147   0.311   2.460  1.00  0.00    -0.252 OA
BRANCH   2   4
ATOM      4  O   UNL     1       3.187   1.412   2.552  1.00  0.00    -0.481 OA
ATOM      5  H   UNL     1       2.558   2.026   2.057  1.00  0.00     0.296 HD
ENDBRANCH   2   4
ENDBRANCH   1   2
BRANCH   1   6
ATOM      6  C   UNL     1       6.124   2.225   0.531  1.00  0.00     0.047 C 
BRANCH   6   7
ATOM      7  C   UNL     1       6.979   1.318  -0.237  1.00  0.00    -0.043 A 
ATOM      8  C   UNL     1       8.343   1.536  -0.357  1.00  0.00     0.008 A 
ATOM      9  C   UNL     1       6.445   0.242  -0.896  1.00  0.00     0.054 A 
ATOM     10  C   UNL     1       9.143   0.704  -1.108  1.00  0.00     0.051 A 
ATOM     11  C   UNL     1       7.229  -0.606  -1.655  1.00  0.00     0.166 A 
ATOM     12  C   UNL     1       8.579  -0.379  -1.764  1.00  0.00     0.165 A 
ATOM     13  O   UNL     1       6.913  -1.733  -2.394  1.00  0.00    -0.454 OA
ATOM     14  O   UNL     1       9.093  -1.386  -2.583  1.00  0.00    -0.454 OA
ATOM     15  C   UNL     1       8.033  -2.049  -3.234  1.00  0.00     0.468 C 
ENDBRANCH   6   7
ENDBRANCH   1   6
TORSDOF 4
ENDMDL
MODEL 3
REMARK VINA RESULT:      -7.5      1.961      2.886
REMARK SMILES O=C(O)CCc1ccc2c(c1)OCO2
REMARK SMILES IDX 4 1 2 2 1 3 3 4 5 6 6 7 7 8 11 9 8 10 10 11 9 12 12 13 14 14
REMARK SMILES IDX 13 15
REMARK H PARENT 3 5
REMARK Flexibility Score: inf
ROOT
ATOM      1  C   UNL     1       6.409   1.303   0.668  1.00  0.00     0.127 C 
ENDROOT
BRANCH   1   2
ATOM      2  C   UNL     1       5.180   1.335   1.445  1.00  0.00     0.303 C 
ATOM      3  O   UNL     1       4.273   2.159   1.319  1.00  0.00    -0.252 OA
BRANCH   2   4
ATOM      4  O   UNL     1       5.010   0.343   2.424  1.00  0.00    -0.481 OA
ATOM      5  H   UNL     1       4.774  -0.578   2.088  1.00  0.00     0.296 HD
ENDBRANCH   2   4
ENDBRANCH   1   2
BRANCH   1   6
ATOM      6  C   UNL     1       6.222   0.866  -0.732  1.00  0.00     0.047 C 
BRANCH   6   7
ATOM      7  C   UNL     1       6.975  -0.306  -1.182  1.00  0.00    -0.043 A 
ATOM      8  C   UNL     1       7.259  -0.515  -2.523  1.00  0.00     0.008 A 
ATOM      9  C   UNL     1       7.390  -1.257  -0.288  1.00  0.00     0.054 A 
ATOM     10  C   UNL     1       7.935  -1.635  -2.951  1.00  0.00     0.051 A 
ATOM     11  C   UNL     1       8.071  -2.389  -0.695  1.00  0.00     0.166 A 
ATOM     12  C   UNL     1       8.346  -2.582  -2.027  1.00  0.00     0.165 A 
ATOM     13  O   UNL     1       8.577  -3.462   0.017  1.00  0.00    -0.454 OA
ATOM     14  O   UNL     1       9.031  -3.794  -2.126  1.00  0.00    -0.454 OA
ATOM     15  C   UNL     1       8.910  -4.503  -0.914  1.00  0.00     0.468 C 
ENDBRANCH   6   7
ENDBRANCH   1   6
TORSDOF 4
ENDMDL
MODEL 4
REMARK VINA RESULT:      -7.4      1.797      5.282
REMARK SMILES O=C(O)CCc1ccc2c(c1)OCO2
REMARK SMILES IDX 4 1 2 2 1 3 3 4 5 6 6 7 7 8 11 9 8 10 10 11 9 12 12 13 14 14
REMARK SMILES IDX 13 15
REMARK H PARENT 3 5
REMARK Flexibility Score: inf
ROOT
ATOM      1  C   UNL     1       8.308  -0.323  -2.871  1.00  0.00     0.127 C 
ENDROOT
BRANCH   1   2
ATOM      2  C   UNL     1       8.470  -1.753  -3.078  1.00  0.00     0.303 C 
ATOM      3  O   UNL     1       9.537  -2.369  -3.030  1.00  0.00    -0.252 OA
BRANCH   2   4
ATOM      4  O   UNL     1       7.314  -2.499  -3.355  1.00  0.00    -0.481 OA
ATOM      5  H   UNL     1       6.757  -2.771  -2.559  1.00  0.00     0.296 HD
ENDBRANCH   2   4
ENDBRANCH   1   2
BRANCH   1   6
ATOM      6  C   UNL     1       8.756   0.147  -1.543  1.00  0.00     0.047 C 
BRANCH   6   7
ATOM      7  C   UNL     1       7.787   0.102  -0.446  1.00  0.00    -0.043 A 
ATOM      8  C   UNL     1       7.736  -0.969   0.433  1.00  0.00     0.008 A 
ATOM      9  C   UNL     1       6.871   1.107  -0.280  1.00  0.00     0.054 A 
ATOM     10  C   UNL     1       6.801  -1.029   1.442  1.00  0.00     0.051 A 
ATOM     11  C   UNL     1       5.924   1.068   0.726  1.00  0.00     0.166 A 
ATOM     12  C   UNL     1       5.886   0.001   1.591  1.00  0.00     0.165 A 
ATOM     13  O   UNL     1       4.919   1.953   1.077  1.00  0.00    -0.454 OA
ATOM     14  O   UNL     1       4.840   0.242   2.482  1.00  0.00    -0.454 OA
ATOM     15  C   UNL     1       4.034   1.287   1.991  1.00  0.00     0.468 C 
ENDBRANCH   6   7
ENDBRANCH   1   6
TORSDOF 4
ENDMDL
MODEL 5
REMARK VINA RESULT:      -7.4      0.960      2.078
REMARK SMILES O=C(O)CCc1ccc2c(c1)OCO2
REMARK SMILES IDX 4 1 2 2 1 3 3 4 5 6 6 7 7 8 11 9 8 10 10 11 9 12 12 13 14 14
REMARK SMILES IDX 13 15
REMARK H PARENT 3 5
REMARK Flexibility Score: inf
ROOT
ATOM      1  C   UNL     1       5.491   2.627   0.115  1.00  0.00     0.127 C 
ENDROOT
BRANCH   1   2
ATOM      2  C   UNL     1       6.141   3.681   0.878  1.00  0.00     0.303 C 
ATOM      3  O   UNL     1       6.178   3.758   2.108  1.00  0.00    -0.252 OA
BRANCH   2   4
ATOM      4  O   UNL     1       6.780   4.700   0.155  1.00  0.00    -0.481 OA
ATOM      5  H   UNL     1       6.343   4.972  -0.712  1.00  0.00     0.296 HD
ENDBRANCH   2   4
ENDBRANCH   1   2
BRANCH   1   6
ATOM      6  C   UNL     1       5.586   1.290   0.738  1.00  0.00     0.047 C 
BRANCH   6   7
ATOM      7  C   UNL     1       6.376   0.273   0.040  1.00  0.00    -0.043 A 
ATOM      8  C   UNL     1       6.504   0.276  -1.340  1.00  0.00     0.008 A 
ATOM      9  C   UNL     1       6.982  -0.741   0.734  1.00  0.00     0.054 A 
ATOM     10  C   UNL     1       7.216  -0.700  -2.001  1.00  0.00     0.051 A 
ATOM     11  C   UNL     1       7.702  -1.731   0.092  1.00  0.00     0.166 A 
ATOM     12  C   UNL     1       7.822  -1.714  -1.277  1.00  0.00     0.165 A 
ATOM     13  O   UNL     1       8.386  -2.831   0.579  1.00  0.00    -0.454 OA
ATOM     14  O   UNL     1       8.593  -2.824  -1.627  1.00  0.00    -0.454 OA
ATOM     15  C   UNL     1       8.688  -3.697  -0.526  1.00  0.00     0.468 C 
ENDBRANCH   6   7
ENDBRANCH   1   6
TORSDOF 4
ENDMDL
