@<TRIPOS>MOLECULE
/home/cewinharhar/GITHUB/reincatalyze/data/processed/docking_pred/2023-May-17-1006_maxeplen10_maxtrainstep1000_seadep16_gamma099_lrac9e-4_lrcr1e-3_sub6/10ef791c1764d6d7d99274693c0e95c254b80295_ligand_6.pdbqt
 15 16 0 0 0
SMALL
GASTEIGER

@<TRIPOS>ATOM
      1  C          6.4090    1.3030    0.6680 C.3     1  UNL1        0.1270
      2  C          5.1800    1.3350    1.4450 C.2     1  UNL1        0.3030
      3  O          4.2730    2.1590    1.3190 O.2     1  UNL1       -0.2520
      4  O          5.0100    0.3430    2.4240 O.3     1  UNL1       -0.4810
      5  H          4.7740   -0.5780    2.0880 H       1  UNL1        0.2960
      6  C          6.2220    0.8660   -0.7320 C.3     1  UNL1        0.0470
      7  C          6.9750   -0.3060   -1.1820 C.2     1  UNL1       -0.0430
      8  C          7.2590   -0.5150   -2.5230 C.2     1  UNL1        0.0080
      9  C          7.3900   -1.2570   -0.2880 C.2     1  UNL1        0.0540
     10  C          7.9350   -1.6350   -2.9510 C.2     1  UNL1        0.0510
     11  C          8.0710   -2.3890   -0.6950 C.2     1  UNL1        0.1660
     12  C          8.3460   -2.5820   -2.0270 C.2     1  UNL1        0.1650
     13  O          8.5770   -3.4620    0.0170 O.2     1  UNL1       -0.4540
     14  O          9.0310   -3.7940   -2.1260 O.2     1  UNL1       -0.4540
     15  C          8.9100   -4.5030   -0.9140 C.3     1  UNL1        0.4680
@<TRIPOS>BOND
     1    10     8    1
     2    10    12    2
     3     8     7    2
     4    14    12    1
     5    14    15    1
     6    12    11    1
     7     7     6    1
     8     7     9    1
     9    15    13    1
    10     6     1    1
    11    11     9    2
    12    11    13    1
    13     1     2    1
    14     3     2    2
    15     2     4    1
    16     5     4    1
