@<TRIPOS>MOLECULE
/home/cewinharhar/GITHUB/reincatalyze/data/processed/docking_pred/2023-May-17-1006_maxeplen10_maxtrainstep1000_seadep16_gamma099_lrac9e-4_lrcr1e-3_sub6/10ef791c1764d6d7d99274693c0e95c254b80295_ligand_6.pdbqt
 15 16 0 0 0
SMALL
GASTEIGER

@<TRIPOS>ATOM
      1  C          4.7010    1.8540    0.6880 C.3     1  UNL1        0.1270
      2  C          4.4100    1.1380    1.9210 C.2     1  UNL1        0.3030
      3  O          5.1470    0.3110    2.4600 O.2     1  UNL1       -0.2520
      4  O          3.1870    1.4120    2.5520 O.3     1  UNL1       -0.4810
      5  H          2.5580    2.0260    2.0570 H       1  UNL1        0.2960
      6  C          6.1240    2.2250    0.5310 C.3     1  UNL1        0.0470
      7  C          6.9790    1.3180   -0.2370 C.2     1  UNL1       -0.0430
      8  C          8.3430    1.5360   -0.3570 C.2     1  UNL1        0.0080
      9  C          6.4450    0.2420   -0.8960 C.2     1  UNL1        0.0540
     10  C          9.1430    0.7040   -1.1080 C.2     1  UNL1        0.0510
     11  C          7.2290   -0.6060   -1.6550 C.2     1  UNL1        0.1660
     12  C          8.5790   -0.3790   -1.7640 C.2     1  UNL1        0.1650
     13  O          6.9130   -1.7330   -2.3940 O.2     1  UNL1       -0.4540
     14  O          9.0930   -1.3860   -2.5830 O.2     1  UNL1       -0.4540
     15  C          8.0330   -2.0490   -3.2340 C.3     1  UNL1        0.4680
@<TRIPOS>BOND
     1    15    14    1
     2    15    13    1
     3    14    12    1
     4    13    11    1
     5    12    11    2
     6    12    10    1
     7    11     9    1
     8    10     8    2
     9     9     7    2
    10     8     7    1
    11     7     6    1
    12     6     1    1
    13     1     2    1
    14     2     3    2
    15     2     4    1
    16     5     4    1
