@<TRIPOS>MOLECULE
/home/cewinharhar/GITHUB/reincatalyze/data/processed/docking_pred/2023-May-17-1006_maxeplen10_maxtrainstep1000_seadep16_gamma099_lrac9e-4_lrcr1e-3_sub6/10ef791c1764d6d7d99274693c0e95c254b80295_ligand_6.pdbqt
 15 16 0 0 0
SMALL
GASTEIGER

@<TRIPOS>ATOM
      1  C          8.3080   -0.3230   -2.8710 C.3     1  UNL1        0.1270
      2  C          8.4700   -1.7530   -3.0780 C.2     1  UNL1        0.3030
      3  O          9.5370   -2.3690   -3.0300 O.2     1  UNL1       -0.2520
      4  O          7.3140   -2.4990   -3.3550 O.3     1  UNL1       -0.4810
      5  H          6.7570   -2.7710   -2.5590 H       1  UNL1        0.2960
      6  C          8.7560    0.1470   -1.5430 C.3     1  UNL1        0.0470
      7  C          7.7870    0.1020   -0.4460 C.2     1  UNL1       -0.0430
      8  C          7.7360   -0.9690    0.4330 C.2     1  UNL1        0.0080
      9  C          6.8710    1.1070   -0.2800 C.2     1  UNL1        0.0540
     10  C          6.8010   -1.0290    1.4420 C.2     1  UNL1        0.0510
     11  C          5.9240    1.0680    0.7260 C.2     1  UNL1        0.1660
     12  C          5.8860    0.0010    1.5910 C.2     1  UNL1        0.1650
     13  O          4.9190    1.9530    1.0770 O.2     1  UNL1       -0.4540
     14  O          4.8400    0.2420    2.4820 O.2     1  UNL1       -0.4540
     15  C          4.0340    1.2870    1.9910 C.3     1  UNL1        0.4680
@<TRIPOS>BOND
     1     4     2    1
     2     4     5    1
     3     2     3    2
     4     2     1    1
     5     1     6    1
     6     6     7    1
     7     7     9    2
     8     7     8    1
     9     9    11    1
    10     8    10    2
    11    11    13    1
    12    11    12    2
    13    13    15    1
    14    10    12    1
    15    12    14    1
    16    15    14    1
