@<TRIPOS>MOLECULE
/home/cewinharhar/GITHUB/reincatalyze/data/processed/docking_pred/2023-May-17-1006_maxeplen10_maxtrainstep1000_seadep16_gamma099_lrac9e-4_lrcr1e-3_sub6/10ef791c1764d6d7d99274693c0e95c254b80295_ligand_6.pdbqt
 15 16 0 0 0
SMALL
GASTEIGER

@<TRIPOS>ATOM
      1  C          5.4910    2.6270    0.1150 C.3     1  UNL1        0.1270
      2  C          6.1410    3.6810    0.8780 C.2     1  UNL1        0.3030
      3  O          6.1780    3.7580    2.1080 O.2     1  UNL1       -0.2520
      4  O          6.7800    4.7000    0.1550 O.3     1  UNL1       -0.4810
      5  H          6.3430    4.9720   -0.7120 H       1  UNL1        0.2960
      6  C          5.5860    1.2900    0.7380 C.3     1  UNL1        0.0470
      7  C          6.3760    0.2730    0.0400 C.2     1  UNL1       -0.0430
      8  C          6.5040    0.2760   -1.3400 C.2     1  UNL1        0.0080
      9  C          6.9820   -0.7410    0.7340 C.2     1  UNL1        0.0540
     10  C          7.2160   -0.7000   -2.0010 C.2     1  UNL1        0.0510
     11  C          7.7020   -1.7310    0.0920 C.2     1  UNL1        0.1660
     12  C          7.8220   -1.7140   -1.2770 C.2     1  UNL1        0.1650
     13  O          8.3860   -2.8310    0.5790 O.2     1  UNL1       -0.4540
     14  O          8.5930   -2.8240   -1.6270 O.2     1  UNL1       -0.4540
     15  C          8.6880   -3.6970   -0.5260 C.3     1  UNL1        0.4680
@<TRIPOS>BOND
     1    10     8    1
     2    10    12    2
     3    14    12    1
     4    14    15    1
     5     8     7    2
     6    12    11    1
     7     5     4    1
     8    15    13    1
     9     7     9    1
    10     7     6    1
    11    11    13    1
    12    11     9    2
    13     1     6    1
    14     1     2    1
    15     4     2    1
    16     2     3    2
