@<TRIPOS>MOLECULE
/home/cewinharhar/GITHUB/reincatalyze/data/processed/docking_pred/2023-May-17-1006_maxeplen10_maxtrainstep1000_seadep16_gamma099_lrac9e-4_lrcr1e-3_sub6/12e5788d749ca0b681d4f032b25b6d257325d045_ligand_6.pdbqt
 15 16 0 0 0
SMALL
GASTEIGER

@<TRIPOS>ATOM
      1  C          8.3100   -0.3180   -2.8270 C.3     1  UNL1        0.1270
      2  C          8.4750   -1.7440   -3.0610 C.2     1  UNL1        0.3030
      3  O          9.5430   -2.3570   -3.0310 O.2     1  UNL1       -0.2520
      4  O          7.3190   -2.4880   -3.3450 O.3     1  UNL1       -0.4810
      5  H          6.4650   -1.9620   -3.4510 H       1  UNL1        0.2960
      6  C          8.7680    0.1280   -1.4930 C.3     1  UNL1        0.0470
      7  C          7.7980    0.0910   -0.3970 C.2     1  UNL1       -0.0430
      8  C          7.7610   -0.9640    0.5030 C.2     1  UNL1        0.0080
      9  C          6.8680    1.0850   -0.2500 C.2     1  UNL1        0.0540
     10  C          6.8270   -1.0180    1.5130 C.2     1  UNL1        0.0510
     11  C          5.9210    1.0520    0.7560 C.2     1  UNL1        0.1660
     12  C          5.8970    0.0010    1.6410 C.2     1  UNL1        0.1650
     13  O          4.9040    1.9290    1.0900 O.2     1  UNL1       -0.4540
     14  O          4.8470    0.2440    2.5270 O.2     1  UNL1       -0.4540
     15  C          4.0270    1.2690    2.0150 C.3     1  UNL1        0.4680
@<TRIPOS>BOND
     1     5     4    1
     2     4     2    1
     3     2     3    2
     4     2     1    1
     5     1     6    1
     6     6     7    1
     7     7     9    2
     8     7     8    1
     9     9    11    1
    10     8    10    2
    11    11    13    1
    12    11    12    2
    13    13    15    1
    14    10    12    1
    15    12    14    1
    16    15    14    1
