@<TRIPOS>MOLECULE
/home/cewinharhar/GITHUB/reincatalyze/data/processed/docking_pred/2023-May-17-1006_maxeplen10_maxtrainstep1000_seadep16_gamma099_lrac9e-4_lrcr1e-3_sub6/12e5788d749ca0b681d4f032b25b6d257325d045_ligand_6.pdbqt
 15 16 0 0 0
SMALL
GASTEIGER

@<TRIPOS>ATOM
      1  C          4.6860    1.8470    0.6820 C.3     1  UNL1        0.1270
      2  C          4.3980    1.1410    1.9200 C.2     1  UNL1        0.3030
      3  O          5.1340    0.3160    2.4640 O.2     1  UNL1       -0.2520
      4  O          3.1760    1.4230    2.5530 O.3     1  UNL1       -0.4810
      5  H          2.5330    2.0060    2.0390 H       1  UNL1        0.2960
      6  C          6.1070    2.2250    0.5240 C.3     1  UNL1        0.0470
      7  C          6.9680    1.3200   -0.2400 C.2     1  UNL1       -0.0430
      8  C          8.3320    1.5420   -0.3560 C.2     1  UNL1        0.0080
      9  C          6.4400    0.2420   -0.9000 C.2     1  UNL1        0.0540
     10  C          9.1370    0.7120   -1.1030 C.2     1  UNL1        0.0510
     11  C          7.2290   -0.6050   -1.6560 C.2     1  UNL1        0.1660
     12  C          8.5790   -0.3740   -1.7600 C.2     1  UNL1        0.1650
     13  O          6.9190   -1.7340   -2.3940 O.2     1  UNL1       -0.4540
     14  O          9.0990   -1.3800   -2.5760 O.2     1  UNL1       -0.4540
     15  C          8.0440   -2.0470   -3.2300 C.3     1  UNL1        0.4680
@<TRIPOS>BOND
     1    15    14    1
     2    15    13    1
     3    14    12    1
     4    13    11    1
     5    12    11    2
     6    12    10    1
     7    11     9    1
     8    10     8    2
     9     9     7    2
    10     8     7    1
    11     7     6    1
    12     6     1    1
    13     1     2    1
    14     2     3    2
    15     2     4    1
    16     5     4    1
