@<TRIPOS>MOLECULE
/home/cewinharhar/GITHUB/reincatalyze/data/processed/docking_pred/2023-May-17-1006_maxeplen10_maxtrainstep1000_seadep16_gamma099_lrac9e-4_lrcr1e-3_sub6/12e5788d749ca0b681d4f032b25b6d257325d045_ligand_6.pdbqt
 15 16 0 0 0
SMALL
GASTEIGER

@<TRIPOS>ATOM
      1  C          8.2760   -0.9310   -1.9470 C.3     1  UNL1        0.1270
      2  C          8.4760   -2.0440   -2.8620 C.2     1  UNL1        0.3030
      3  O          9.5550   -2.5870   -3.1060 O.2     1  UNL1       -0.2520
      4  O          7.3440   -2.5440   -3.5250 O.3     1  UNL1       -0.4810
      5  H          7.3970   -2.5790   -4.5310 H       1  UNL1        0.2960
      6  C          7.0590   -1.0470   -1.1160 C.3     1  UNL1        0.0470
      7  C          6.7150    0.0870   -0.2560 C.2     1  UNL1       -0.0430
      8  C          5.8660   -0.0590    0.8300 C.2     1  UNL1        0.0080
      9  C          7.1960    1.3410   -0.5250 C.2     1  UNL1        0.0540
     10  C          5.5130    1.0140    1.6180 C.2     1  UNL1        0.0510
     11  C          6.8560    2.4310    0.2530 C.2     1  UNL1        0.1660
     12  C          6.0140    2.2720    1.3270 C.2     1  UNL1        0.1650
     13  O          7.2160    3.7650    0.1720 O.2     1  UNL1       -0.4540
     14  O          5.8590    3.5320    1.9080 O.2     1  UNL1       -0.4540
     15  C          6.3420    4.5190    1.0260 C.3     1  UNL1        0.4680
@<TRIPOS>BOND
     1     5     4    1
     2     4     2    1
     3     3     2    2
     4     2     1    1
     5     1     6    1
     6     6     7    1
     7     9     7    2
     8     9    11    1
     9     7     8    1
    10    13    11    1
    11    13    15    1
    12    11    12    2
    13     8    10    2
    14    15    14    1
    15    12    10    1
    16    12    14    1
