@<TRIPOS>MOLECULE
/home/cewinharhar/GITHUB/reincatalyze/data/processed/docking_pred/2023-May-17-1006_maxeplen10_maxtrainstep1000_seadep16_gamma099_lrac9e-4_lrcr1e-3_sub6/12e5788d749ca0b681d4f032b25b6d257325d045_ligand_6.pdbqt
 15 16 0 0 0
SMALL
GASTEIGER

@<TRIPOS>ATOM
      1  C          5.4230    2.8630    0.1300 C.3     1  UNL1        0.1270
      2  C          6.2590    3.8360    0.8150 C.2     1  UNL1        0.3030
      3  O          6.9050    4.7350    0.2730 O.2     1  UNL1       -0.2520
      4  O          6.3390    3.7460    2.2140 O.3     1  UNL1       -0.4810
      5  H          5.6890    4.3140    2.7340 H       1  UNL1        0.2960
      6  C          5.3550    1.5490    0.8040 C.3     1  UNL1        0.0470
      7  C          6.1310    0.4500    0.2260 C.2     1  UNL1       -0.0430
      8  C          6.5820   -0.6060    1.0030 C.2     1  UNL1        0.0080
      9  C          6.4680    0.4530   -1.1020 C.2     1  UNL1        0.0540
     10  C          7.3420   -1.6220    0.4670 C.2     1  UNL1        0.0510
     11  C          7.2290   -0.5560   -1.6610 C.2     1  UNL1        0.1660
     12  C          7.6680   -1.5970   -0.8790 C.2     1  UNL1        0.1650
     13  O          7.6810   -0.7570   -2.9530 O.2     1  UNL1       -0.4540
     14  O          8.4010   -2.4440   -1.7120 O.2     1  UNL1       -0.4540
     15  C          8.6830   -1.7850   -2.9240 C.3     1  UNL1        0.4680
@<TRIPOS>BOND
     1    13    15    1
     2    13    11    1
     3    15    14    1
     4    14    12    1
     5    11     9    1
     6    11    12    2
     7     9     7    2
     8    12    10    1
     9     1     6    1
    10     1     2    1
    11     7     6    1
    12     7     8    1
    13     3     2    2
    14    10     8    2
    15     2     4    1
    16     4     5    1
