@<TRIPOS>MOLECULE
/home/cewinharhar/GITHUB/reincatalyze/data/processed/docking_pred/2023-May-17-1006_maxeplen10_maxtrainstep1000_seadep16_gamma099_lrac9e-4_lrcr1e-3_sub6/12e5788d749ca0b681d4f032b25b6d257325d045_ligand_6.pdbqt
 15 16 0 0 0
SMALL
GASTEIGER

@<TRIPOS>ATOM
      1  C          6.4340    1.3000    0.7000 C.3     1  UNL1        0.1270
      2  C          5.1900    1.3320    1.4540 C.2     1  UNL1        0.3030
      3  O          4.2760    2.1440    1.2950 O.2     1  UNL1       -0.2520
      4  O          5.0130    0.3570    2.4470 O.3     1  UNL1       -0.4810
      5  H          5.7820    0.2290    3.0880 H       1  UNL1        0.2960
      6  C          6.2750    0.8540   -0.7010 C.3     1  UNL1        0.0470
      7  C          7.0100   -0.3430   -1.1170 C.2     1  UNL1       -0.0430
      8  C          7.2910   -0.5920   -2.4520 C.2     1  UNL1        0.0080
      9  C          7.4090   -1.2750   -0.1970 C.2     1  UNL1        0.0540
     10  C          7.9500   -1.7350   -2.8480 C.2     1  UNL1        0.0510
     11  C          8.0720   -2.4280   -0.5720 C.2     1  UNL1        0.1660
     12  C          8.3450   -2.6620   -1.8980 C.2     1  UNL1        0.1650
     13  O          8.5620   -3.4890    0.1700 O.2     1  UNL1       -0.4540
     14  O          9.0120   -3.8870   -1.9630 O.2     1  UNL1       -0.4540
     15  C          8.8780   -4.5600   -0.7320 C.3     1  UNL1        0.4680
@<TRIPOS>BOND
     1    10     8    1
     2    10    12    2
     3     8     7    2
     4    14    12    1
     5    14    15    1
     6    12    11    1
     7     7     6    1
     8     7     9    1
     9    15    13    1
    10     6     1    1
    11    11     9    2
    12    11    13    1
    13     1     2    1
    14     3     2    2
    15     2     4    1
    16     4     5    1
