MODEL 1
REMARK VINA RESULT:      -7.6      0.000      0.000
REMARK SMILES O=C(O)CCc1ccc2c(c1)OCO2
REMARK SMILES IDX 4 1 2 2 1 3 3 4 5 6 6 7 7 8 11 9 8 10 10 11 9 12 12 13 14 14
REMARK SMILES IDX 13 15
REMARK H PARENT 3 5
REMARK Flexibility Score: inf
ROOT
ATOM      1  C   UNL     1       5.423   2.863   0.130  1.00  0.00     0.127 C 
ENDROOT
BRANCH   1   2
ATOM      2  C   UNL     1       6.259   3.836   0.815  1.00  0.00     0.303 C 
ATOM      3  O   UNL     1       6.905   4.735   0.273  1.00  0.00    -0.252 OA
BRANCH   2   4
ATOM      4  O   UNL     1       6.339   3.746   2.214  1.00  0.00    -0.481 OA
ATOM      5  H   UNL     1       5.689   4.314   2.734  1.00  0.00     0.296 HD
ENDBRANCH   2   4
ENDBRANCH   1   2
BRANCH   1   6
ATOM      6  C   UNL     1       5.355   1.549   0.804  1.00  0.00     0.047 C 
BRANCH   6   7
ATOM      7  C   UNL     1       6.131   0.450   0.226  1.00  0.00    -0.043 A 
ATOM      8  C   UNL     1       6.582  -0.606   1.003  1.00  0.00     0.008 A 
ATOM      9  C   UNL     1       6.468   0.453  -1.102  1.00  0.00     0.054 A 
ATOM     10  C   UNL     1       7.342  -1.622   0.467  1.00  0.00     0.051 A 
ATOM     11  C   UNL     1       7.229  -0.556  -1.661  1.00  0.00     0.166 A 
ATOM     12  C   UNL     1       7.668  -1.597  -0.879  1.00  0.00     0.165 A 
ATOM     13  O   UNL     1       7.681  -0.757  -2.953  1.00  0.00    -0.454 OA
ATOM     14  O   UNL     1       8.401  -2.444  -1.712  1.00  0.00    -0.454 OA
ATOM     15  C   UNL     1       8.683  -1.785  -2.924  1.00  0.00     0.468 C 
ENDBRANCH   6   7
ENDBRANCH   1   6
TORSDOF 4
ENDMDL
MODEL 2
REMARK VINA RESULT:      -7.6      2.121      2.510
REMARK SMILES O=C(O)CCc1ccc2c(c1)OCO2
REMARK SMILES IDX 4 1 2 2 1 3 3 4 5 6 6 7 7 8 11 9 8 10 10 11 9 12 12 13 14 14
REMARK SMILES IDX 13 15
REMARK H PARENT 3 5
REMARK Flexibility Score: inf
ROOT
ATOM      1  C   UNL     1       4.686   1.847   0.682  1.00  0.00     0.127 C 
ENDROOT
BRANCH   1   2
ATOM      2  C   UNL     1       4.398   1.141   1.920  1.00  0.00     0.303 C 
ATOM      3  O   UNL     1       5.134   0.316   2.464  1.00  0.00    -0.252 OA
BRANCH   2   4
ATOM      4  O   UNL     1       3.176   1.423   2.553  1.00  0.00    -0.481 OA
ATOM      5  H   UNL     1       2.533   2.006   2.039  1.00  0.00     0.296 HD
ENDBRANCH   2   4
ENDBRANCH   1   2
BRANCH   1   6
ATOM      6  C   UNL     1       6.107   2.225   0.524  1.00  0.00     0.047 C 
BRANCH   6   7
ATOM      7  C   UNL     1       6.968   1.320  -0.240  1.00  0.00    -0.043 A 
ATOM      8  C   UNL     1       8.332   1.542  -0.356  1.00  0.00     0.008 A 
ATOM      9  C   UNL     1       6.440   0.242  -0.900  1.00  0.00     0.054 A 
ATOM     10  C   UNL     1       9.137   0.712  -1.103  1.00  0.00     0.051 A 
ATOM     11  C   UNL     1       7.229  -0.605  -1.656  1.00  0.00     0.166 A 
ATOM     12  C   UNL     1       8.579  -0.374  -1.760  1.00  0.00     0.165 A 
ATOM     13  O   UNL     1       6.919  -1.734  -2.394  1.00  0.00    -0.454 OA
ATOM     14  O   UNL     1       9.099  -1.380  -2.576  1.00  0.00    -0.454 OA
ATOM     15  C   UNL     1       8.044  -2.047  -3.230  1.00  0.00     0.468 C 
ENDBRANCH   6   7
ENDBRANCH   1   6
TORSDOF 4
ENDMDL
MODEL 3
REMARK VINA RESULT:      -7.5      1.969      2.878
REMARK SMILES O=C(O)CCc1ccc2c(c1)OCO2
REMARK SMILES IDX 4 1 2 2 1 3 3 4 5 6 6 7 7 8 11 9 8 10 10 11 9 12 12 13 14 14
REMARK SMILES IDX 13 15
REMARK H PARENT 3 5
REMARK Flexibility Score: inf
ROOT
ATOM      1  C   UNL     1       6.434   1.300   0.700  1.00  0.00     0.127 C 
ENDROOT
BRANCH   1   2
ATOM      2  C   UNL     1       5.190   1.332   1.454  1.00  0.00     0.303 C 
ATOM      3  O   UNL     1       4.276   2.144   1.295  1.00  0.00    -0.252 OA
BRANCH   2   4
ATOM      4  O   UNL     1       5.013   0.357   2.447  1.00  0.00    -0.481 OA
ATOM      5  H   UNL     1       5.782   0.229   3.088  1.00  0.00     0.296 HD
ENDBRANCH   2   4
ENDBRANCH   1   2
BRANCH   1   6
ATOM      6  C   UNL     1       6.275   0.854  -0.701  1.00  0.00     0.047 C 
BRANCH   6   7
ATOM      7  C   UNL     1       7.010  -0.343  -1.117  1.00  0.00    -0.043 A 
ATOM      8  C   UNL     1       7.291  -0.592  -2.452  1.00  0.00     0.008 A 
ATOM      9  C   UNL     1       7.409  -1.275  -0.197  1.00  0.00     0.054 A 
ATOM     10  C   UNL     1       7.950  -1.735  -2.848  1.00  0.00     0.051 A 
ATOM     11  C   UNL     1       8.072  -2.428  -0.572  1.00  0.00     0.166 A 
ATOM     12  C   UNL     1       8.345  -2.662  -1.898  1.00  0.00     0.165 A 
ATOM     13  O   UNL     1       8.562  -3.489   0.170  1.00  0.00    -0.454 OA
ATOM     14  O   UNL     1       9.012  -3.887  -1.963  1.00  0.00    -0.454 OA
ATOM     15  C   UNL     1       8.878  -4.560  -0.732  1.00  0.00     0.468 C 
ENDBRANCH   6   7
ENDBRANCH   1   6
TORSDOF 4
ENDMDL
MODEL 4
REMARK VINA RESULT:      -7.5      1.806      5.284
REMARK SMILES O=C(O)CCc1ccc2c(c1)OCO2
REMARK SMILES IDX 4 1 2 2 1 3 3 4 5 6 6 7 7 8 11 9 8 10 10 11 9 12 12 13 14 14
REMARK SMILES IDX 13 15
REMARK H PARENT 3 5
REMARK Flexibility Score: inf
ROOT
ATOM      1  C   UNL     1       8.310  -0.318  -2.827  1.00  0.00     0.127 C 
ENDROOT
BRANCH   1   2
ATOM      2  C   UNL     1       8.475  -1.744  -3.061  1.00  0.00     0.303 C 
ATOM      3  O   UNL     1       9.543  -2.357  -3.031  1.00  0.00    -0.252 OA
BRANCH   2   4
ATOM      4  O   UNL     1       7.319  -2.488  -3.345  1.00  0.00    -0.481 OA
ATOM      5  H   UNL     1       6.465  -1.962  -3.451  1.00  0.00     0.296 HD
ENDBRANCH   2   4
ENDBRANCH   1   2
BRANCH   1   6
ATOM      6  C   UNL     1       8.768   0.128  -1.493  1.00  0.00     0.047 C 
BRANCH   6   7
ATOM      7  C   UNL     1       7.798   0.091  -0.397  1.00  0.00    -0.043 A 
ATOM      8  C   UNL     1       7.761  -0.964   0.503  1.00  0.00     0.008 A 
ATOM      9  C   UNL     1       6.868   1.085  -0.250  1.00  0.00     0.054 A 
ATOM     10  C   UNL     1       6.827  -1.018   1.513  1.00  0.00     0.051 A 
ATOM     11  C   UNL     1       5.921   1.052   0.756  1.00  0.00     0.166 A 
ATOM     12  C   UNL     1       5.897   0.001   1.641  1.00  0.00     0.165 A 
ATOM     13  O   UNL     1       4.904   1.929   1.090  1.00  0.00    -0.454 OA
ATOM     14  O   UNL     1       4.847   0.244   2.527  1.00  0.00    -0.454 OA
ATOM     15  C   UNL     1       4.027   1.269   2.015  1.00  0.00     0.468 C 
ENDBRANCH   6   7
ENDBRANCH   1   6
TORSDOF 4
ENDMDL
