@<TRIPOS>MOLECULE
/home/cewinharhar/GITHUB/reincatalyze/data/processed/docking_pred/2023-May-17-1006_maxeplen10_maxtrainstep1000_seadep16_gamma099_lrac9e-4_lrcr1e-3_sub6/13c3a96d7f073914410e4f6d6c0e2190084e407e_ligand_6.pdbqt
 15 16 0 0 0
SMALL
GASTEIGER

@<TRIPOS>ATOM
      1  C          4.7030    1.8870    0.6810 C.3     1  UNL1        0.1270
      2  C          4.4240    1.1560    1.9070 C.2     1  UNL1        0.3030
      3  O          5.1700    0.3300    2.4360 O.2     1  UNL1       -0.2520
      4  O          3.2000    1.4130    2.5460 O.3     1  UNL1       -0.4810
      5  H          2.5290    0.6600    2.5410 H       1  UNL1        0.2960
      6  C          6.1260    2.2520    0.5100 C.3     1  UNL1        0.0470
      7  C          6.9750    1.3300   -0.2480 C.2     1  UNL1       -0.0430
      8  C          8.3440    1.5230   -0.3490 C.2     1  UNL1        0.0080
      9  C          6.4300    0.2660   -0.9170 C.2     1  UNL1        0.0540
     10  C          9.1380    0.6780   -1.0920 C.2     1  UNL1        0.0510
     11  C          7.2080   -0.5950   -1.6680 C.2     1  UNL1        0.1660
     12  C          8.5640   -0.3930   -1.7570 C.2     1  UNL1        0.1650
     13  O          6.8820   -1.7150   -2.4130 O.2     1  UNL1       -0.4540
     14  O          9.0700   -1.4070   -2.5720 O.2     1  UNL1       -0.4540
     15  C          8.0070   -2.0490   -3.2380 C.3     1  UNL1        0.4680
@<TRIPOS>BOND
     1    15    14    1
     2    15    13    1
     3    14    12    1
     4    13    11    1
     5    12    11    2
     6    12    10    1
     7    11     9    1
     8    10     8    2
     9     9     7    2
    10     8     7    1
    11     7     6    1
    12     6     1    1
    13     1     2    1
    14     2     3    2
    15     2     4    1
    16     5     4    1
