MODEL 1
REMARK VINA RESULT:      -7.7      0.000      0.000
REMARK SMILES O=C(O)CCc1ccc2c(c1)OCO2
REMARK SMILES IDX 4 1 2 2 1 3 3 4 5 6 6 7 7 8 11 9 8 10 10 11 9 12 12 13 14 14
REMARK SMILES IDX 13 15
REMARK H PARENT 3 5
REMARK Flexibility Score: inf
ROOT
ATOM      1  C   UNL     1       5.410   2.872   0.124  1.00  0.00     0.127 C 
ENDROOT
BRANCH   1   2
ATOM      2  C   UNL     1       6.235   3.854   0.809  1.00  0.00     0.303 C 
ATOM      3  O   UNL     1       6.871   4.761   0.268  1.00  0.00    -0.252 OA
BRANCH   2   4
ATOM      4  O   UNL     1       6.317   3.764   2.208  1.00  0.00    -0.481 OA
ATOM      5  H   UNL     1       6.806   2.961   2.574  1.00  0.00     0.296 HD
ENDBRANCH   2   4
ENDBRANCH   1   2
BRANCH   1   6
ATOM      6  C   UNL     1       5.338   1.565   0.810  1.00  0.00     0.047 C 
BRANCH   6   7
ATOM      7  C   UNL     1       6.115   0.460   0.244  1.00  0.00    -0.043 A 
ATOM      8  C   UNL     1       6.578  -0.580   1.035  1.00  0.00     0.008 A 
ATOM      9  C   UNL     1       6.443   0.443  -1.086  1.00  0.00     0.054 A 
ATOM     10  C   UNL     1       7.340  -1.601   0.512  1.00  0.00     0.051 A 
ATOM     11  C   UNL     1       7.205  -0.571  -1.633  1.00  0.00     0.166 A 
ATOM     12  C   UNL     1       7.656  -1.596  -0.837  1.00  0.00     0.165 A 
ATOM     13  O   UNL     1       7.650  -0.792  -2.925  1.00  0.00    -0.454 OA
ATOM     14  O   UNL     1       8.388  -2.454  -1.661  1.00  0.00    -0.454 OA
ATOM     15  C   UNL     1       8.657  -1.813  -2.886  1.00  0.00     0.468 C 
ENDBRANCH   6   7
ENDBRANCH   1   6
TORSDOF 4
ENDMDL
MODEL 2
REMARK VINA RESULT:      -7.6      2.123      2.498
REMARK SMILES O=C(O)CCc1ccc2c(c1)OCO2
REMARK SMILES IDX 4 1 2 2 1 3 3 4 5 6 6 7 7 8 11 9 8 10 10 11 9 12 12 13 14 14
REMARK SMILES IDX 13 15
REMARK H PARENT 3 5
REMARK Flexibility Score: inf
ROOT
ATOM      1  C   UNL     1       4.703   1.887   0.681  1.00  0.00     0.127 C 
ENDROOT
BRANCH   1   2
ATOM      2  C   UNL     1       4.424   1.156   1.907  1.00  0.00     0.303 C 
ATOM      3  O   UNL     1       5.170   0.330   2.436  1.00  0.00    -0.252 OA
BRANCH   2   4
ATOM      4  O   UNL     1       3.200   1.413   2.546  1.00  0.00    -0.481 OA
ATOM      5  H   UNL     1       2.529   0.660   2.541  1.00  0.00     0.296 HD
ENDBRANCH   2   4
ENDBRANCH   1   2
BRANCH   1   6
ATOM      6  C   UNL     1       6.126   2.252   0.510  1.00  0.00     0.047 C 
BRANCH   6   7
ATOM      7  C   UNL     1       6.975   1.330  -0.248  1.00  0.00    -0.043 A 
ATOM      8  C   UNL     1       8.344   1.523  -0.349  1.00  0.00     0.008 A 
ATOM      9  C   UNL     1       6.430   0.266  -0.917  1.00  0.00     0.054 A 
ATOM     10  C   UNL     1       9.138   0.678  -1.092  1.00  0.00     0.051 A 
ATOM     11  C   UNL     1       7.208  -0.595  -1.668  1.00  0.00     0.166 A 
ATOM     12  C   UNL     1       8.564  -0.393  -1.757  1.00  0.00     0.165 A 
ATOM     13  O   UNL     1       6.882  -1.715  -2.413  1.00  0.00    -0.454 OA
ATOM     14  O   UNL     1       9.070  -1.407  -2.572  1.00  0.00    -0.454 OA
ATOM     15  C   UNL     1       8.007  -2.049  -3.238  1.00  0.00     0.468 C 
ENDBRANCH   6   7
ENDBRANCH   1   6
TORSDOF 4
ENDMDL
MODEL 3
REMARK VINA RESULT:      -7.5      0.946      2.115
REMARK SMILES O=C(O)CCc1ccc2c(c1)OCO2
REMARK SMILES IDX 4 1 2 2 1 3 3 4 5 6 6 7 7 8 11 9 8 10 10 11 9 12 12 13 14 14
REMARK SMILES IDX 13 15
REMARK H PARENT 3 5
REMARK Flexibility Score: inf
ROOT
ATOM      1  C   UNL     1       5.382   2.804   0.178  1.00  0.00     0.127 C 
ENDROOT
BRANCH   1   2
ATOM      2  C   UNL     1       6.165   3.757   0.949  1.00  0.00     0.303 C 
ATOM      3  O   UNL     1       6.273   3.771   2.176  1.00  0.00    -0.252 OA
BRANCH   2   4
ATOM      4  O   UNL     1       6.859   4.747   0.235  1.00  0.00    -0.481 OA
ATOM      5  H   UNL     1       6.451   5.670   0.243  1.00  0.00     0.296 HD
ENDBRANCH   2   4
ENDBRANCH   1   2
BRANCH   1   6
ATOM      6  C   UNL     1       5.338   1.448   0.768  1.00  0.00     0.047 C 
BRANCH   6   7
ATOM      7  C   UNL     1       6.189   0.420   0.167  1.00  0.00    -0.043 A 
ATOM      8  C   UNL     1       6.479   0.420  -1.189  1.00  0.00     0.008 A 
ATOM      9  C   UNL     1       6.696  -0.601   0.926  1.00  0.00     0.054 A 
ATOM     10  C   UNL     1       7.250  -0.567  -1.762  1.00  0.00     0.051 A 
ATOM     11  C   UNL     1       7.472  -1.602   0.373  1.00  0.00     0.166 A 
ATOM     12  C   UNL     1       7.753  -1.588  -0.972  1.00  0.00     0.165 A 
ATOM     13  O   UNL     1       8.080  -2.711   0.936  1.00  0.00    -0.454 OA
ATOM     14  O   UNL     1       8.544  -2.709  -1.230  1.00  0.00    -0.454 OA
ATOM     15  C   UNL     1       8.497  -3.582  -0.125  1.00  0.00     0.468 C 
ENDBRANCH   6   7
ENDBRANCH   1   6
TORSDOF 4
ENDMDL
MODEL 4
REMARK VINA RESULT:      -7.5      1.793      5.286
REMARK SMILES O=C(O)CCc1ccc2c(c1)OCO2
REMARK SMILES IDX 4 1 2 2 1 3 3 4 5 6 6 7 7 8 11 9 8 10 10 11 9 12 12 13 14 14
REMARK SMILES IDX 13 15
REMARK H PARENT 3 5
REMARK Flexibility Score: inf
ROOT
ATOM      1  C   UNL     1       8.315  -0.323  -2.823  1.00  0.00     0.127 C 
ENDROOT
BRANCH   1   2
ATOM      2  C   UNL     1       8.473  -1.750  -3.060  1.00  0.00     0.303 C 
ATOM      3  O   UNL     1       9.539  -2.367  -3.032  1.00  0.00    -0.252 OA
BRANCH   2   4
ATOM      4  O   UNL     1       7.314  -2.488  -3.343  1.00  0.00    -0.481 OA
ATOM      5  H   UNL     1       6.935  -3.032  -2.583  1.00  0.00     0.296 HD
ENDBRANCH   2   4
ENDBRANCH   1   2
BRANCH   1   6
ATOM      6  C   UNL     1       8.767   0.117  -1.487  1.00  0.00     0.047 C 
BRANCH   6   7
ATOM      7  C   UNL     1       7.789   0.089  -0.397  1.00  0.00    -0.043 A 
ATOM      8  C   UNL     1       7.728  -0.971   0.495  1.00  0.00     0.008 A 
ATOM      9  C   UNL     1       6.874   1.097  -0.251  1.00  0.00     0.054 A 
ATOM     10  C   UNL     1       6.786  -1.017   1.497  1.00  0.00     0.051 A 
ATOM     11  C   UNL     1       5.919   1.073   0.748  1.00  0.00     0.166 A 
ATOM     12  C   UNL     1       5.872   0.017   1.626  1.00  0.00     0.165 A 
ATOM     13  O   UNL     1       4.914   1.964   1.081  1.00  0.00    -0.454 OA
ATOM     14  O   UNL     1       4.819   0.271   2.506  1.00  0.00    -0.454 OA
ATOM     15  C   UNL     1       4.020   1.313   1.995  1.00  0.00     0.468 C 
ENDBRANCH   6   7
ENDBRANCH   1   6
TORSDOF 4
ENDMDL
MODEL 5
REMARK VINA RESULT:      -7.5      1.950      2.870
REMARK SMILES O=C(O)CCc1ccc2c(c1)OCO2
REMARK SMILES IDX 4 1 2 2 1 3 3 4 5 6 6 7 7 8 11 9 8 10 10 11 9 12 12 13 14 14
REMARK SMILES IDX 13 15
REMARK H PARENT 3 5
REMARK Flexibility Score: inf
ROOT
ATOM      1  C   UNL     1       6.373   1.312   0.601  1.00  0.00     0.127 C 
ENDROOT
BRANCH   1   2
ATOM      2  C   UNL     1       5.178   1.313   1.430  1.00  0.00     0.303 C 
ATOM      3  O   UNL     1       4.262   2.135   1.366  1.00  0.00    -0.252 OA
BRANCH   2   4
ATOM      4  O   UNL     1       5.055   0.291   2.385  1.00  0.00    -0.481 OA
ATOM      5  H   UNL     1       4.258  -0.317   2.285  1.00  0.00     0.296 HD
ENDBRANCH   2   4
ENDBRANCH   1   2
BRANCH   1   6
ATOM      6  C   UNL     1       6.149   0.821  -0.776  1.00  0.00     0.047 C 
BRANCH   6   7
ATOM      7  C   UNL     1       6.938  -0.329  -1.222  1.00  0.00    -0.043 A 
ATOM      8  C   UNL     1       7.273  -0.504  -2.556  1.00  0.00     0.008 A 
ATOM      9  C   UNL     1       7.338  -1.291  -0.333  1.00  0.00     0.054 A 
ATOM     10  C   UNL     1       7.985  -1.604  -2.982  1.00  0.00     0.051 A 
ATOM     11  C   UNL     1       8.053  -2.403  -0.738  1.00  0.00     0.166 A 
ATOM     12  C   UNL     1       8.379  -2.563  -2.063  1.00  0.00     0.165 A 
ATOM     13  O   UNL     1       8.552  -3.482  -0.030  1.00  0.00    -0.454 OA
ATOM     14  O   UNL     1       9.089  -3.760  -2.162  1.00  0.00    -0.454 OA
ATOM     15  C   UNL     1       8.937  -4.497  -0.970  1.00  0.00     0.468 C 
ENDBRANCH   6   7
ENDBRANCH   1   6
TORSDOF 4
ENDMDL
