@<TRIPOS>MOLECULE
/home/cewinharhar/GITHUB/reincatalyze/data/processed/docking_pred/2023-May-17-1006_maxeplen10_maxtrainstep1000_seadep16_gamma099_lrac9e-4_lrcr1e-3_sub6/13c3a96d7f073914410e4f6d6c0e2190084e407e_ligand_6.pdbqt
 15 16 0 0 0
SMALL
GASTEIGER

@<TRIPOS>ATOM
      1  C          6.3730    1.3120    0.6010 C.3     1  UNL1        0.1270
      2  C          5.1780    1.3130    1.4300 C.2     1  UNL1        0.3030
      3  O          4.2620    2.1350    1.3660 O.2     1  UNL1       -0.2520
      4  O          5.0550    0.2910    2.3850 O.3     1  UNL1       -0.4810
      5  H          4.2580   -0.3170    2.2850 H       1  UNL1        0.2960
      6  C          6.1490    0.8210   -0.7760 C.3     1  UNL1        0.0470
      7  C          6.9380   -0.3290   -1.2220 C.2     1  UNL1       -0.0430
      8  C          7.2730   -0.5040   -2.5560 C.2     1  UNL1        0.0080
      9  C          7.3380   -1.2910   -0.3330 C.2     1  UNL1        0.0540
     10  C          7.9850   -1.6040   -2.9820 C.2     1  UNL1        0.0510
     11  C          8.0530   -2.4030   -0.7380 C.2     1  UNL1        0.1660
     12  C          8.3790   -2.5630   -2.0630 C.2     1  UNL1        0.1650
     13  O          8.5520   -3.4820   -0.0300 O.2     1  UNL1       -0.4540
     14  O          9.0890   -3.7600   -2.1620 O.2     1  UNL1       -0.4540
     15  C          8.9370   -4.4970   -0.9700 C.3     1  UNL1        0.4680
@<TRIPOS>BOND
     1    10     8    1
     2    10    12    2
     3     8     7    2
     4    14    12    1
     5    14    15    1
     6    12    11    1
     7     7     6    1
     8     7     9    1
     9    15    13    1
    10     6     1    1
    11    11     9    2
    12    11    13    1
    13     1     2    1
    14     3     2    2
    15     2     4    1
    16     5     4    1
