@<TRIPOS>MOLECULE
/home/cewinharhar/GITHUB/reincatalyze/data/processed/docking_pred/2023-May-17-1006_maxeplen10_maxtrainstep1000_seadep16_gamma099_lrac9e-4_lrcr1e-3_sub6/13c3a96d7f073914410e4f6d6c0e2190084e407e_ligand_6.pdbqt
 15 16 0 0 0
SMALL
GASTEIGER

@<TRIPOS>ATOM
      1  C          5.4100    2.8720    0.1240 C.3     1  UNL1        0.1270
      2  C          6.2350    3.8540    0.8090 C.2     1  UNL1        0.3030
      3  O          6.8710    4.7610    0.2680 O.2     1  UNL1       -0.2520
      4  O          6.3170    3.7640    2.2080 O.3     1  UNL1       -0.4810
      5  H          6.8060    2.9610    2.5740 H       1  UNL1        0.2960
      6  C          5.3380    1.5650    0.8100 C.3     1  UNL1        0.0470
      7  C          6.1150    0.4600    0.2440 C.2     1  UNL1       -0.0430
      8  C          6.5780   -0.5800    1.0350 C.2     1  UNL1        0.0080
      9  C          6.4430    0.4430   -1.0860 C.2     1  UNL1        0.0540
     10  C          7.3400   -1.6010    0.5120 C.2     1  UNL1        0.0510
     11  C          7.2050   -0.5710   -1.6330 C.2     1  UNL1        0.1660
     12  C          7.6560   -1.5960   -0.8370 C.2     1  UNL1        0.1650
     13  O          7.6500   -0.7920   -2.9250 O.2     1  UNL1       -0.4540
     14  O          8.3880   -2.4540   -1.6610 O.2     1  UNL1       -0.4540
     15  C          8.6570   -1.8130   -2.8860 C.3     1  UNL1        0.4680
@<TRIPOS>BOND
     1    13    15    1
     2    13    11    1
     3    15    14    1
     4    14    12    1
     5    11     9    1
     6    11    12    2
     7     9     7    2
     8    12    10    1
     9     1     2    1
    10     1     6    1
    11     7     6    1
    12     7     8    1
    13     3     2    2
    14    10     8    2
    15     2     4    1
    16     4     5    1
