@<TRIPOS>MOLECULE
/home/cewinharhar/GITHUB/reincatalyze/data/processed/docking_pred/2023-May-17-1006_maxeplen10_maxtrainstep1000_seadep16_gamma099_lrac9e-4_lrcr1e-3_sub6/13e8c6f9c16a4fbf8ad14846e02839591438c51f_ligand_6.pdbqt
 15 16 0 0 0
SMALL
GASTEIGER

@<TRIPOS>ATOM
      1  C          6.1580    2.5780   -0.1810 C.3     1  UNL1        0.1270
      2  C          6.6000    3.6660    0.6760 C.2     1  UNL1        0.3030
      3  O          6.9770    4.7750    0.2910 O.2     1  UNL1       -0.2520
      4  O          6.5980    3.4380    2.0610 O.3     1  UNL1       -0.4810
      5  H          7.4590    3.6370    2.5470 H       1  UNL1        0.2960
      6  C          5.7830    1.3500    0.5530 C.3     1  UNL1        0.0470
      7  C          6.5050    0.1180    0.2260 C.2     1  UNL1       -0.0430
      8  C          7.0990   -0.6570    1.2100 C.2     1  UNL1        0.0080
      9  C          6.6470   -0.2850   -1.0750 C.2     1  UNL1        0.0540
     10  C          7.8080   -1.7960    0.9010 C.2     1  UNL1        0.0510
     11  C          7.3540   -1.4250   -1.4090 C.2     1  UNL1        0.1660
     12  C          7.9370   -2.1840   -0.4230 C.2     1  UNL1        0.1650
     13  O          7.6230   -2.0140   -2.6320 O.2     1  UNL1       -0.4540
     14  O          8.5710   -3.2520   -1.0590 O.2     1  UNL1       -0.4540
     15  C          8.6530   -2.9950   -2.4420 C.3     1  UNL1        0.4680
@<TRIPOS>BOND
     1    13    15    1
     2    13    11    1
     3    15    14    1
     4    11     9    1
     5    11    12    2
     6     9     7    2
     7    14    12    1
     8    12    10    1
     9     1     6    1
    10     1     2    1
    11     7     6    1
    12     7     8    1
    13     3     2    2
    14     2     4    1
    15    10     8    2
    16     4     5    1
