@<TRIPOS>MOLECULE
/home/cewinharhar/GITHUB/reincatalyze/data/processed/docking_pred/2023-May-17-1006_maxeplen10_maxtrainstep1000_seadep16_gamma099_lrac9e-4_lrcr1e-3_sub6/13e8c6f9c16a4fbf8ad14846e02839591438c51f_ligand_6.pdbqt
 15 16 0 0 0
SMALL
GASTEIGER

@<TRIPOS>ATOM
      1  C          8.7310   -0.6140   -2.8250 C.3     1  UNL1        0.1270
      2  C          8.6810   -2.0400   -3.1050 C.2     1  UNL1        0.3030
      3  O          7.6600   -2.7310   -3.1290 O.2     1  UNL1       -0.2520
      4  O          9.8970   -2.6880   -3.3710 O.3     1  UNL1       -0.4810
      5  H          9.8490   -3.6850   -3.5120 H       1  UNL1        0.2960
      6  C          7.4010    0.0190   -2.6920 C.3     1  UNL1        0.0470
      7  C          6.8210    0.1000   -1.3500 C.2     1  UNL1       -0.0430
      8  C          6.0160    1.1630   -0.9710 C.2     1  UNL1        0.0080
      9  C          7.0910   -0.8600   -0.4110 C.2     1  UNL1        0.0540
     10  C          5.5000    1.2590    0.3020 C.2     1  UNL1        0.0510
     11  C          6.5830   -0.7850    0.8720 C.2     1  UNL1        0.1660
     12  C          5.7860    0.2740    1.2330 C.2     1  UNL1        0.1650
     13  O          6.7200   -1.6230    1.9650 O.2     1  UNL1       -0.4540
     14  O          5.4330    0.0760    2.5690 O.2     1  UNL1       -0.4540
     15  C          6.2520   -0.9240    3.1290 C.3     1  UNL1        0.4680
@<TRIPOS>BOND
     1     5     4    1
     2     4     2    1
     3     3     2    2
     4     2     1    1
     5     1     6    1
     6     6     7    1
     7     7     8    2
     8     7     9    1
     9     8    10    1
    10     9    11    2
    11    10    12    2
    12    11    12    1
    13    11    13    1
    14    12    14    1
    15    13    15    1
    16    14    15    1
