@<TRIPOS>MOLECULE
/home/cewinharhar/GITHUB/reincatalyze/data/processed/docking_pred/2023-May-17-1006_maxeplen10_maxtrainstep1000_seadep16_gamma099_lrac9e-4_lrcr1e-3_sub6/13e8c6f9c16a4fbf8ad14846e02839591438c51f_ligand_6.pdbqt
 15 16 0 0 0
SMALL
GASTEIGER

@<TRIPOS>ATOM
      1  C          8.3780   -0.3160   -3.1670 C.3     1  UNL1        0.1270
      2  C          8.5140   -1.7640   -3.1460 C.2     1  UNL1        0.3030
      3  O          9.5590   -2.3830   -2.9360 O.2     1  UNL1       -0.2520
      4  O          7.3580   -2.5230   -3.3850 O.3     1  UNL1       -0.4810
      5  H          6.5390   -2.0100   -3.6730 H       1  UNL1        0.2960
      6  C          8.8930    0.3530   -1.9540 C.3     1  UNL1        0.0470
      7  C          8.1450    0.1680   -0.7090 C.2     1  UNL1       -0.0430
      8  C          8.5840   -0.7010    0.2780 C.2     1  UNL1        0.0080
      9  C          6.9600    0.8230   -0.4990 C.2     1  UNL1        0.0540
     10  C          7.8630   -0.9040    1.4340 C.2     1  UNL1        0.0510
     11  C          6.2200    0.6360    0.6530 C.2     1  UNL1        0.1660
     12  C          6.6680   -0.2280    1.6230 C.2     1  UNL1        0.1650
     13  O          5.0190    1.1810    1.0720 O.2     1  UNL1       -0.4540
     14  O          5.7220   -0.2070    2.6490 O.2     1  UNL1       -0.4540
     15  C          4.5450    0.4170    2.1910 C.3     1  UNL1        0.4680
@<TRIPOS>BOND
     1     5     4    1
     2     4     2    1
     3     1     2    1
     4     1     6    1
     5     2     3    2
     6     6     7    1
     7     7     9    2
     8     7     8    1
     9     9    11    1
    10     8    10    2
    11    11    13    1
    12    11    12    2
    13    13    15    1
    14    10    12    1
    15    12    14    1
    16    15    14    1
