MODEL 1
REMARK VINA RESULT:      -7.4      0.000      0.000
REMARK SMILES O=C(O)CCc1ccc2c(c1)OCO2
REMARK SMILES IDX 4 1 2 2 1 3 3 4 5 6 6 7 7 8 11 9 8 10 10 11 9 12 12 13 14 14
REMARK SMILES IDX 13 15
REMARK H PARENT 3 5
REMARK Flexibility Score: inf
ROOT
ATOM      1  C   UNL     1       5.448   0.976   0.534  1.00  0.00     0.127 C 
ENDROOT
BRANCH   1   2
ATOM      2  C   UNL     1       5.096   0.520   1.869  1.00  0.00     0.303 C 
ATOM      3  O   UNL     1       5.755  -0.262   2.557  1.00  0.00    -0.252 OA
BRANCH   2   4
ATOM      4  O   UNL     1       3.903   1.010   2.424  1.00  0.00    -0.481 OA
ATOM      5  H   UNL     1       3.160   0.339   2.546  1.00  0.00     0.296 HD
ENDBRANCH   2   4
ENDBRANCH   1   2
BRANCH   1   6
ATOM      6  C   UNL     1       6.897   0.923   0.244  1.00  0.00     0.047 C 
BRANCH   6   7
ATOM      7  C   UNL     1       7.400  -0.245  -0.483  1.00  0.00    -0.043 A 
ATOM      8  C   UNL     1       7.373  -0.303  -1.867  1.00  0.00     0.008 A 
ATOM      9  C   UNL     1       7.879  -1.336   0.192  1.00  0.00     0.054 A 
ATOM     10  C   UNL     1       7.812  -1.415  -2.551  1.00  0.00     0.051 A 
ATOM     11  C   UNL     1       8.326  -2.462  -0.473  1.00  0.00     0.166 A 
ATOM     12  C   UNL     1       8.294  -2.506  -1.845  1.00  0.00     0.165 A 
ATOM     13  O   UNL     1       8.842  -3.659  -0.008  1.00  0.00    -0.454 OA
ATOM     14  O   UNL     1       8.800  -3.752  -2.221  1.00  0.00    -0.454 OA
ATOM     15  C   UNL     1       8.852  -4.597  -1.095  1.00  0.00     0.468 C 
ENDBRANCH   6   7
ENDBRANCH   1   6
TORSDOF 4
ENDMDL
MODEL 2
REMARK VINA RESULT:      -7.0      1.726      5.252
REMARK SMILES O=C(O)CCc1ccc2c(c1)OCO2
REMARK SMILES IDX 4 1 2 2 1 3 3 4 5 6 6 7 7 8 11 9 8 10 10 11 9 12 12 13 14 14
REMARK SMILES IDX 13 15
REMARK H PARENT 3 5
REMARK Flexibility Score: inf
ROOT
ATOM      1  C   UNL     1       8.378  -0.316  -3.167  1.00  0.00     0.127 C 
ENDROOT
BRANCH   1   2
ATOM      2  C   UNL     1       8.514  -1.764  -3.146  1.00  0.00     0.303 C 
ATOM      3  O   UNL     1       9.559  -2.383  -2.936  1.00  0.00    -0.252 OA
BRANCH   2   4
ATOM      4  O   UNL     1       7.358  -2.523  -3.385  1.00  0.00    -0.481 OA
ATOM      5  H   UNL     1       6.539  -2.010  -3.673  1.00  0.00     0.296 HD
ENDBRANCH   2   4
ENDBRANCH   1   2
BRANCH   1   6
ATOM      6  C   UNL     1       8.893   0.353  -1.954  1.00  0.00     0.047 C 
BRANCH   6   7
ATOM      7  C   UNL     1       8.145   0.168  -0.709  1.00  0.00    -0.043 A 
ATOM      8  C   UNL     1       8.584  -0.701   0.278  1.00  0.00     0.008 A 
ATOM      9  C   UNL     1       6.960   0.823  -0.499  1.00  0.00     0.054 A 
ATOM     10  C   UNL     1       7.863  -0.904   1.434  1.00  0.00     0.051 A 
ATOM     11  C   UNL     1       6.220   0.636   0.653  1.00  0.00     0.166 A 
ATOM     12  C   UNL     1       6.668  -0.228   1.623  1.00  0.00     0.165 A 
ATOM     13  O   UNL     1       5.019   1.181   1.072  1.00  0.00    -0.454 OA
ATOM     14  O   UNL     1       5.722  -0.207   2.649  1.00  0.00    -0.454 OA
ATOM     15  C   UNL     1       4.545   0.417   2.191  1.00  0.00     0.468 C 
ENDBRANCH   6   7
ENDBRANCH   1   6
TORSDOF 4
ENDMDL
MODEL 3
REMARK VINA RESULT:      -6.8      1.738      5.087
REMARK SMILES O=C(O)CCc1ccc2c(c1)OCO2
REMARK SMILES IDX 4 1 2 2 1 3 3 4 5 6 6 7 7 8 11 9 8 10 10 11 9 12 12 13 14 14
REMARK SMILES IDX 13 15
REMARK H PARENT 3 5
REMARK Flexibility Score: inf
ROOT
ATOM      1  C   UNL     1       8.731  -0.614  -2.825  1.00  0.00     0.127 C 
ENDROOT
BRANCH   1   2
ATOM      2  C   UNL     1       8.681  -2.040  -3.105  1.00  0.00     0.303 C 
ATOM      3  O   UNL     1       7.660  -2.731  -3.129  1.00  0.00    -0.252 OA
BRANCH   2   4
ATOM      4  O   UNL     1       9.897  -2.688  -3.371  1.00  0.00    -0.481 OA
ATOM      5  H   UNL     1       9.849  -3.685  -3.512  1.00  0.00     0.296 HD
ENDBRANCH   2   4
ENDBRANCH   1   2
BRANCH   1   6
ATOM      6  C   UNL     1       7.401   0.019  -2.692  1.00  0.00     0.047 C 
BRANCH   6   7
ATOM      7  C   UNL     1       6.821   0.100  -1.350  1.00  0.00    -0.043 A 
ATOM      8  C   UNL     1       6.016   1.163  -0.971  1.00  0.00     0.008 A 
ATOM      9  C   UNL     1       7.091  -0.860  -0.411  1.00  0.00     0.054 A 
ATOM     10  C   UNL     1       5.500   1.259   0.302  1.00  0.00     0.051 A 
ATOM     11  C   UNL     1       6.583  -0.785   0.872  1.00  0.00     0.166 A 
ATOM     12  C   UNL     1       5.786   0.274   1.233  1.00  0.00     0.165 A 
ATOM     13  O   UNL     1       6.720  -1.623   1.965  1.00  0.00    -0.454 OA
ATOM     14  O   UNL     1       5.433   0.076   2.569  1.00  0.00    -0.454 OA
ATOM     15  C   UNL     1       6.252  -0.924   3.129  1.00  0.00     0.468 C 
ENDBRANCH   6   7
ENDBRANCH   1   6
TORSDOF 4
ENDMDL
MODEL 4
REMARK VINA RESULT:      -6.8      2.169      2.849
REMARK SMILES O=C(O)CCc1ccc2c(c1)OCO2
REMARK SMILES IDX 4 1 2 2 1 3 3 4 5 6 6 7 7 8 11 9 8 10 10 11 9 12 12 13 14 14
REMARK SMILES IDX 13 15
REMARK H PARENT 3 5
REMARK Flexibility Score: inf
ROOT
ATOM      1  C   UNL     1       6.158   2.578  -0.181  1.00  0.00     0.127 C 
ENDROOT
BRANCH   1   2
ATOM      2  C   UNL     1       6.600   3.666   0.676  1.00  0.00     0.303 C 
ATOM      3  O   UNL     1       6.977   4.775   0.291  1.00  0.00    -0.252 OA
BRANCH   2   4
ATOM      4  O   UNL     1       6.598   3.438   2.061  1.00  0.00    -0.481 OA
ATOM      5  H   UNL     1       7.459   3.637   2.547  1.00  0.00     0.296 HD
ENDBRANCH   2   4
ENDBRANCH   1   2
BRANCH   1   6
ATOM      6  C   UNL     1       5.783   1.350   0.553  1.00  0.00     0.047 C 
BRANCH   6   7
ATOM      7  C   UNL     1       6.505   0.118   0.226  1.00  0.00    -0.043 A 
ATOM      8  C   UNL     1       7.099  -0.657   1.210  1.00  0.00     0.008 A 
ATOM      9  C   UNL     1       6.647  -0.285  -1.075  1.00  0.00     0.054 A 
ATOM     10  C   UNL     1       7.808  -1.796   0.901  1.00  0.00     0.051 A 
ATOM     11  C   UNL     1       7.354  -1.425  -1.409  1.00  0.00     0.166 A 
ATOM     12  C   UNL     1       7.937  -2.184  -0.423  1.00  0.00     0.165 A 
ATOM     13  O   UNL     1       7.623  -2.014  -2.632  1.00  0.00    -0.454 OA
ATOM     14  O   UNL     1       8.571  -3.252  -1.059  1.00  0.00    -0.454 OA
ATOM     15  C   UNL     1       8.653  -2.995  -2.442  1.00  0.00     0.468 C 
ENDBRANCH   6   7
ENDBRANCH   1   6
TORSDOF 4
ENDMDL
MODEL 5
REMARK VINA RESULT:      -6.6      1.910      2.339
REMARK SMILES O=C(O)CCc1ccc2c(c1)OCO2
REMARK SMILES IDX 4 1 2 2 1 3 3 4 5 6 6 7 7 8 11 9 8 10 10 11 9 12 12 13 14 14
REMARK SMILES IDX 13 15
REMARK H PARENT 3 5
REMARK Flexibility Score: inf
ROOT
ATOM      1  C   UNL     1       5.181   0.313   1.829  1.00  0.00     0.127 C 
ENDROOT
BRANCH   1   2
ATOM      2  C   UNL     1       6.301  -0.452   2.354  1.00  0.00     0.303 C 
ATOM      3  O   UNL     1       7.309   0.022   2.881  1.00  0.00    -0.252 OA
BRANCH   2   4
ATOM      4  O   UNL     1       6.230  -1.851   2.253  1.00  0.00    -0.481 OA
ATOM      5  H   UNL     1       5.453  -2.292   2.721  1.00  0.00     0.296 HD
ENDBRANCH   2   4
ENDBRANCH   1   2
BRANCH   1   6
ATOM      6  C   UNL     1       5.473   1.008   0.558  1.00  0.00     0.047 C 
BRANCH   6   7
ATOM      7  C   UNL     1       6.606   0.525  -0.234  1.00  0.00    -0.043 A 
ATOM      8  C   UNL     1       7.760   1.279  -0.384  1.00  0.00     0.008 A 
ATOM      9  C   UNL     1       6.543  -0.678  -0.886  1.00  0.00     0.054 A 
ATOM     10  C   UNL     1       8.812   0.842  -1.157  1.00  0.00     0.051 A 
ATOM     11  C   UNL     1       7.586  -1.138  -1.667  1.00  0.00     0.166 A 
ATOM     12  C   UNL     1       8.724  -0.380  -1.805  1.00  0.00     0.165 A 
ATOM     13  O   UNL     1       7.741  -2.299  -2.403  1.00  0.00    -0.454 OA
ATOM     14  O   UNL     1       9.585  -1.094  -2.640  1.00  0.00    -0.454 OA
ATOM     15  C   UNL     1       8.873  -2.135  -3.270  1.00  0.00     0.468 C 
ENDBRANCH   6   7
ENDBRANCH   1   6
TORSDOF 4
ENDMDL
