@<TRIPOS>MOLECULE
/home/cewinharhar/GITHUB/reincatalyze/data/processed/docking_pred/2023-May-17-1006_maxeplen10_maxtrainstep1000_seadep16_gamma099_lrac9e-4_lrcr1e-3_sub6/13e8c6f9c16a4fbf8ad14846e02839591438c51f_ligand_6.pdbqt
 15 16 0 0 0
SMALL
GASTEIGER

@<TRIPOS>ATOM
      1  C          5.1810    0.3130    1.8290 C.3     1  UNL1        0.1270
      2  C          6.3010   -0.4520    2.3540 C.2     1  UNL1        0.3030
      3  O          7.3090    0.0220    2.8810 O.2     1  UNL1       -0.2520
      4  O          6.2300   -1.8510    2.2530 O.3     1  UNL1       -0.4810
      5  H          5.4530   -2.2920    2.7210 H       1  UNL1        0.2960
      6  C          5.4730    1.0080    0.5580 C.3     1  UNL1        0.0470
      7  C          6.6060    0.5250   -0.2340 C.2     1  UNL1       -0.0430
      8  C          7.7600    1.2790   -0.3840 C.2     1  UNL1        0.0080
      9  C          6.5430   -0.6780   -0.8860 C.2     1  UNL1        0.0540
     10  C          8.8120    0.8420   -1.1570 C.2     1  UNL1        0.0510
     11  C          7.5860   -1.1380   -1.6670 C.2     1  UNL1        0.1660
     12  C          8.7240   -0.3800   -1.8050 C.2     1  UNL1        0.1650
     13  O          7.7410   -2.2990   -2.4030 O.2     1  UNL1       -0.4540
     14  O          9.5850   -1.0940   -2.6400 O.2     1  UNL1       -0.4540
     15  C          8.8730   -2.1350   -3.2700 C.3     1  UNL1        0.4680
@<TRIPOS>BOND
     1    15    14    1
     2    15    13    1
     3    14    12    1
     4    13    11    1
     5    12    11    2
     6    12    10    1
     7    11     9    1
     8    10     8    2
     9     9     7    2
    10     8     7    1
    11     7     6    1
    12     6     1    1
    13     1     2    1
    14     4     2    1
    15     4     5    1
    16     2     3    2
