@<TRIPOS>MOLECULE
/home/cewinharhar/GITHUB/reincatalyze/data/processed/docking_pred/2023-May-17-1006_maxeplen10_maxtrainstep1000_seadep16_gamma099_lrac9e-4_lrcr1e-3_sub6/13e8c6f9c16a4fbf8ad14846e02839591438c51f_ligand_6.pdbqt
 15 16 0 0 0
SMALL
GASTEIGER

@<TRIPOS>ATOM
      1  C          5.4480    0.9760    0.5340 C.3     1  UNL1        0.1270
      2  C          5.0960    0.5200    1.8690 C.2     1  UNL1        0.3030
      3  O          5.7550   -0.2620    2.5570 O.2     1  UNL1       -0.2520
      4  O          3.9030    1.0100    2.4240 O.3     1  UNL1       -0.4810
      5  H          3.1600    0.3390    2.5460 H       1  UNL1        0.2960
      6  C          6.8970    0.9230    0.2440 C.3     1  UNL1        0.0470
      7  C          7.4000   -0.2450   -0.4830 C.2     1  UNL1       -0.0430
      8  C          7.3730   -0.3030   -1.8670 C.2     1  UNL1        0.0080
      9  C          7.8790   -1.3360    0.1920 C.2     1  UNL1        0.0540
     10  C          7.8120   -1.4150   -2.5510 C.2     1  UNL1        0.0510
     11  C          8.3260   -2.4620   -0.4730 C.2     1  UNL1        0.1660
     12  C          8.2940   -2.5060   -1.8450 C.2     1  UNL1        0.1650
     13  O          8.8420   -3.6590   -0.0080 O.2     1  UNL1       -0.4540
     14  O          8.8000   -3.7520   -2.2210 O.2     1  UNL1       -0.4540
     15  C          8.8520   -4.5970   -1.0950 C.3     1  UNL1        0.4680
@<TRIPOS>BOND
     1    10     8    1
     2    10    12    2
     3    14    12    1
     4    14    15    1
     5     8     7    2
     6    12    11    1
     7    15    13    1
     8     7     9    1
     9     7     6    1
    10    11    13    1
    11    11     9    2
    12     6     1    1
    13     1     2    1
    14     2     4    1
    15     2     3    2
    16     4     5    1
