@<TRIPOS>MOLECULE
/home/cewinharhar/GITHUB/reincatalyze/data/processed/docking_pred/2023-May-17-1006_maxeplen10_maxtrainstep1000_seadep16_gamma099_lrac9e-4_lrcr1e-3_sub6/141a4713aaf07cdd351da17b8461b13d6c9c65f9_ligand_6.pdbqt
 15 16 0 0 0
SMALL
GASTEIGER

@<TRIPOS>ATOM
      1  C          8.2260   -0.2130   -2.8340 C.3     1  UNL1        0.1270
      2  C          8.4620   -1.6340   -3.0340 C.2     1  UNL1        0.3030
      3  O          9.5470   -2.2050   -2.9140 O.2     1  UNL1       -0.2520
      4  O          7.3590   -2.4250   -3.3940 O.3     1  UNL1       -0.4810
      5  H          7.4010   -2.8580   -4.3040 H       1  UNL1        0.2960
      6  C          8.6850    0.2930   -1.5220 C.3     1  UNL1        0.0470
      7  C          7.7370    0.2380   -0.4060 C.2     1  UNL1       -0.0430
      8  C          7.7730   -0.7880    0.5250 C.2     1  UNL1        0.0080
      9  C          6.7570    1.1850   -0.2730 C.2     1  UNL1        0.0540
     10  C          6.8600   -0.8610    1.5540 C.2     1  UNL1        0.0510
     11  C          5.8310    1.1330    0.7510 C.2     1  UNL1        0.1660
     12  C          5.8790    0.1110    1.6680 C.2     1  UNL1        0.1650
     13  O          4.7740    1.9650    1.0770 O.2     1  UNL1       -0.4540
     14  O          4.8320    0.3250    2.5660 O.2     1  UNL1       -0.4540
     15  C          3.9490    1.2880    2.0380 C.3     1  UNL1        0.4680
@<TRIPOS>BOND
     1     5     4    1
     2     4     2    1
     3     2     3    2
     4     2     1    1
     5     1     6    1
     6     6     7    1
     7     7     9    2
     8     7     8    1
     9     9    11    1
    10     8    10    2
    11    11    13    1
    12    11    12    2
    13    13    15    1
    14    10    12    1
    15    12    14    1
    16    15    14    1
