@<TRIPOS>MOLECULE
/home/cewinharhar/GITHUB/reincatalyze/data/processed/docking_pred/2023-May-17-1006_maxeplen10_maxtrainstep1000_seadep16_gamma099_lrac9e-4_lrcr1e-3_sub6/141a4713aaf07cdd351da17b8461b13d6c9c65f9_ligand_6.pdbqt
 15 16 0 0 0
SMALL
GASTEIGER

@<TRIPOS>ATOM
      1  C          5.2950    3.2370    0.3620 C.3     1  UNL1        0.1270
      2  C          6.3750    3.8490    1.1200 C.2     1  UNL1        0.3030
      3  O          6.6390    3.6230    2.3030 O.2     1  UNL1       -0.2520
      4  O          7.1890    4.7750    0.4490 O.3     1  UNL1       -0.4810
      5  H          7.1120    5.7350    0.7490 H       1  UNL1        0.2960
      6  C          5.0130    1.8360    0.7420 C.3     1  UNL1        0.0470
      7  C          5.9010    0.7990    0.2110 C.2     1  UNL1       -0.0430
      8  C          6.1730    0.7030   -1.1440 C.2     1  UNL1        0.0080
      9  C          6.4600   -0.1360    1.0410 C.2     1  UNL1        0.0540
     10  C          6.9790   -0.2930   -1.6490 C.2     1  UNL1        0.0510
     11  C          7.2710   -1.1450    0.5570 C.2     1  UNL1        0.1660
     12  C          7.5340   -1.2270   -0.7890 C.2     1  UNL1        0.1650
     13  O          7.9330   -2.1790    1.1970 O.2     1  UNL1       -0.4540
     14  O          8.3690   -2.3300   -0.9700 O.2     1  UNL1       -0.4540
     15  C          8.3730   -3.1140    0.2010 C.3     1  UNL1        0.4680
@<TRIPOS>BOND
     1    10     8    1
     2    10    12    2
     3     8     7    2
     4    14    12    1
     5    14    15    1
     6    12    11    1
     7    15    13    1
     8     7     6    1
     9     7     9    1
    10     1     6    1
    11     1     2    1
    12     4     5    1
    13     4     2    1
    14    11     9    2
    15    11    13    1
    16     2     3    2
