@<TRIPOS>MOLECULE
/home/cewinharhar/GITHUB/reincatalyze/data/processed/docking_pred/2023-May-17-1006_maxeplen10_maxtrainstep1000_seadep16_gamma099_lrac9e-4_lrcr1e-3_sub6/141a4713aaf07cdd351da17b8461b13d6c9c65f9_ligand_6.pdbqt
 15 16 0 0 0
SMALL
GASTEIGER

@<TRIPOS>ATOM
      1  C          6.4610    1.2820    0.7630 C.3     1  UNL1        0.1270
      2  C          5.2570    1.1620    1.5710 C.2     1  UNL1        0.3030
      3  O          5.0510    0.2980    2.4250 O.2     1  UNL1       -0.2520
      4  O          4.2440    2.1100    1.3630 O.3     1  UNL1       -0.4810
      5  H          3.9790    2.2760    0.4040 H       1  UNL1        0.2960
      6  C          6.2790    0.8760   -0.6470 C.3     1  UNL1        0.0470
      7  C          7.0110   -0.3040   -1.1110 C.2     1  UNL1       -0.0430
      8  C          7.2680   -0.5150   -2.4570 C.2     1  UNL1        0.0080
      9  C          7.4320   -1.2600   -0.2260 C.2     1  UNL1        0.0540
     10  C          7.9240   -1.6420   -2.8990 C.2     1  UNL1        0.0510
     11  C          8.0920   -2.3990   -0.6450 C.2     1  UNL1        0.1660
     12  C          8.3410   -2.5940   -1.9830 C.2     1  UNL1        0.1650
     13  O          8.6000   -3.4790    0.0570 O.2     1  UNL1       -0.4540
     14  O          9.0110   -3.8130   -2.0940 O.2     1  UNL1       -0.4540
     15  C          8.9040   -4.5220   -0.8810 C.3     1  UNL1        0.4680
@<TRIPOS>BOND
     1    10     8    1
     2    10    12    2
     3     8     7    2
     4    14    12    1
     5    14    15    1
     6    12    11    1
     7     7     6    1
     8     7     9    1
     9    15    13    1
    10     6     1    1
    11    11     9    2
    12    11    13    1
    13     5     4    1
    14     1     2    1
    15     4     2    1
    16     2     3    2
