@<TRIPOS>MOLECULE
/home/cewinharhar/GITHUB/reincatalyze/data/processed/docking_pred/2023-May-17-1006_maxeplen10_maxtrainstep1000_seadep16_gamma099_lrac9e-4_lrcr1e-3_sub6/141a4713aaf07cdd351da17b8461b13d6c9c65f9_ligand_6.pdbqt
 15 16 0 0 0
SMALL
GASTEIGER

@<TRIPOS>ATOM
      1  C          5.4160    2.8710    0.1230 C.3     1  UNL1        0.1270
      2  C          6.2420    3.8570    0.8020 C.2     1  UNL1        0.3030
      3  O          6.8840    4.7540    0.2540 O.2     1  UNL1       -0.2520
      4  O          6.3160    3.7820    2.2020 O.3     1  UNL1       -0.4810
      5  H          5.9540    2.9400    2.6220 H       1  UNL1        0.2960
      6  C          5.3490    1.5650    0.8140 C.3     1  UNL1        0.0470
      7  C          6.1320    0.4620    0.2530 C.2     1  UNL1       -0.0430
      8  C          6.5880   -0.5800    1.0460 C.2     1  UNL1        0.0080
      9  C          6.4720    0.4480   -1.0740 C.2     1  UNL1        0.0540
     10  C          7.3550   -1.5990    0.5270 C.2     1  UNL1        0.0510
     11  C          7.2400   -0.5650   -1.6170 C.2     1  UNL1        0.1660
     12  C          7.6830   -1.5910   -0.8190 C.2     1  UNL1        0.1650
     13  O          7.6960   -0.7820   -2.9050 O.2     1  UNL1       -0.4540
     14  O          8.4220   -2.4470   -1.6370 O.2     1  UNL1       -0.4540
     15  C          8.7030   -1.8040   -2.8590 C.3     1  UNL1        0.4680
@<TRIPOS>BOND
     1    13    15    1
     2    13    11    1
     3    15    14    1
     4    14    12    1
     5    11     9    1
     6    11    12    2
     7     9     7    2
     8    12    10    1
     9     1     2    1
    10     1     6    1
    11     7     6    1
    12     7     8    1
    13     3     2    2
    14    10     8    2
    15     2     4    1
    16     4     5    1
