MODEL 1
REMARK VINA RESULT:      -7.7      0.000      0.000
REMARK SMILES O=C(O)CCc1ccc2c(c1)OCO2
REMARK SMILES IDX 4 1 2 2 1 3 3 4 5 6 6 7 7 8 11 9 8 10 10 11 9 12 12 13 14 14
REMARK SMILES IDX 13 15
REMARK H PARENT 3 5
REMARK Flexibility Score: inf
ROOT
ATOM      1  C   UNL     1       5.416   2.871   0.123  1.00  0.00     0.127 C 
ENDROOT
BRANCH   1   2
ATOM      2  C   UNL     1       6.242   3.857   0.802  1.00  0.00     0.303 C 
ATOM      3  O   UNL     1       6.884   4.754   0.254  1.00  0.00    -0.252 OA
BRANCH   2   4
ATOM      4  O   UNL     1       6.316   3.782   2.202  1.00  0.00    -0.481 OA
ATOM      5  H   UNL     1       5.954   2.940   2.622  1.00  0.00     0.296 HD
ENDBRANCH   2   4
ENDBRANCH   1   2
BRANCH   1   6
ATOM      6  C   UNL     1       5.349   1.565   0.814  1.00  0.00     0.047 C 
BRANCH   6   7
ATOM      7  C   UNL     1       6.132   0.462   0.253  1.00  0.00    -0.043 A 
ATOM      8  C   UNL     1       6.588  -0.580   1.046  1.00  0.00     0.008 A 
ATOM      9  C   UNL     1       6.472   0.448  -1.074  1.00  0.00     0.054 A 
ATOM     10  C   UNL     1       7.355  -1.599   0.527  1.00  0.00     0.051 A 
ATOM     11  C   UNL     1       7.240  -0.565  -1.617  1.00  0.00     0.166 A 
ATOM     12  C   UNL     1       7.683  -1.591  -0.819  1.00  0.00     0.165 A 
ATOM     13  O   UNL     1       7.696  -0.782  -2.905  1.00  0.00    -0.454 OA
ATOM     14  O   UNL     1       8.422  -2.447  -1.637  1.00  0.00    -0.454 OA
ATOM     15  C   UNL     1       8.703  -1.804  -2.859  1.00  0.00     0.468 C 
ENDBRANCH   6   7
ENDBRANCH   1   6
TORSDOF 4
ENDMDL
MODEL 2
REMARK VINA RESULT:      -7.6      2.134      2.521
REMARK SMILES O=C(O)CCc1ccc2c(c1)OCO2
REMARK SMILES IDX 4 1 2 2 1 3 3 4 5 6 6 7 7 8 11 9 8 10 10 11 9 12 12 13 14 14
REMARK SMILES IDX 13 15
REMARK H PARENT 3 5
REMARK Flexibility Score: inf
ROOT
ATOM      1  C   UNL     1       4.712   1.894   0.677  1.00  0.00     0.127 C 
ENDROOT
BRANCH   1   2
ATOM      2  C   UNL     1       4.391   1.183   1.904  1.00  0.00     0.303 C 
ATOM      3  O   UNL     1       5.103   0.338   2.451  1.00  0.00    -0.252 OA
BRANCH   2   4
ATOM      4  O   UNL     1       3.166   1.482   2.521  1.00  0.00    -0.481 OA
ATOM      5  H   UNL     1       3.154   2.297   3.114  1.00  0.00     0.296 HD
ENDBRANCH   2   4
ENDBRANCH   1   2
BRANCH   1   6
ATOM      6  C   UNL     1       6.142   2.248   0.544  1.00  0.00     0.047 C 
BRANCH   6   7
ATOM      7  C   UNL     1       6.993   1.346  -0.234  1.00  0.00    -0.043 A 
ATOM      8  C   UNL     1       8.352   1.579  -0.382  1.00  0.00     0.008 A 
ATOM      9  C   UNL     1       6.460   0.260  -0.876  1.00  0.00     0.054 A 
ATOM     10  C   UNL     1       9.147   0.752  -1.144  1.00  0.00     0.051 A 
ATOM     11  C   UNL     1       7.239  -0.584  -1.645  1.00  0.00     0.166 A 
ATOM     12  C   UNL     1       8.585  -0.341  -1.781  1.00  0.00     0.165 A 
ATOM     13  O   UNL     1       6.923  -1.720  -2.370  1.00  0.00    -0.454 OA
ATOM     14  O   UNL     1       9.094  -1.347  -2.604  1.00  0.00    -0.454 OA
ATOM     15  C   UNL     1       8.031  -2.027  -3.230  1.00  0.00     0.468 C 
ENDBRANCH   6   7
ENDBRANCH   1   6
TORSDOF 4
ENDMDL
MODEL 3
REMARK VINA RESULT:      -7.5      1.807      5.262
REMARK SMILES O=C(O)CCc1ccc2c(c1)OCO2
REMARK SMILES IDX 4 1 2 2 1 3 3 4 5 6 6 7 7 8 11 9 8 10 10 11 9 12 12 13 14 14
REMARK SMILES IDX 13 15
REMARK H PARENT 3 5
REMARK Flexibility Score: inf
ROOT
ATOM      1  C   UNL     1       8.226  -0.213  -2.834  1.00  0.00     0.127 C 
ENDROOT
BRANCH   1   2
ATOM      2  C   UNL     1       8.462  -1.634  -3.034  1.00  0.00     0.303 C 
ATOM      3  O   UNL     1       9.547  -2.205  -2.914  1.00  0.00    -0.252 OA
BRANCH   2   4
ATOM      4  O   UNL     1       7.359  -2.425  -3.394  1.00  0.00    -0.481 OA
ATOM      5  H   UNL     1       7.401  -2.858  -4.304  1.00  0.00     0.296 HD
ENDBRANCH   2   4
ENDBRANCH   1   2
BRANCH   1   6
ATOM      6  C   UNL     1       8.685   0.293  -1.522  1.00  0.00     0.047 C 
BRANCH   6   7
ATOM      7  C   UNL     1       7.737   0.238  -0.406  1.00  0.00    -0.043 A 
ATOM      8  C   UNL     1       7.773  -0.788   0.525  1.00  0.00     0.008 A 
ATOM      9  C   UNL     1       6.757   1.185  -0.273  1.00  0.00     0.054 A 
ATOM     10  C   UNL     1       6.860  -0.861   1.554  1.00  0.00     0.051 A 
ATOM     11  C   UNL     1       5.831   1.133   0.751  1.00  0.00     0.166 A 
ATOM     12  C   UNL     1       5.879   0.111   1.668  1.00  0.00     0.165 A 
ATOM     13  O   UNL     1       4.774   1.965   1.077  1.00  0.00    -0.454 OA
ATOM     14  O   UNL     1       4.832   0.325   2.566  1.00  0.00    -0.454 OA
ATOM     15  C   UNL     1       3.949   1.288   2.038  1.00  0.00     0.468 C 
ENDBRANCH   6   7
ENDBRANCH   1   6
TORSDOF 4
ENDMDL
MODEL 4
REMARK VINA RESULT:      -7.5      1.979      2.965
REMARK SMILES O=C(O)CCc1ccc2c(c1)OCO2
REMARK SMILES IDX 4 1 2 2 1 3 3 4 5 6 6 7 7 8 11 9 8 10 10 11 9 12 12 13 14 14
REMARK SMILES IDX 13 15
REMARK H PARENT 3 5
REMARK Flexibility Score: inf
ROOT
ATOM      1  C   UNL     1       6.461   1.282   0.763  1.00  0.00     0.127 C 
ENDROOT
BRANCH   1   2
ATOM      2  C   UNL     1       5.257   1.162   1.571  1.00  0.00     0.303 C 
ATOM      3  O   UNL     1       5.051   0.298   2.425  1.00  0.00    -0.252 OA
BRANCH   2   4
ATOM      4  O   UNL     1       4.244   2.110   1.363  1.00  0.00    -0.481 OA
ATOM      5  H   UNL     1       3.979   2.276   0.404  1.00  0.00     0.296 HD
ENDBRANCH   2   4
ENDBRANCH   1   2
BRANCH   1   6
ATOM      6  C   UNL     1       6.279   0.876  -0.647  1.00  0.00     0.047 C 
BRANCH   6   7
ATOM      7  C   UNL     1       7.011  -0.304  -1.111  1.00  0.00    -0.043 A 
ATOM      8  C   UNL     1       7.268  -0.515  -2.457  1.00  0.00     0.008 A 
ATOM      9  C   UNL     1       7.432  -1.260  -0.226  1.00  0.00     0.054 A 
ATOM     10  C   UNL     1       7.924  -1.642  -2.899  1.00  0.00     0.051 A 
ATOM     11  C   UNL     1       8.092  -2.399  -0.645  1.00  0.00     0.166 A 
ATOM     12  C   UNL     1       8.341  -2.594  -1.983  1.00  0.00     0.165 A 
ATOM     13  O   UNL     1       8.600  -3.479   0.057  1.00  0.00    -0.454 OA
ATOM     14  O   UNL     1       9.011  -3.813  -2.094  1.00  0.00    -0.454 OA
ATOM     15  C   UNL     1       8.904  -4.522  -0.881  1.00  0.00     0.468 C 
ENDBRANCH   6   7
ENDBRANCH   1   6
TORSDOF 4
ENDMDL
