@<TRIPOS>MOLECULE
/home/cewinharhar/GITHUB/reincatalyze/data/processed/docking_pred/2023-May-17-1006_maxeplen10_maxtrainstep1000_seadep16_gamma099_lrac9e-4_lrcr1e-3_sub6/141a4713aaf07cdd351da17b8461b13d6c9c65f9_ligand_6.pdbqt
 15 16 0 0 0
SMALL
GASTEIGER

@<TRIPOS>ATOM
      1  C          4.7120    1.8940    0.6770 C.3     1  UNL1        0.1270
      2  C          4.3910    1.1830    1.9040 C.2     1  UNL1        0.3030
      3  O          5.1030    0.3380    2.4510 O.2     1  UNL1       -0.2520
      4  O          3.1660    1.4820    2.5210 O.3     1  UNL1       -0.4810
      5  H          3.1540    2.2970    3.1140 H       1  UNL1        0.2960
      6  C          6.1420    2.2480    0.5440 C.3     1  UNL1        0.0470
      7  C          6.9930    1.3460   -0.2340 C.2     1  UNL1       -0.0430
      8  C          8.3520    1.5790   -0.3820 C.2     1  UNL1        0.0080
      9  C          6.4600    0.2600   -0.8760 C.2     1  UNL1        0.0540
     10  C          9.1470    0.7520   -1.1440 C.2     1  UNL1        0.0510
     11  C          7.2390   -0.5840   -1.6450 C.2     1  UNL1        0.1660
     12  C          8.5850   -0.3410   -1.7810 C.2     1  UNL1        0.1650
     13  O          6.9230   -1.7200   -2.3700 O.2     1  UNL1       -0.4540
     14  O          9.0940   -1.3470   -2.6040 O.2     1  UNL1       -0.4540
     15  C          8.0310   -2.0270   -3.2300 C.3     1  UNL1        0.4680
@<TRIPOS>BOND
     1    15    14    1
     2    15    13    1
     3    14    12    1
     4    13    11    1
     5    12    11    2
     6    12    10    1
     7    11     9    1
     8    10     8    2
     9     9     7    2
    10     8     7    1
    11     7     6    1
    12     6     1    1
    13     1     2    1
    14     2     3    2
    15     2     4    1
    16     4     5    1
