@<TRIPOS>MOLECULE
/home/cewinharhar/GITHUB/reincatalyze/data/processed/docking_pred/2023-May-17-1006_maxeplen10_maxtrainstep1000_seadep16_gamma099_lrac9e-4_lrcr1e-3_sub6/141be626e2cd6ba8f6b8a46d6dbef4dd02701a2b_ligand_6.pdbqt
 15 16 0 0 0
SMALL
GASTEIGER

@<TRIPOS>ATOM
      1  C          5.4050    2.9040    0.0710 C.3     1  UNL1        0.1270
      2  C          6.2360    3.8550    0.7910 C.2     1  UNL1        0.3030
      3  O          6.8830    4.7730    0.2820 O.2     1  UNL1       -0.2520
      4  O          6.3100    3.7190    2.1860 O.3     1  UNL1       -0.4810
      5  H          5.4410    3.5280    2.6620 H       1  UNL1        0.2960
      6  C          5.2830    1.5890    0.7350 C.3     1  UNL1        0.0470
      7  C          6.0760    0.4820    0.1950 C.2     1  UNL1       -0.0430
      8  C          6.5220   -0.5520    1.0030 C.2     1  UNL1        0.0080
      9  C          6.4340    0.4570   -1.1270 C.2     1  UNL1        0.0540
     10  C          7.2980   -1.5750    0.5040 C.2     1  UNL1        0.0510
     11  C          7.2110   -0.5590   -1.6500 C.2     1  UNL1        0.1660
     12  C          7.6450   -1.5780   -0.8370 C.2     1  UNL1        0.1650
     13  O          7.6860   -0.7870   -2.9300 O.2     1  UNL1       -0.4540
     14  O          8.3970   -2.4400   -1.6370 O.2     1  UNL1       -0.4540
     15  C          8.6940   -1.8070   -2.8600 C.3     1  UNL1        0.4680
@<TRIPOS>BOND
     1    13    15    1
     2    13    11    1
     3    15    14    1
     4    11     9    1
     5    11    12    2
     6    14    12    1
     7     9     7    2
     8    12    10    1
     9     1     6    1
    10     1     2    1
    11     7     6    1
    12     7     8    1
    13     3     2    2
    14    10     8    2
    15     2     4    1
    16     4     5    1
