@<TRIPOS>MOLECULE
/home/cewinharhar/GITHUB/reincatalyze/data/processed/docking_pred/2023-May-17-1006_maxeplen10_maxtrainstep1000_seadep16_gamma099_lrac9e-4_lrcr1e-3_sub6/141be626e2cd6ba8f6b8a46d6dbef4dd02701a2b_ligand_6.pdbqt
 15 16 0 0 0
SMALL
GASTEIGER

@<TRIPOS>ATOM
      1  C          4.7240    1.8680    0.7010 C.3     1  UNL1        0.1270
      2  C          4.4170    1.1450    1.9250 C.2     1  UNL1        0.3030
      3  O          5.1460    0.3120    2.4680 O.2     1  UNL1       -0.2520
      4  O          3.1870    1.4180    2.5440 O.3     1  UNL1       -0.4810
      5  H          2.4330    1.6930    1.9340 H       1  UNL1        0.2960
      6  C          6.1510    2.2240    0.5550 C.3     1  UNL1        0.0470
      7  C          6.9980    1.3220   -0.2290 C.2     1  UNL1       -0.0430
      8  C          8.3560    1.5550   -0.3850 C.2     1  UNL1        0.0080
      9  C          6.4600    0.2370   -0.8680 C.2     1  UNL1        0.0540
     10  C          9.1460    0.7280   -1.1520 C.2     1  UNL1        0.0510
     11  C          7.2340   -0.6070   -1.6430 C.2     1  UNL1        0.1660
     12  C          8.5790   -0.3650   -1.7870 C.2     1  UNL1        0.1650
     13  O          6.9130   -1.7420   -2.3670 O.2     1  UNL1       -0.4540
     14  O          9.0830   -1.3700   -2.6130 O.2     1  UNL1       -0.4540
     15  C          8.0150   -2.0490   -3.2330 C.3     1  UNL1        0.4680
@<TRIPOS>BOND
     1    15    14    1
     2    15    13    1
     3    14    12    1
     4    13    11    1
     5    12    11    2
     6    12    10    1
     7    11     9    1
     8    10     8    2
     9     9     7    2
    10     8     7    1
    11     7     6    1
    12     6     1    1
    13     1     2    1
    14     2     3    2
    15     2     4    1
    16     5     4    1
