@<TRIPOS>MOLECULE
/home/cewinharhar/GITHUB/reincatalyze/data/processed/docking_pred/2023-May-17-1006_maxeplen10_maxtrainstep1000_seadep16_gamma099_lrac9e-4_lrcr1e-3_sub6/141be626e2cd6ba8f6b8a46d6dbef4dd02701a2b_ligand_6.pdbqt
 15 16 0 0 0
SMALL
GASTEIGER

@<TRIPOS>ATOM
      1  C          5.3930    2.8330    0.1510 C.3     1  UNL1        0.1270
      2  C          6.1130    3.8800    0.8590 C.2     1  UNL1        0.3030
      3  O          6.1140    4.0500    2.0800 O.2     1  UNL1       -0.2520
      4  O          6.8710    4.7750    0.0880 O.3     1  UNL1       -0.4810
      5  H          7.2880    5.5480    0.5840 H       1  UNL1        0.2960
      6  C          5.4430    1.5140    0.8180 C.3     1  UNL1        0.0470
      7  C          6.2420    0.4640    0.1830 C.2     1  UNL1       -0.0430
      8  C          6.4760    0.4580   -1.1830 C.2     1  UNL1        0.0080
      9  C          6.7530   -0.5700    0.9220 C.2     1  UNL1        0.0540
     10  C          7.1970   -0.5490   -1.7870 C.2     1  UNL1        0.0510
     11  C          7.4790   -1.5910    0.3380 C.2     1  UNL1        0.1660
     12  C          7.7040   -1.5840   -1.0180 C.2     1  UNL1        0.1650
     13  O          8.0800   -2.7150    0.8760 O.2     1  UNL1       -0.4540
     14  O          8.4550   -2.7240   -1.3080 O.2     1  UNL1       -0.4540
     15  C          8.4310   -3.5970   -0.2020 C.3     1  UNL1        0.4680
@<TRIPOS>BOND
     1    10     8    1
     2    10    12    2
     3    14    12    1
     4    14    15    1
     5     8     7    2
     6    12    11    1
     7    15    13    1
     8     4     5    1
     9     4     2    1
    10     1     6    1
    11     1     2    1
    12     7     6    1
    13     7     9    1
    14    11    13    1
    15    11     9    2
    16     2     3    2
