@<TRIPOS>MOLECULE
/home/cewinharhar/GITHUB/reincatalyze/data/processed/docking_pred/2023-May-17-1006_maxeplen10_maxtrainstep1000_seadep16_gamma099_lrac9e-4_lrcr1e-3_sub6/141be626e2cd6ba8f6b8a46d6dbef4dd02701a2b_ligand_6.pdbqt
 15 16 0 0 0
SMALL
GASTEIGER

@<TRIPOS>ATOM
      1  C          6.4110    1.3320    0.6820 C.3     1  UNL1        0.1270
      2  C          5.1970    1.3110    1.4830 C.2     1  UNL1        0.3030
      3  O          4.2560    2.0990    1.3780 O.2     1  UNL1       -0.2520
      4  O          5.0870    0.3100    2.4600 O.3     1  UNL1       -0.4810
      5  H          5.2440    0.5990    3.4130 H       1  UNL1        0.2960
      6  C          6.2180    0.8790   -0.7120 C.3     1  UNL1        0.0470
      7  C          6.9760   -0.2940   -1.1550 C.2     1  UNL1       -0.0430
      8  C          7.2730   -0.5020   -2.4930 C.2     1  UNL1        0.0080
      9  C          7.3810   -1.2450   -0.2560 C.2     1  UNL1        0.0540
     10  C          7.9530   -1.6230   -2.9140 C.2     1  UNL1        0.0510
     11  C          8.0660   -2.3770   -0.6560 C.2     1  UNL1        0.1660
     12  C          8.3550   -2.5700   -1.9860 C.2     1  UNL1        0.1650
     13  O          8.5660   -3.4500    0.0610 O.2     1  UNL1       -0.4540
     14  O          9.0410   -3.7820   -2.0770 O.2     1  UNL1       -0.4540
     15  C          8.9080   -4.4900   -0.8670 C.3     1  UNL1        0.4680
@<TRIPOS>BOND
     1    10     8    1
     2    10    12    2
     3     8     7    2
     4    14    12    1
     5    14    15    1
     6    12    11    1
     7     7     6    1
     8     7     9    1
     9    15    13    1
    10     6     1    1
    11    11     9    2
    12    11    13    1
    13     1     2    1
    14     3     2    2
    15     2     4    1
    16     4     5    1
