MODEL 1
REMARK VINA RESULT:      -7.7      0.000      0.000
REMARK SMILES O=C(O)CCc1ccc2c(c1)OCO2
REMARK SMILES IDX 4 1 2 2 1 3 3 4 5 6 6 7 7 8 11 9 8 10 10 11 9 12 12 13 14 14
REMARK SMILES IDX 13 15
REMARK H PARENT 3 5
REMARK Flexibility Score: inf
ROOT
ATOM      1  C   UNL     1       5.405   2.904   0.071  1.00  0.00     0.127 C 
ENDROOT
BRANCH   1   2
ATOM      2  C   UNL     1       6.236   3.855   0.791  1.00  0.00     0.303 C 
ATOM      3  O   UNL     1       6.883   4.773   0.282  1.00  0.00    -0.252 OA
BRANCH   2   4
ATOM      4  O   UNL     1       6.310   3.719   2.186  1.00  0.00    -0.481 OA
ATOM      5  H   UNL     1       5.441   3.528   2.662  1.00  0.00     0.296 HD
ENDBRANCH   2   4
ENDBRANCH   1   2
BRANCH   1   6
ATOM      6  C   UNL     1       5.283   1.589   0.735  1.00  0.00     0.047 C 
BRANCH   6   7
ATOM      7  C   UNL     1       6.076   0.482   0.195  1.00  0.00    -0.043 A 
ATOM      8  C   UNL     1       6.522  -0.552   1.003  1.00  0.00     0.008 A 
ATOM      9  C   UNL     1       6.434   0.457  -1.127  1.00  0.00     0.054 A 
ATOM     10  C   UNL     1       7.298  -1.575   0.504  1.00  0.00     0.051 A 
ATOM     11  C   UNL     1       7.211  -0.559  -1.650  1.00  0.00     0.166 A 
ATOM     12  C   UNL     1       7.645  -1.578  -0.837  1.00  0.00     0.165 A 
ATOM     13  O   UNL     1       7.686  -0.787  -2.930  1.00  0.00    -0.454 OA
ATOM     14  O   UNL     1       8.397  -2.440  -1.637  1.00  0.00    -0.454 OA
ATOM     15  C   UNL     1       8.694  -1.807  -2.860  1.00  0.00     0.468 C 
ENDBRANCH   6   7
ENDBRANCH   1   6
TORSDOF 4
ENDMDL
MODEL 2
REMARK VINA RESULT:      -7.6      2.122      2.525
REMARK SMILES O=C(O)CCc1ccc2c(c1)OCO2
REMARK SMILES IDX 4 1 2 2 1 3 3 4 5 6 6 7 7 8 11 9 8 10 10 11 9 12 12 13 14 14
REMARK SMILES IDX 13 15
REMARK H PARENT 3 5
REMARK Flexibility Score: inf
ROOT
ATOM      1  C   UNL     1       4.724   1.868   0.701  1.00  0.00     0.127 C 
ENDROOT
BRANCH   1   2
ATOM      2  C   UNL     1       4.417   1.145   1.925  1.00  0.00     0.303 C 
ATOM      3  O   UNL     1       5.146   0.312   2.468  1.00  0.00    -0.252 OA
BRANCH   2   4
ATOM      4  O   UNL     1       3.187   1.418   2.544  1.00  0.00    -0.481 OA
ATOM      5  H   UNL     1       2.433   1.693   1.934  1.00  0.00     0.296 HD
ENDBRANCH   2   4
ENDBRANCH   1   2
BRANCH   1   6
ATOM      6  C   UNL     1       6.151   2.224   0.555  1.00  0.00     0.047 C 
BRANCH   6   7
ATOM      7  C   UNL     1       6.998   1.322  -0.229  1.00  0.00    -0.043 A 
ATOM      8  C   UNL     1       8.356   1.555  -0.385  1.00  0.00     0.008 A 
ATOM      9  C   UNL     1       6.460   0.237  -0.868  1.00  0.00     0.054 A 
ATOM     10  C   UNL     1       9.146   0.728  -1.152  1.00  0.00     0.051 A 
ATOM     11  C   UNL     1       7.234  -0.607  -1.643  1.00  0.00     0.166 A 
ATOM     12  C   UNL     1       8.579  -0.365  -1.787  1.00  0.00     0.165 A 
ATOM     13  O   UNL     1       6.913  -1.742  -2.367  1.00  0.00    -0.454 OA
ATOM     14  O   UNL     1       9.083  -1.370  -2.613  1.00  0.00    -0.454 OA
ATOM     15  C   UNL     1       8.015  -2.049  -3.233  1.00  0.00     0.468 C 
ENDBRANCH   6   7
ENDBRANCH   1   6
TORSDOF 4
ENDMDL
MODEL 3
REMARK VINA RESULT:      -7.5      1.963      2.863
REMARK SMILES O=C(O)CCc1ccc2c(c1)OCO2
REMARK SMILES IDX 4 1 2 2 1 3 3 4 5 6 6 7 7 8 11 9 8 10 10 11 9 12 12 13 14 14
REMARK SMILES IDX 13 15
REMARK H PARENT 3 5
REMARK Flexibility Score: inf
ROOT
ATOM      1  C   UNL     1       6.411   1.332   0.682  1.00  0.00     0.127 C 
ENDROOT
BRANCH   1   2
ATOM      2  C   UNL     1       5.197   1.311   1.483  1.00  0.00     0.303 C 
ATOM      3  O   UNL     1       4.256   2.099   1.378  1.00  0.00    -0.252 OA
BRANCH   2   4
ATOM      4  O   UNL     1       5.087   0.310   2.460  1.00  0.00    -0.481 OA
ATOM      5  H   UNL     1       5.244   0.599   3.413  1.00  0.00     0.296 HD
ENDBRANCH   2   4
ENDBRANCH   1   2
BRANCH   1   6
ATOM      6  C   UNL     1       6.218   0.879  -0.712  1.00  0.00     0.047 C 
BRANCH   6   7
ATOM      7  C   UNL     1       6.976  -0.294  -1.155  1.00  0.00    -0.043 A 
ATOM      8  C   UNL     1       7.273  -0.502  -2.493  1.00  0.00     0.008 A 
ATOM      9  C   UNL     1       7.381  -1.245  -0.256  1.00  0.00     0.054 A 
ATOM     10  C   UNL     1       7.953  -1.623  -2.914  1.00  0.00     0.051 A 
ATOM     11  C   UNL     1       8.066  -2.377  -0.656  1.00  0.00     0.166 A 
ATOM     12  C   UNL     1       8.355  -2.570  -1.986  1.00  0.00     0.165 A 
ATOM     13  O   UNL     1       8.566  -3.450   0.061  1.00  0.00    -0.454 OA
ATOM     14  O   UNL     1       9.041  -3.782  -2.077  1.00  0.00    -0.454 OA
ATOM     15  C   UNL     1       8.908  -4.490  -0.867  1.00  0.00     0.468 C 
ENDBRANCH   6   7
ENDBRANCH   1   6
TORSDOF 4
ENDMDL
MODEL 4
REMARK VINA RESULT:      -7.4      1.792      5.281
REMARK SMILES O=C(O)CCc1ccc2c(c1)OCO2
REMARK SMILES IDX 4 1 2 2 1 3 3 4 5 6 6 7 7 8 11 9 8 10 10 11 9 12 12 13 14 14
REMARK SMILES IDX 13 15
REMARK H PARENT 3 5
REMARK Flexibility Score: inf
ROOT
ATOM      1  C   UNL     1       8.307  -0.321  -2.863  1.00  0.00     0.127 C 
ENDROOT
BRANCH   1   2
ATOM      2  C   UNL     1       8.469  -1.751  -3.076  1.00  0.00     0.303 C 
ATOM      3  O   UNL     1       9.537  -2.365  -3.036  1.00  0.00    -0.252 OA
BRANCH   2   4
ATOM      4  O   UNL     1       7.313  -2.497  -3.350  1.00  0.00    -0.481 OA
ATOM      5  H   UNL     1       7.228  -3.380  -2.869  1.00  0.00     0.296 HD
ENDBRANCH   2   4
ENDBRANCH   1   2
BRANCH   1   6
ATOM      6  C   UNL     1       8.760   0.143  -1.534  1.00  0.00     0.047 C 
BRANCH   6   7
ATOM      7  C   UNL     1       7.791   0.104  -0.437  1.00  0.00    -0.043 A 
ATOM      8  C   UNL     1       7.735  -0.966   0.443  1.00  0.00     0.008 A 
ATOM      9  C   UNL     1       6.880   1.113  -0.271  1.00  0.00     0.054 A 
ATOM     10  C   UNL     1       6.801  -1.020   1.454  1.00  0.00     0.051 A 
ATOM     11  C   UNL     1       5.934   1.080   0.736  1.00  0.00     0.166 A 
ATOM     12  C   UNL     1       5.891   0.014   1.602  1.00  0.00     0.165 A 
ATOM     13  O   UNL     1       4.934   1.970   1.087  1.00  0.00    -0.454 OA
ATOM     14  O   UNL     1       4.847   0.261   2.494  1.00  0.00    -0.454 OA
ATOM     15  C   UNL     1       4.046   1.310   2.002  1.00  0.00     0.468 C 
ENDBRANCH   6   7
ENDBRANCH   1   6
TORSDOF 4
ENDMDL
MODEL 5
REMARK VINA RESULT:      -5.5      0.936      2.100
REMARK SMILES O=C(O)CCc1ccc2c(c1)OCO2
REMARK SMILES IDX 4 1 2 2 1 3 3 4 5 6 6 7 7 8 11 9 8 10 10 11 9 12 12 13 14 14
REMARK SMILES IDX 13 15
REMARK H PARENT 3 5
REMARK Flexibility Score: inf
ROOT
ATOM      1  C   UNL     1       5.393   2.833   0.151  1.00  0.00     0.127 C 
ENDROOT
BRANCH   1   2
ATOM      2  C   UNL     1       6.113   3.880   0.859  1.00  0.00     0.303 C 
ATOM      3  O   UNL     1       6.114   4.050   2.080  1.00  0.00    -0.252 OA
BRANCH   2   4
ATOM      4  O   UNL     1       6.871   4.775   0.088  1.00  0.00    -0.481 OA
ATOM      5  H   UNL     1       7.288   5.548   0.584  1.00  0.00     0.296 HD
ENDBRANCH   2   4
ENDBRANCH   1   2
BRANCH   1   6
ATOM      6  C   UNL     1       5.443   1.514   0.818  1.00  0.00     0.047 C 
BRANCH   6   7
ATOM      7  C   UNL     1       6.242   0.464   0.183  1.00  0.00    -0.043 A 
ATOM      8  C   UNL     1       6.476   0.458  -1.183  1.00  0.00     0.008 A 
ATOM      9  C   UNL     1       6.753  -0.570   0.922  1.00  0.00     0.054 A 
ATOM     10  C   UNL     1       7.197  -0.549  -1.787  1.00  0.00     0.051 A 
ATOM     11  C   UNL     1       7.479  -1.591   0.338  1.00  0.00     0.166 A 
ATOM     12  C   UNL     1       7.704  -1.584  -1.018  1.00  0.00     0.165 A 
ATOM     13  O   UNL     1       8.080  -2.715   0.876  1.00  0.00    -0.454 OA
ATOM     14  O   UNL     1       8.455  -2.724  -1.308  1.00  0.00    -0.454 OA
ATOM     15  C   UNL     1       8.431  -3.597  -0.202  1.00  0.00     0.468 C 
ENDBRANCH   6   7
ENDBRANCH   1   6
TORSDOF 4
ENDMDL
