@<TRIPOS>MOLECULE
/home/cewinharhar/GITHUB/reincatalyze/data/processed/docking_pred/2023-May-17-1006_maxeplen10_maxtrainstep1000_seadep16_gamma099_lrac9e-4_lrcr1e-3_sub6/141be626e2cd6ba8f6b8a46d6dbef4dd02701a2b_ligand_6.pdbqt
 15 16 0 0 0
SMALL
GASTEIGER

@<TRIPOS>ATOM
      1  C          8.3070   -0.3210   -2.8630 C.3     1  UNL1        0.1270
      2  C          8.4690   -1.7510   -3.0760 C.2     1  UNL1        0.3030
      3  O          9.5370   -2.3650   -3.0360 O.2     1  UNL1       -0.2520
      4  O          7.3130   -2.4970   -3.3500 O.3     1  UNL1       -0.4810
      5  H          7.2280   -3.3800   -2.8690 H       1  UNL1        0.2960
      6  C          8.7600    0.1430   -1.5340 C.3     1  UNL1        0.0470
      7  C          7.7910    0.1040   -0.4370 C.2     1  UNL1       -0.0430
      8  C          7.7350   -0.9660    0.4430 C.2     1  UNL1        0.0080
      9  C          6.8800    1.1130   -0.2710 C.2     1  UNL1        0.0540
     10  C          6.8010   -1.0200    1.4540 C.2     1  UNL1        0.0510
     11  C          5.9340    1.0800    0.7360 C.2     1  UNL1        0.1660
     12  C          5.8910    0.0140    1.6020 C.2     1  UNL1        0.1650
     13  O          4.9340    1.9700    1.0870 O.2     1  UNL1       -0.4540
     14  O          4.8470    0.2610    2.4940 O.2     1  UNL1       -0.4540
     15  C          4.0460    1.3100    2.0020 C.3     1  UNL1        0.4680
@<TRIPOS>BOND
     1     4     2    1
     2     4     5    1
     3     2     3    2
     4     2     1    1
     5     1     6    1
     6     6     7    1
     7     7     9    2
     8     7     8    1
     9     9    11    1
    10     8    10    2
    11    11    13    1
    12    11    12    2
    13    13    15    1
    14    10    12    1
    15    12    14    1
    16    15    14    1
