@<TRIPOS>MOLECULE
/home/cewinharhar/GITHUB/reincatalyze/data/processed/docking_pred/2023-May-17-1006_maxeplen10_maxtrainstep1000_seadep16_gamma099_lrac9e-4_lrcr1e-3_sub6/1444e75be78da7e2931ed2b5f85ad252461f0798_ligand_6.pdbqt
 15 16 0 0 0
SMALL
GASTEIGER

@<TRIPOS>ATOM
      1  C          4.6340    1.8250    0.6970 C.3     1  UNL1        0.1270
      2  C          4.2940    1.1830    1.9570 C.2     1  UNL1        0.3030
      3  O          3.2380    1.3300    2.5750 O.2     1  UNL1       -0.2520
      4  O          5.2490    0.3210    2.5190 O.3     1  UNL1       -0.4810
      5  H          5.9460    0.7520    3.1080 H       1  UNL1        0.2960
      6  C          6.0640    2.1800    0.5710 C.3     1  UNL1        0.0470
      7  C          6.9160    1.2870   -0.2180 C.2     1  UNL1       -0.0430
      8  C          8.2700    1.5360   -0.3830 C.2     1  UNL1        0.0080
      9  C          6.3880    0.1940   -0.8520 C.2     1  UNL1        0.0540
     10  C          9.0650    0.7180   -1.1530 C.2     1  UNL1        0.0510
     11  C          7.1660   -0.6420   -1.6300 C.2     1  UNL1        0.1660
     12  C          8.5070   -0.3830   -1.7830 C.2     1  UNL1        0.1650
     13  O          6.8550   -1.7820   -2.3490 O.2     1  UNL1       -0.4540
     14  O          9.0180   -1.3840   -2.6110 O.2     1  UNL1       -0.4540
     15  C          7.9550   -2.0770   -3.2230 C.3     1  UNL1        0.4680
@<TRIPOS>BOND
     1    15    14    1
     2    15    13    1
     3    14    12    1
     4    13    11    1
     5    12    11    2
     6    12    10    1
     7    11     9    1
     8    10     8    2
     9     9     7    2
    10     8     7    1
    11     7     6    1
    12     6     1    1
    13     1     2    1
    14     2     4    1
    15     2     3    2
    16     4     5    1
