@<TRIPOS>MOLECULE
/home/cewinharhar/GITHUB/reincatalyze/data/processed/docking_pred/2023-May-17-1006_maxeplen10_maxtrainstep1000_seadep16_gamma099_lrac9e-4_lrcr1e-3_sub6/1444e75be78da7e2931ed2b5f85ad252461f0798_ligand_6.pdbqt
 15 16 0 0 0
SMALL
GASTEIGER

@<TRIPOS>ATOM
      1  C          5.7050    2.4280    0.7960 C.3     1  UNL1        0.1270
      2  C          6.2380    3.7230    1.1910 C.2     1  UNL1        0.3030
      3  O          6.1440    4.2260    2.3120 O.2     1  UNL1       -0.2520
      4  O          6.9160    4.4660    0.2120 O.3     1  UNL1       -0.4810
      5  H          7.4010    3.9340   -0.4950 H       1  UNL1        0.2960
      6  C          6.3570    1.2820    1.4660 C.3     1  UNL1        0.0470
      7  C          6.8580    0.1980    0.6180 C.2     1  UNL1       -0.0430
      8  C          6.6160    0.1740   -0.7460 C.2     1  UNL1        0.0080
      9  C          7.5520   -0.8510    1.1610 C.2     1  UNL1        0.0540
     10  C          7.0560   -0.8630   -1.5390 C.2     1  UNL1        0.0510
     11  C          8.0030   -1.9020    0.3850 C.2     1  UNL1        0.1660
     12  C          7.7570   -1.9120   -0.9670 C.2     1  UNL1        0.1650
     13  O          8.7110   -3.0460    0.7100 O.2     1  UNL1       -0.4540
     14  O          8.3250   -3.0820   -1.4710 O.2     1  UNL1       -0.4540
     15  C          8.6460   -3.9470   -0.4060 C.3     1  UNL1        0.4680
@<TRIPOS>BOND
     1    10    12    2
     2    10     8    1
     3    14    12    1
     4    14    15    1
     5    12    11    1
     6     8     7    2
     7     5     4    1
     8    15    13    1
     9     4     2    1
    10    11    13    1
    11    11     9    2
    12     7     9    1
    13     7     6    1
    14     1     2    1
    15     1     6    1
    16     2     3    2
