MODEL 1
REMARK VINA RESULT:      -8.0      0.000      0.000
REMARK SMILES O=C(O)CCc1ccc2c(c1)OCO2
REMARK SMILES IDX 4 1 2 2 1 3 3 4 5 6 6 7 7 8 11 9 8 10 10 11 9 12 12 13 14 14
REMARK SMILES IDX 13 15
REMARK H PARENT 3 5
REMARK Flexibility Score: inf
ROOT
ATOM      1  C   UNL     1       4.634   1.825   0.697  1.00  0.00     0.127 C 
ENDROOT
BRANCH   1   2
ATOM      2  C   UNL     1       4.294   1.183   1.957  1.00  0.00     0.303 C 
ATOM      3  O   UNL     1       3.238   1.330   2.575  1.00  0.00    -0.252 OA
BRANCH   2   4
ATOM      4  O   UNL     1       5.249   0.321   2.519  1.00  0.00    -0.481 OA
ATOM      5  H   UNL     1       5.946   0.752   3.108  1.00  0.00     0.296 HD
ENDBRANCH   2   4
ENDBRANCH   1   2
BRANCH   1   6
ATOM      6  C   UNL     1       6.064   2.180   0.571  1.00  0.00     0.047 C 
BRANCH   6   7
ATOM      7  C   UNL     1       6.916   1.287  -0.218  1.00  0.00    -0.043 A 
ATOM      8  C   UNL     1       8.270   1.536  -0.383  1.00  0.00     0.008 A 
ATOM      9  C   UNL     1       6.388   0.194  -0.852  1.00  0.00     0.054 A 
ATOM     10  C   UNL     1       9.065   0.718  -1.153  1.00  0.00     0.051 A 
ATOM     11  C   UNL     1       7.166  -0.642  -1.630  1.00  0.00     0.166 A 
ATOM     12  C   UNL     1       8.507  -0.383  -1.783  1.00  0.00     0.165 A 
ATOM     13  O   UNL     1       6.855  -1.782  -2.349  1.00  0.00    -0.454 OA
ATOM     14  O   UNL     1       9.018  -1.384  -2.611  1.00  0.00    -0.454 OA
ATOM     15  C   UNL     1       7.955  -2.077  -3.223  1.00  0.00     0.468 C 
ENDBRANCH   6   7
ENDBRANCH   1   6
TORSDOF 4
ENDMDL
MODEL 2
REMARK VINA RESULT:      -7.8      1.875      2.407
REMARK SMILES O=C(O)CCc1ccc2c(c1)OCO2
REMARK SMILES IDX 4 1 2 2 1 3 3 4 5 6 6 7 7 8 11 9 8 10 10 11 9 12 12 13 14 14
REMARK SMILES IDX 13 15
REMARK H PARENT 3 5
REMARK Flexibility Score: inf
ROOT
ATOM      1  C   UNL     1       6.405   1.250   0.737  1.00  0.00     0.127 C 
ENDROOT
BRANCH   1   2
ATOM      2  C   UNL     1       5.143   1.303   1.458  1.00  0.00     0.303 C 
ATOM      3  O   UNL     1       4.245   2.126   1.271  1.00  0.00    -0.252 OA
BRANCH   2   4
ATOM      4  O   UNL     1       4.928   0.337   2.453  1.00  0.00    -0.481 OA
ATOM      5  H   UNL     1       5.754  -0.073   2.862  1.00  0.00     0.296 HD
ENDBRANCH   2   4
ENDBRANCH   1   2
BRANCH   1   6
ATOM      6  C   UNL     1       6.271   0.838  -0.677  1.00  0.00     0.047 C 
BRANCH   6   7
ATOM      7  C   UNL     1       7.000  -0.358  -1.106  1.00  0.00    -0.043 A 
ATOM      8  C   UNL     1       7.267  -0.602  -2.444  1.00  0.00     0.008 A 
ATOM      9  C   UNL     1       7.407  -1.295  -0.194  1.00  0.00     0.054 A 
ATOM     10  C   UNL     1       7.920  -1.744  -2.852  1.00  0.00     0.051 A 
ATOM     11  C   UNL     1       8.064  -2.447  -0.580  1.00  0.00     0.166 A 
ATOM     12  C   UNL     1       8.323  -2.676  -1.910  1.00  0.00     0.165 A 
ATOM     13  O   UNL     1       8.559  -3.512   0.152  1.00  0.00    -0.454 OA
ATOM     14  O   UNL     1       8.987  -3.902  -1.986  1.00  0.00    -0.454 OA
ATOM     15  C   UNL     1       8.865  -4.580  -0.757  1.00  0.00     0.468 C 
ENDBRANCH   6   7
ENDBRANCH   1   6
TORSDOF 4
ENDMDL
MODEL 3
REMARK VINA RESULT:      -7.3      1.443      5.343
REMARK SMILES O=C(O)CCc1ccc2c(c1)OCO2
REMARK SMILES IDX 4 1 2 2 1 3 3 4 5 6 6 7 7 8 11 9 8 10 10 11 9 12 12 13 14 14
REMARK SMILES IDX 13 15
REMARK H PARENT 3 5
REMARK Flexibility Score: inf
ROOT
ATOM      1  C   UNL     1       8.311  -0.184  -2.974  1.00  0.00     0.127 C 
ENDROOT
BRANCH   1   2
ATOM      2  C   UNL     1       8.514  -1.621  -3.079  1.00  0.00     0.303 C 
ATOM      3  O   UNL     1       9.590  -2.206  -2.939  1.00  0.00    -0.252 OA
BRANCH   2   4
ATOM      4  O   UNL     1       7.389  -2.411  -3.363  1.00  0.00    -0.481 OA
ATOM      5  H   UNL     1       6.658  -2.412  -2.669  1.00  0.00     0.296 HD
ENDBRANCH   2   4
ENDBRANCH   1   2
BRANCH   1   6
ATOM      6  C   UNL     1       8.832   0.405  -1.722  1.00  0.00     0.047 C 
BRANCH   6   7
ATOM      7  C   UNL     1       7.946   0.409  -0.556  1.00  0.00    -0.043 A 
ATOM      8  C   UNL     1       8.188  -0.404   0.540  1.00  0.00     0.008 A 
ATOM      9  C   UNL     1       6.823   1.193  -0.532  1.00  0.00     0.054 A 
ATOM     10  C   UNL     1       7.337  -0.429   1.622  1.00  0.00     0.051 A 
ATOM     11  C   UNL     1       5.954   1.185   0.543  1.00  0.00     0.166 A 
ATOM     12  C   UNL     1       6.208   0.375   1.624  1.00  0.00     0.165 A 
ATOM     13  O   UNL     1       4.782   1.880   0.782  1.00  0.00    -0.454 OA
ATOM     14  O   UNL     1       5.171   0.582   2.535  1.00  0.00    -0.454 OA
ATOM     15  C   UNL     1       4.119   1.272   1.901  1.00  0.00     0.468 C 
ENDBRANCH   6   7
ENDBRANCH   1   6
TORSDOF 4
ENDMDL
MODEL 4
REMARK VINA RESULT:      -7.3      2.588      2.890
REMARK SMILES O=C(O)CCc1ccc2c(c1)OCO2
REMARK SMILES IDX 4 1 2 2 1 3 3 4 5 6 6 7 7 8 11 9 8 10 10 11 9 12 12 13 14 14
REMARK SMILES IDX 13 15
REMARK H PARENT 3 5
REMARK Flexibility Score: inf
ROOT
ATOM      1  C   UNL     1       5.705   2.428   0.796  1.00  0.00     0.127 C 
ENDROOT
BRANCH   1   2
ATOM      2  C   UNL     1       6.238   3.723   1.191  1.00  0.00     0.303 C 
ATOM      3  O   UNL     1       6.144   4.226   2.312  1.00  0.00    -0.252 OA
BRANCH   2   4
ATOM      4  O   UNL     1       6.916   4.466   0.212  1.00  0.00    -0.481 OA
ATOM      5  H   UNL     1       7.401   3.934  -0.495  1.00  0.00     0.296 HD
ENDBRANCH   2   4
ENDBRANCH   1   2
BRANCH   1   6
ATOM      6  C   UNL     1       6.357   1.282   1.466  1.00  0.00     0.047 C 
BRANCH   6   7
ATOM      7  C   UNL     1       6.858   0.198   0.618  1.00  0.00    -0.043 A 
ATOM      8  C   UNL     1       6.616   0.174  -0.746  1.00  0.00     0.008 A 
ATOM      9  C   UNL     1       7.552  -0.851   1.161  1.00  0.00     0.054 A 
ATOM     10  C   UNL     1       7.056  -0.863  -1.539  1.00  0.00     0.051 A 
ATOM     11  C   UNL     1       8.003  -1.902   0.385  1.00  0.00     0.166 A 
ATOM     12  C   UNL     1       7.757  -1.912  -0.967  1.00  0.00     0.165 A 
ATOM     13  O   UNL     1       8.711  -3.046   0.710  1.00  0.00    -0.454 OA
ATOM     14  O   UNL     1       8.325  -3.082  -1.471  1.00  0.00    -0.454 OA
ATOM     15  C   UNL     1       8.646  -3.947  -0.406  1.00  0.00     0.468 C 
ENDBRANCH   6   7
ENDBRANCH   1   6
TORSDOF 4
ENDMDL
MODEL 5
REMARK VINA RESULT:      -7.2      2.273      2.498
REMARK SMILES O=C(O)CCc1ccc2c(c1)OCO2
REMARK SMILES IDX 4 1 2 2 1 3 3 4 5 6 6 7 7 8 11 9 8 10 10 11 9 12 12 13 14 14
REMARK SMILES IDX 13 15
REMARK H PARENT 3 5
REMARK Flexibility Score: inf
ROOT
ATOM      1  C   UNL     1       5.483   1.481  -0.283  1.00  0.00     0.127 C 
ENDROOT
BRANCH   1   2
ATOM      2  C   UNL     1       5.146   2.059   1.008  1.00  0.00     0.303 C 
ATOM      3  O   UNL     1       4.279   1.640   1.777  1.00  0.00    -0.252 OA
BRANCH   2   4
ATOM      4  O   UNL     1       5.869   3.192   1.416  1.00  0.00    -0.481 OA
ATOM      5  H   UNL     1       6.866   3.075   1.507  1.00  0.00     0.296 HD
ENDBRANCH   2   4
ENDBRANCH   1   2
BRANCH   1   6
ATOM      6  C   UNL     1       6.922   1.187  -0.452  1.00  0.00     0.047 C 
BRANCH   6   7
ATOM      7  C   UNL     1       7.358  -0.198  -0.259  1.00  0.00    -0.043 A 
ATOM      8  C   UNL     1       7.560  -0.724   1.007  1.00  0.00     0.008 A 
ATOM      9  C   UNL     1       7.616  -1.006  -1.334  1.00  0.00     0.054 A 
ATOM     10  C   UNL     1       8.005  -2.015   1.189  1.00  0.00     0.051 A 
ATOM     11  C   UNL     1       8.061  -2.305  -1.176  1.00  0.00     0.166 A 
ATOM     12  C   UNL     1       8.257  -2.814   0.085  1.00  0.00     0.165 A 
ATOM     13  O   UNL     1       8.380  -3.286  -2.099  1.00  0.00    -0.454 OA
ATOM     14  O   UNL     1       8.703  -4.127  -0.075  1.00  0.00    -0.454 OA
ATOM     15  C   UNL     1       9.083  -4.334  -1.416  1.00  0.00     0.468 C 
ENDBRANCH   6   7
ENDBRANCH   1   6
TORSDOF 4
ENDMDL
