@<TRIPOS>MOLECULE
/home/cewinharhar/GITHUB/reincatalyze/data/processed/docking_pred/2023-May-17-1006_maxeplen10_maxtrainstep1000_seadep16_gamma099_lrac9e-4_lrcr1e-3_sub6/1444e75be78da7e2931ed2b5f85ad252461f0798_ligand_6.pdbqt
 15 16 0 0 0
SMALL
GASTEIGER

@<TRIPOS>ATOM
      1  C          6.4050    1.2500    0.7370 C.3     1  UNL1        0.1270
      2  C          5.1430    1.3030    1.4580 C.2     1  UNL1        0.3030
      3  O          4.2450    2.1260    1.2710 O.2     1  UNL1       -0.2520
      4  O          4.9280    0.3370    2.4530 O.3     1  UNL1       -0.4810
      5  H          5.7540   -0.0730    2.8620 H       1  UNL1        0.2960
      6  C          6.2710    0.8380   -0.6770 C.3     1  UNL1        0.0470
      7  C          7.0000   -0.3580   -1.1060 C.2     1  UNL1       -0.0430
      8  C          7.2670   -0.6020   -2.4440 C.2     1  UNL1        0.0080
      9  C          7.4070   -1.2950   -0.1940 C.2     1  UNL1        0.0540
     10  C          7.9200   -1.7440   -2.8520 C.2     1  UNL1        0.0510
     11  C          8.0640   -2.4470   -0.5800 C.2     1  UNL1        0.1660
     12  C          8.3230   -2.6760   -1.9100 C.2     1  UNL1        0.1650
     13  O          8.5590   -3.5120    0.1520 O.2     1  UNL1       -0.4540
     14  O          8.9870   -3.9020   -1.9860 O.2     1  UNL1       -0.4540
     15  C          8.8650   -4.5800   -0.7570 C.3     1  UNL1        0.4680
@<TRIPOS>BOND
     1    10     8    1
     2    10    12    2
     3     8     7    2
     4    14    12    1
     5    14    15    1
     6    12    11    1
     7     7     6    1
     8     7     9    1
     9    15    13    1
    10     6     1    1
    11    11     9    2
    12    11    13    1
    13     1     2    1
    14     3     2    2
    15     2     4    1
    16     4     5    1
