@<TRIPOS>MOLECULE
/home/cewinharhar/GITHUB/reincatalyze/data/processed/docking_pred/2023-May-17-1006_maxeplen10_maxtrainstep1000_seadep16_gamma099_lrac9e-4_lrcr1e-3_sub6/1444e75be78da7e2931ed2b5f85ad252461f0798_ligand_6.pdbqt
 15 16 0 0 0
SMALL
GASTEIGER

@<TRIPOS>ATOM
      1  C          5.4830    1.4810   -0.2830 C.3     1  UNL1        0.1270
      2  C          5.1460    2.0590    1.0080 C.2     1  UNL1        0.3030
      3  O          4.2790    1.6400    1.7770 O.2     1  UNL1       -0.2520
      4  O          5.8690    3.1920    1.4160 O.3     1  UNL1       -0.4810
      5  H          6.8660    3.0750    1.5070 H       1  UNL1        0.2960
      6  C          6.9220    1.1870   -0.4520 C.3     1  UNL1        0.0470
      7  C          7.3580   -0.1980   -0.2590 C.2     1  UNL1       -0.0430
      8  C          7.5600   -0.7240    1.0070 C.2     1  UNL1        0.0080
      9  C          7.6160   -1.0060   -1.3340 C.2     1  UNL1        0.0540
     10  C          8.0050   -2.0150    1.1890 C.2     1  UNL1        0.0510
     11  C          8.0610   -2.3050   -1.1760 C.2     1  UNL1        0.1660
     12  C          8.2570   -2.8140    0.0850 C.2     1  UNL1        0.1650
     13  O          8.3800   -3.2860   -2.0990 O.2     1  UNL1       -0.4540
     14  O          8.7030   -4.1270   -0.0750 O.2     1  UNL1       -0.4540
     15  C          9.0830   -4.3340   -1.4160 C.3     1  UNL1        0.4680
@<TRIPOS>BOND
     1    13    15    1
     2    13    11    1
     3    15    14    1
     4     9    11    1
     5     9     7    2
     6    11    12    2
     7     6     1    1
     8     6     7    1
     9     1     2    1
    10     7     8    1
    11    14    12    1
    12    12    10    1
    13     8    10    2
    14     2     4    1
    15     2     3    2
    16     4     5    1
