@<TRIPOS>MOLECULE
/home/cewinharhar/GITHUB/reincatalyze/data/processed/docking_pred/2023-May-17-1006_maxeplen10_maxtrainstep1000_seadep16_gamma099_lrac9e-4_lrcr1e-3_sub6/1444e75be78da7e2931ed2b5f85ad252461f0798_ligand_6.pdbqt
 15 16 0 0 0
SMALL
GASTEIGER

@<TRIPOS>ATOM
      1  C          8.3110   -0.1840   -2.9740 C.3     1  UNL1        0.1270
      2  C          8.5140   -1.6210   -3.0790 C.2     1  UNL1        0.3030
      3  O          9.5900   -2.2060   -2.9390 O.2     1  UNL1       -0.2520
      4  O          7.3890   -2.4110   -3.3630 O.3     1  UNL1       -0.4810
      5  H          6.6580   -2.4120   -2.6690 H       1  UNL1        0.2960
      6  C          8.8320    0.4050   -1.7220 C.3     1  UNL1        0.0470
      7  C          7.9460    0.4090   -0.5560 C.2     1  UNL1       -0.0430
      8  C          8.1880   -0.4040    0.5400 C.2     1  UNL1        0.0080
      9  C          6.8230    1.1930   -0.5320 C.2     1  UNL1        0.0540
     10  C          7.3370   -0.4290    1.6220 C.2     1  UNL1        0.0510
     11  C          5.9540    1.1850    0.5430 C.2     1  UNL1        0.1660
     12  C          6.2080    0.3750    1.6240 C.2     1  UNL1        0.1650
     13  O          4.7820    1.8800    0.7820 O.2     1  UNL1       -0.4540
     14  O          5.1710    0.5820    2.5350 O.2     1  UNL1       -0.4540
     15  C          4.1190    1.2720    1.9010 C.3     1  UNL1        0.4680
@<TRIPOS>BOND
     1     4     2    1
     2     4     5    1
     3     2     1    1
     4     2     3    2
     5     1     6    1
     6     6     7    1
     7     7     9    2
     8     7     8    1
     9     9    11    1
    10     8    10    2
    11    11    13    1
    12    11    12    2
    13    13    15    1
    14    10    12    1
    15    12    14    1
    16    15    14    1
