@<TRIPOS>MOLECULE
/home/cewinharhar/GITHUB/reincatalyze/data/processed/docking_pred/2023-May-17-1006_maxeplen10_maxtrainstep1000_seadep16_gamma099_lrac9e-4_lrcr1e-3_sub6/16519f8051380dc2329c6f51dcb24a8f5dfeda31_ligand_6.pdbqt
 15 16 0 0 0
SMALL
GASTEIGER

@<TRIPOS>ATOM
      1  C          5.4100    2.8690    0.1300 C.3     1  UNL1        0.1270
      2  C          6.2350    3.8520    0.8140 C.2     1  UNL1        0.3030
      3  O          6.8510    4.7720    0.2730 O.2     1  UNL1       -0.2520
      4  O          6.3400    3.7460    2.2100 O.3     1  UNL1       -0.4810
      5  H          6.9870    4.3770    2.6570 H       1  UNL1        0.2960
      6  C          5.3350    1.5630    0.8200 C.3     1  UNL1        0.0470
      7  C          6.1200    0.4580    0.2660 C.2     1  UNL1       -0.0430
      8  C          6.6060   -0.5610    1.0700 C.2     1  UNL1        0.0080
      9  C          6.4310    0.4200   -1.0670 C.2     1  UNL1        0.0540
     10  C          7.3740   -1.5820    0.5560 C.2     1  UNL1        0.0510
     11  C          7.2010   -0.5940   -1.6050 C.2     1  UNL1        0.1660
     12  C          7.6740   -1.5980   -0.7960 C.2     1  UNL1        0.1650
     13  O          7.6320   -0.8330   -2.8980 O.2     1  UNL1       -0.4540
     14  O          8.4070   -2.4620   -1.6120 O.2     1  UNL1       -0.4540
     15  C          8.6530   -1.8410   -2.8530 C.3     1  UNL1        0.4680
@<TRIPOS>BOND
     1    13    15    1
     2    13    11    1
     3    15    14    1
     4    14    12    1
     5    11     9    1
     6    11    12    2
     7     9     7    2
     8    12    10    1
     9     1     2    1
    10     1     6    1
    11     7     6    1
    12     7     8    1
    13     3     2    2
    14    10     8    2
    15     2     4    1
    16     4     5    1
