@<TRIPOS>MOLECULE
/home/cewinharhar/GITHUB/reincatalyze/data/processed/docking_pred/2023-May-17-1006_maxeplen10_maxtrainstep1000_seadep16_gamma099_lrac9e-4_lrcr1e-3_sub6/16519f8051380dc2329c6f51dcb24a8f5dfeda31_ligand_6.pdbqt
 15 16 0 0 0
SMALL
GASTEIGER

@<TRIPOS>ATOM
      1  C          4.7130    1.8510    0.7000 C.3     1  UNL1        0.1270
      2  C          4.4170    1.1320    1.9290 C.2     1  UNL1        0.3030
      3  O          5.1500    0.3020    2.4700 O.2     1  UNL1       -0.2520
      4  O          3.1910    1.4060    2.5560 O.3     1  UNL1       -0.4810
      5  H          2.5120    0.6600    2.5510 H       1  UNL1        0.2960
      6  C          6.1380    2.2130    0.5460 C.3     1  UNL1        0.0470
      7  C          6.9880    1.3080   -0.2310 C.2     1  UNL1       -0.0430
      8  C          8.3510    1.5250   -0.3610 C.2     1  UNL1        0.0080
      9  C          6.4490    0.2340   -0.8890 C.2     1  UNL1        0.0540
     10  C          9.1440    0.6950   -1.1200 C.2     1  UNL1        0.0510
     11  C          7.2260   -0.6130   -1.6560 C.2     1  UNL1        0.1660
     12  C          8.5760   -0.3860   -1.7740 C.2     1  UNL1        0.1650
     13  O          6.9040   -1.7380   -2.3940 O.2     1  UNL1       -0.4540
     14  O          9.0820   -1.3910   -2.6000 O.2     1  UNL1       -0.4540
     15  C          8.0180   -2.0520   -3.2440 C.3     1  UNL1        0.4680
@<TRIPOS>BOND
     1    15    14    1
     2    15    13    1
     3    14    12    1
     4    13    11    1
     5    12    11    2
     6    12    10    1
     7    11     9    1
     8    10     8    2
     9     9     7    2
    10     8     7    1
    11     7     6    1
    12     6     1    1
    13     1     2    1
    14     2     3    2
    15     2     4    1
    16     5     4    1
