MODEL 1
REMARK VINA RESULT:      -7.7      0.000      0.000
REMARK SMILES O=C(O)CCc1ccc2c(c1)OCO2
REMARK SMILES IDX 4 1 2 2 1 3 3 4 5 6 6 7 7 8 11 9 8 10 10 11 9 12 12 13 14 14
REMARK SMILES IDX 13 15
REMARK H PARENT 3 5
REMARK Flexibility Score: inf
ROOT
ATOM      1  C   UNL     1       5.410   2.869   0.130  1.00  0.00     0.127 C 
ENDROOT
BRANCH   1   2
ATOM      2  C   UNL     1       6.235   3.852   0.814  1.00  0.00     0.303 C 
ATOM      3  O   UNL     1       6.851   4.772   0.273  1.00  0.00    -0.252 OA
BRANCH   2   4
ATOM      4  O   UNL     1       6.340   3.746   2.210  1.00  0.00    -0.481 OA
ATOM      5  H   UNL     1       6.987   4.377   2.657  1.00  0.00     0.296 HD
ENDBRANCH   2   4
ENDBRANCH   1   2
BRANCH   1   6
ATOM      6  C   UNL     1       5.335   1.563   0.820  1.00  0.00     0.047 C 
BRANCH   6   7
ATOM      7  C   UNL     1       6.120   0.458   0.266  1.00  0.00    -0.043 A 
ATOM      8  C   UNL     1       6.606  -0.561   1.070  1.00  0.00     0.008 A 
ATOM      9  C   UNL     1       6.431   0.420  -1.067  1.00  0.00     0.054 A 
ATOM     10  C   UNL     1       7.374  -1.582   0.556  1.00  0.00     0.051 A 
ATOM     11  C   UNL     1       7.201  -0.594  -1.605  1.00  0.00     0.166 A 
ATOM     12  C   UNL     1       7.674  -1.598  -0.796  1.00  0.00     0.165 A 
ATOM     13  O   UNL     1       7.632  -0.833  -2.898  1.00  0.00    -0.454 OA
ATOM     14  O   UNL     1       8.407  -2.462  -1.612  1.00  0.00    -0.454 OA
ATOM     15  C   UNL     1       8.653  -1.841  -2.853  1.00  0.00     0.468 C 
ENDBRANCH   6   7
ENDBRANCH   1   6
TORSDOF 4
ENDMDL
MODEL 2
REMARK VINA RESULT:      -7.6      2.139      2.515
REMARK SMILES O=C(O)CCc1ccc2c(c1)OCO2
REMARK SMILES IDX 4 1 2 2 1 3 3 4 5 6 6 7 7 8 11 9 8 10 10 11 9 12 12 13 14 14
REMARK SMILES IDX 13 15
REMARK H PARENT 3 5
REMARK Flexibility Score: inf
ROOT
ATOM      1  C   UNL     1       4.713   1.851   0.700  1.00  0.00     0.127 C 
ENDROOT
BRANCH   1   2
ATOM      2  C   UNL     1       4.417   1.132   1.929  1.00  0.00     0.303 C 
ATOM      3  O   UNL     1       5.150   0.302   2.470  1.00  0.00    -0.252 OA
BRANCH   2   4
ATOM      4  O   UNL     1       3.191   1.406   2.556  1.00  0.00    -0.481 OA
ATOM      5  H   UNL     1       2.512   0.660   2.551  1.00  0.00     0.296 HD
ENDBRANCH   2   4
ENDBRANCH   1   2
BRANCH   1   6
ATOM      6  C   UNL     1       6.138   2.213   0.546  1.00  0.00     0.047 C 
BRANCH   6   7
ATOM      7  C   UNL     1       6.988   1.308  -0.231  1.00  0.00    -0.043 A 
ATOM      8  C   UNL     1       8.351   1.525  -0.361  1.00  0.00     0.008 A 
ATOM      9  C   UNL     1       6.449   0.234  -0.889  1.00  0.00     0.054 A 
ATOM     10  C   UNL     1       9.144   0.695  -1.120  1.00  0.00     0.051 A 
ATOM     11  C   UNL     1       7.226  -0.613  -1.656  1.00  0.00     0.166 A 
ATOM     12  C   UNL     1       8.576  -0.386  -1.774  1.00  0.00     0.165 A 
ATOM     13  O   UNL     1       6.904  -1.738  -2.394  1.00  0.00    -0.454 OA
ATOM     14  O   UNL     1       9.082  -1.391  -2.600  1.00  0.00    -0.454 OA
ATOM     15  C   UNL     1       8.018  -2.052  -3.244  1.00  0.00     0.468 C 
ENDBRANCH   6   7
ENDBRANCH   1   6
TORSDOF 4
ENDMDL
MODEL 3
REMARK VINA RESULT:      -7.4      1.783      5.279
REMARK SMILES O=C(O)CCc1ccc2c(c1)OCO2
REMARK SMILES IDX 4 1 2 2 1 3 3 4 5 6 6 7 7 8 11 9 8 10 10 11 9 12 12 13 14 14
REMARK SMILES IDX 13 15
REMARK H PARENT 3 5
REMARK Flexibility Score: inf
ROOT
ATOM      1  C   UNL     1       8.313  -0.320  -2.865  1.00  0.00     0.127 C 
ENDROOT
BRANCH   1   2
ATOM      2  C   UNL     1       8.476  -1.750  -3.078  1.00  0.00     0.303 C 
ATOM      3  O   UNL     1       9.544  -2.363  -3.043  1.00  0.00    -0.252 OA
BRANCH   2   4
ATOM      4  O   UNL     1       7.318  -2.497  -3.347  1.00  0.00    -0.481 OA
ATOM      5  H   UNL     1       6.496  -1.970  -3.598  1.00  0.00     0.296 HD
ENDBRANCH   2   4
ENDBRANCH   1   2
BRANCH   1   6
ATOM      6  C   UNL     1       8.764   0.144  -1.536  1.00  0.00     0.047 C 
BRANCH   6   7
ATOM      7  C   UNL     1       7.796   0.099  -0.438  1.00  0.00    -0.043 A 
ATOM      8  C   UNL     1       7.741  -0.974   0.437  1.00  0.00     0.008 A 
ATOM      9  C   UNL     1       6.884   1.107  -0.268  1.00  0.00     0.054 A 
ATOM     10  C   UNL     1       6.807  -1.034   1.447  1.00  0.00     0.051 A 
ATOM     11  C   UNL     1       5.938   1.069   0.739  1.00  0.00     0.166 A 
ATOM     12  C   UNL     1       5.896  -0.001   1.600  1.00  0.00     0.165 A 
ATOM     13  O   UNL     1       4.938   1.957   1.094  1.00  0.00    -0.454 OA
ATOM     14  O   UNL     1       4.852   0.241   2.493  1.00  0.00    -0.454 OA
ATOM     15  C   UNL     1       4.050   1.292   2.006  1.00  0.00     0.468 C 
ENDBRANCH   6   7
ENDBRANCH   1   6
TORSDOF 4
ENDMDL
MODEL 4
REMARK VINA RESULT:      -7.4      1.951      2.852
REMARK SMILES O=C(O)CCc1ccc2c(c1)OCO2
REMARK SMILES IDX 4 1 2 2 1 3 3 4 5 6 6 7 7 8 11 9 8 10 10 11 9 12 12 13 14 14
REMARK SMILES IDX 13 15
REMARK H PARENT 3 5
REMARK Flexibility Score: inf
ROOT
ATOM      1  C   UNL     1       6.445   1.319   0.747  1.00  0.00     0.127 C 
ENDROOT
BRANCH   1   2
ATOM      2  C   UNL     1       5.189   1.327   1.481  1.00  0.00     0.303 C 
ATOM      3  O   UNL     1       4.274   2.137   1.326  1.00  0.00    -0.252 OA
BRANCH   2   4
ATOM      4  O   UNL     1       5.002   0.326   2.447  1.00  0.00    -0.481 OA
ATOM      5  H   UNL     1       4.046   0.126   2.701  1.00  0.00     0.296 HD
ENDBRANCH   2   4
ENDBRANCH   1   2
BRANCH   1   6
ATOM      6  C   UNL     1       6.307   0.938  -0.675  1.00  0.00     0.047 C 
BRANCH   6   7
ATOM      7  C   UNL     1       7.032  -0.251  -1.131  1.00  0.00    -0.043 A 
ATOM      8  C   UNL     1       7.303  -0.463  -2.474  1.00  0.00     0.008 A 
ATOM      9  C   UNL     1       7.431  -1.212  -0.240  1.00  0.00     0.054 A 
ATOM     10  C   UNL     1       7.953  -1.598  -2.907  1.00  0.00     0.051 A 
ATOM     11  C   UNL     1       8.084  -2.358  -0.652  1.00  0.00     0.166 A 
ATOM     12  C   UNL     1       8.347  -2.555  -1.987  1.00  0.00     0.165 A 
ATOM     13  O   UNL     1       8.571  -3.443   0.055  1.00  0.00    -0.454 OA
ATOM     14  O   UNL     1       9.006  -3.781  -2.091  1.00  0.00    -0.454 OA
ATOM     15  C   UNL     1       8.875  -4.489  -0.880  1.00  0.00     0.468 C 
ENDBRANCH   6   7
ENDBRANCH   1   6
TORSDOF 4
ENDMDL
MODEL 5
REMARK VINA RESULT:      -7.4      1.060      2.144
REMARK SMILES O=C(O)CCc1ccc2c(c1)OCO2
REMARK SMILES IDX 4 1 2 2 1 3 3 4 5 6 6 7 7 8 11 9 8 10 10 11 9 12 12 13 14 14
REMARK SMILES IDX 13 15
REMARK H PARENT 3 5
REMARK Flexibility Score: inf
ROOT
ATOM      1  C   UNL     1       5.766   2.528  -0.032  1.00  0.00     0.127 C 
ENDROOT
BRANCH   1   2
ATOM      2  C   UNL     1       6.203   3.631   0.810  1.00  0.00     0.303 C 
ATOM      3  O   UNL     1       6.085   3.687   2.035  1.00  0.00    -0.252 OA
BRANCH   2   4
ATOM      4  O   UNL     1       6.811   4.725   0.175  1.00  0.00    -0.481 OA
ATOM      5  H   UNL     1       7.398   5.305   0.754  1.00  0.00     0.296 HD
ENDBRANCH   2   4
ENDBRANCH   1   2
BRANCH   1   6
ATOM      6  C   UNL     1       5.791   1.212   0.641  1.00  0.00     0.047 C 
BRANCH   6   7
ATOM      7  C   UNL     1       6.530   0.130  -0.014  1.00  0.00    -0.043 A 
ATOM      8  C   UNL     1       6.611   0.041  -1.396  1.00  0.00     0.008 A 
ATOM      9  C   UNL     1       7.133  -0.853   0.724  1.00  0.00     0.054 A 
ATOM     10  C   UNL     1       7.274  -0.995  -2.014  1.00  0.00     0.051 A 
ATOM     11  C   UNL     1       7.804  -1.902   0.125  1.00  0.00     0.166 A 
ATOM     12  C   UNL     1       7.878  -1.977  -1.245  1.00  0.00     0.165 A 
ATOM     13  O   UNL     1       8.476  -2.988   0.660  1.00  0.00    -0.454 OA
ATOM     14  O   UNL     1       8.607  -3.128  -1.547  1.00  0.00    -0.454 OA
ATOM     15  C   UNL     1       8.717  -3.931  -0.395  1.00  0.00     0.468 C 
ENDBRANCH   6   7
ENDBRANCH   1   6
TORSDOF 4
ENDMDL
