@<TRIPOS>MOLECULE
/home/cewinharhar/GITHUB/reincatalyze/data/processed/docking_pred/2023-May-17-1006_maxeplen10_maxtrainstep1000_seadep16_gamma099_lrac9e-4_lrcr1e-3_sub6/16519f8051380dc2329c6f51dcb24a8f5dfeda31_ligand_6.pdbqt
 15 16 0 0 0
SMALL
GASTEIGER

@<TRIPOS>ATOM
      1  C          8.3130   -0.3200   -2.8650 C.3     1  UNL1        0.1270
      2  C          8.4760   -1.7500   -3.0780 C.2     1  UNL1        0.3030
      3  O          9.5440   -2.3630   -3.0430 O.2     1  UNL1       -0.2520
      4  O          7.3180   -2.4970   -3.3470 O.3     1  UNL1       -0.4810
      5  H          6.4960   -1.9700   -3.5980 H       1  UNL1        0.2960
      6  C          8.7640    0.1440   -1.5360 C.3     1  UNL1        0.0470
      7  C          7.7960    0.0990   -0.4380 C.2     1  UNL1       -0.0430
      8  C          7.7410   -0.9740    0.4370 C.2     1  UNL1        0.0080
      9  C          6.8840    1.1070   -0.2680 C.2     1  UNL1        0.0540
     10  C          6.8070   -1.0340    1.4470 C.2     1  UNL1        0.0510
     11  C          5.9380    1.0690    0.7390 C.2     1  UNL1        0.1660
     12  C          5.8960   -0.0010    1.6000 C.2     1  UNL1        0.1650
     13  O          4.9380    1.9570    1.0940 O.2     1  UNL1       -0.4540
     14  O          4.8520    0.2410    2.4930 O.2     1  UNL1       -0.4540
     15  C          4.0500    1.2920    2.0060 C.3     1  UNL1        0.4680
@<TRIPOS>BOND
     1     5     4    1
     2     4     2    1
     3     2     3    2
     4     2     1    1
     5     1     6    1
     6     6     7    1
     7     7     9    2
     8     7     8    1
     9     9    11    1
    10     8    10    2
    11    11    13    1
    12    11    12    2
    13    13    15    1
    14    10    12    1
    15    12    14    1
    16    15    14    1
