@<TRIPOS>MOLECULE
/home/cewinharhar/GITHUB/reincatalyze/data/processed/docking_pred/2023-May-17-1006_maxeplen10_maxtrainstep1000_seadep16_gamma099_lrac9e-4_lrcr1e-3_sub6/16519f8051380dc2329c6f51dcb24a8f5dfeda31_ligand_6.pdbqt
 15 16 0 0 0
SMALL
GASTEIGER

@<TRIPOS>ATOM
      1  C          5.7660    2.5280   -0.0320 C.3     1  UNL1        0.1270
      2  C          6.2030    3.6310    0.8100 C.2     1  UNL1        0.3030
      3  O          6.0850    3.6870    2.0350 O.2     1  UNL1       -0.2520
      4  O          6.8110    4.7250    0.1750 O.3     1  UNL1       -0.4810
      5  H          7.3980    5.3050    0.7540 H       1  UNL1        0.2960
      6  C          5.7910    1.2120    0.6410 C.3     1  UNL1        0.0470
      7  C          6.5300    0.1300   -0.0140 C.2     1  UNL1       -0.0430
      8  C          6.6110    0.0410   -1.3960 C.2     1  UNL1        0.0080
      9  C          7.1330   -0.8530    0.7240 C.2     1  UNL1        0.0540
     10  C          7.2740   -0.9950   -2.0140 C.2     1  UNL1        0.0510
     11  C          7.8040   -1.9020    0.1250 C.2     1  UNL1        0.1660
     12  C          7.8780   -1.9770   -1.2450 C.2     1  UNL1        0.1650
     13  O          8.4760   -2.9880    0.6600 O.2     1  UNL1       -0.4540
     14  O          8.6070   -3.1280   -1.5470 O.2     1  UNL1       -0.4540
     15  C          8.7170   -3.9310   -0.3950 C.3     1  UNL1        0.4680
@<TRIPOS>BOND
     1    10     8    1
     2    10    12    2
     3    14    12    1
     4    14    15    1
     5     8     7    2
     6    12    11    1
     7    15    13    1
     8     1     6    1
     9     1     2    1
    10     7     6    1
    11     7     9    1
    12    11    13    1
    13    11     9    2
    14     4     5    1
    15     4     2    1
    16     2     3    2
