@<TRIPOS>MOLECULE
/home/cewinharhar/GITHUB/reincatalyze/data/processed/docking_pred/2023-May-17-1006_maxeplen10_maxtrainstep1000_seadep16_gamma099_lrac9e-4_lrcr1e-3_sub6/16519f8051380dc2329c6f51dcb24a8f5dfeda31_ligand_6.pdbqt
 15 16 0 0 0
SMALL
GASTEIGER

@<TRIPOS>ATOM
      1  C          6.4450    1.3190    0.7470 C.3     1  UNL1        0.1270
      2  C          5.1890    1.3270    1.4810 C.2     1  UNL1        0.3030
      3  O          4.2740    2.1370    1.3260 O.2     1  UNL1       -0.2520
      4  O          5.0020    0.3260    2.4470 O.3     1  UNL1       -0.4810
      5  H          4.0460    0.1260    2.7010 H       1  UNL1        0.2960
      6  C          6.3070    0.9380   -0.6750 C.3     1  UNL1        0.0470
      7  C          7.0320   -0.2510   -1.1310 C.2     1  UNL1       -0.0430
      8  C          7.3030   -0.4630   -2.4740 C.2     1  UNL1        0.0080
      9  C          7.4310   -1.2120   -0.2400 C.2     1  UNL1        0.0540
     10  C          7.9530   -1.5980   -2.9070 C.2     1  UNL1        0.0510
     11  C          8.0840   -2.3580   -0.6520 C.2     1  UNL1        0.1660
     12  C          8.3470   -2.5550   -1.9870 C.2     1  UNL1        0.1650
     13  O          8.5710   -3.4430    0.0550 O.2     1  UNL1       -0.4540
     14  O          9.0060   -3.7810   -2.0910 O.2     1  UNL1       -0.4540
     15  C          8.8750   -4.4890   -0.8800 C.3     1  UNL1        0.4680
@<TRIPOS>BOND
     1    10     8    1
     2    10    12    2
     3     8     7    2
     4    14    12    1
     5    14    15    1
     6    12    11    1
     7     7     6    1
     8     7     9    1
     9    15    13    1
    10     6     1    1
    11    11     9    2
    12    11    13    1
    13     1     2    1
    14     3     2    2
    15     2     4    1
    16     4     5    1
