@<TRIPOS>MOLECULE
/home/cewinharhar/GITHUB/reincatalyze/data/processed/docking_pred/2023-May-17-1006_maxeplen10_maxtrainstep1000_seadep16_gamma099_lrac9e-4_lrcr1e-3_sub6/1a0a4210c7fbec369f44508687af2363e72d8760_ligand_6.pdbqt
 15 16 0 0 0
SMALL
GASTEIGER

@<TRIPOS>ATOM
      1  C          5.6490    2.5880    0.4090 C.3     1  UNL1        0.1270
      2  C          6.2250    3.7640    1.0430 C.2     1  UNL1        0.3030
      3  O          6.2410    3.9900    2.2540 O.2     1  UNL1       -0.2520
      4  O          6.8140    4.7240    0.2060 O.3     1  UNL1       -0.4810
      5  H          7.2260    4.3790   -0.6470 H       1  UNL1        0.2960
      6  C          5.9420    1.3220    1.1130 C.3     1  UNL1        0.0470
      7  C          6.5820    0.2510    0.3450 C.2     1  UNL1       -0.0430
      8  C          6.5240    0.2200   -1.0400 C.2     1  UNL1        0.0080
      9  C          7.2260   -0.7770    0.9790 C.2     1  UNL1        0.0540
     10  C          7.0940   -0.8050   -1.7620 C.2     1  UNL1        0.0510
     11  C          7.8050   -1.8160    0.2750 C.2     1  UNL1        0.1660
     12  C          7.7420   -1.8330   -1.0970 C.2     1  UNL1        0.1650
     13  O          8.4950   -2.9390    0.6960 O.2     1  UNL1       -0.4540
     14  O          8.4050   -2.9880   -1.5170 O.2     1  UNL1       -0.4540
     15  C          8.6050   -3.8420   -0.4140 C.3     1  UNL1        0.4680
@<TRIPOS>BOND
     1    10    12    2
     2    10     8    1
     3    14    12    1
     4    14    15    1
     5    12    11    1
     6     8     7    2
     7     5     4    1
     8    15    13    1
     9     4     2    1
    10    11    13    1
    11    11     9    2
    12     7     9    1
    13     7     6    1
    14     1     2    1
    15     1     6    1
    16     2     3    2
