@<TRIPOS>MOLECULE
/home/cewinharhar/GITHUB/reincatalyze/data/processed/docking_pred/2023-May-17-1006_maxeplen10_maxtrainstep1000_seadep16_gamma099_lrac9e-4_lrcr1e-3_sub6/1a0a4210c7fbec369f44508687af2363e72d8760_ligand_6.pdbqt
 15 16 0 0 0
SMALL
GASTEIGER

@<TRIPOS>ATOM
      1  C          4.7370    1.8880    0.6980 C.3     1  UNL1        0.1270
      2  C          4.4140    1.1630    1.9160 C.2     1  UNL1        0.3030
      3  O          5.1270    0.3170    2.4590 O.2     1  UNL1       -0.2520
      4  O          3.1830    1.4490    2.5290 O.3     1  UNL1       -0.4810
      5  H          2.5110    0.6970    2.5510 H       1  UNL1        0.2960
      6  C          6.1700    2.2290    0.5650 C.3     1  UNL1        0.0470
      7  C          7.0100    1.3270   -0.2250 C.2     1  UNL1       -0.0430
      8  C          8.3620    1.5720   -0.4100 C.2     1  UNL1        0.0080
      9  C          6.4720    0.2280   -0.8410 C.2     1  UNL1        0.0540
     10  C          9.1460    0.7440   -1.1830 C.2     1  UNL1        0.0510
     11  C          7.2390   -0.6170   -1.6200 C.2     1  UNL1        0.1660
     12  C          8.5780   -0.3620   -1.7940 C.2     1  UNL1        0.1650
     13  O          6.9160   -1.7640   -2.3240 O.2     1  UNL1       -0.4540
     14  O          9.0770   -1.3730   -2.6170 O.2     1  UNL1       -0.4540
     15  C          8.0050   -2.0700   -3.2080 C.3     1  UNL1        0.4680
@<TRIPOS>BOND
     1    15    14    1
     2    15    13    1
     3    14    12    1
     4    13    11    1
     5    12    11    2
     6    12    10    1
     7    11     9    1
     8    10     8    2
     9     9     7    2
    10     8     7    1
    11     7     6    1
    12     6     1    1
    13     1     2    1
    14     2     3    2
    15     2     4    1
    16     4     5    1
