@<TRIPOS>MOLECULE
/home/cewinharhar/GITHUB/reincatalyze/data/processed/docking_pred/2023-May-17-1006_maxeplen10_maxtrainstep1000_seadep16_gamma099_lrac9e-4_lrcr1e-3_sub6/1a0a4210c7fbec369f44508687af2363e72d8760_ligand_6.pdbqt
 15 16 0 0 0
SMALL
GASTEIGER

@<TRIPOS>ATOM
      1  C          8.3090   -0.3120   -2.8320 C.3     1  UNL1        0.1270
      2  C          8.4710   -1.7390   -3.0640 C.2     1  UNL1        0.3030
      3  O          9.5370   -2.3550   -3.0290 O.2     1  UNL1       -0.2520
      4  O          7.3140   -2.4800   -3.3520 O.3     1  UNL1       -0.4810
      5  H          6.8490   -2.9030   -2.5630 H       1  UNL1        0.2960
      6  C          8.7590    0.1340   -1.4950 C.3     1  UNL1        0.0470
      7  C          7.7810    0.0970   -0.4050 C.2     1  UNL1       -0.0430
      8  C          7.7240   -0.9660    0.4820 C.2     1  UNL1        0.0080
      9  C          6.8640    1.1030   -0.2540 C.2     1  UNL1        0.0540
     10  C          6.7820   -1.0190    1.4850 C.2     1  UNL1        0.0510
     11  C          5.9100    1.0720    0.7460 C.2     1  UNL1        0.1660
     12  C          5.8660    0.0120    1.6180 C.2     1  UNL1        0.1650
     13  O          4.9030    1.9590    1.0820 O.2     1  UNL1       -0.4540
     14  O          4.8130    0.2590    2.5010 O.2     1  UNL1       -0.4540
     15  C          4.0100    1.3010    1.9940 C.3     1  UNL1        0.4680
@<TRIPOS>BOND
     1     4     2    1
     2     4     5    1
     3     2     3    2
     4     2     1    1
     5     1     6    1
     6     6     7    1
     7     7     9    2
     8     7     8    1
     9     9    11    1
    10     8    10    2
    11    11    13    1
    12    11    12    2
    13    13    15    1
    14    10    12    1
    15    12    14    1
    16    15    14    1
