MODEL 1
REMARK VINA RESULT:      -7.7      0.000      0.000
REMARK SMILES O=C(O)CCc1ccc2c(c1)OCO2
REMARK SMILES IDX 4 1 2 2 1 3 3 4 5 6 6 7 7 8 11 9 8 10 10 11 9 12 12 13 14 14
REMARK SMILES IDX 13 15
REMARK H PARENT 3 5
REMARK Flexibility Score: inf
ROOT
ATOM      1  C   UNL     1       5.432   2.892   0.077  1.00  0.00     0.127 C 
ENDROOT
BRANCH   1   2
ATOM      2  C   UNL     1       6.233   3.883   0.778  1.00  0.00     0.303 C 
ATOM      3  O   UNL     1       6.906   4.768   0.246  1.00  0.00    -0.252 OA
BRANCH   2   4
ATOM      4  O   UNL     1       6.243   3.828   2.180  1.00  0.00    -0.481 OA
ATOM      5  H   UNL     1       7.151   3.822   2.619  1.00  0.00     0.296 HD
ENDBRANCH   2   4
ENDBRANCH   1   2
BRANCH   1   6
ATOM      6  C   UNL     1       5.354   1.586   0.766  1.00  0.00     0.047 C 
BRANCH   6   7
ATOM      7  C   UNL     1       6.131   0.478   0.207  1.00  0.00    -0.043 A 
ATOM      8  C   UNL     1       6.565  -0.576   0.997  1.00  0.00     0.008 A 
ATOM      9  C   UNL     1       6.488   0.470  -1.116  1.00  0.00     0.054 A 
ATOM     10  C   UNL     1       7.326  -1.600   0.480  1.00  0.00     0.051 A 
ATOM     11  C   UNL     1       7.251  -0.547  -1.657  1.00  0.00     0.166 A 
ATOM     12  C   UNL     1       7.672  -1.586  -0.861  1.00  0.00     0.165 A 
ATOM     13  O   UNL     1       7.721  -0.760  -2.941  1.00  0.00    -0.454 OA
ATOM     14  O   UNL     1       8.412  -2.444  -1.677  1.00  0.00    -0.454 OA
ATOM     15  C   UNL     1       8.716  -1.794  -2.890  1.00  0.00     0.468 C 
ENDBRANCH   6   7
ENDBRANCH   1   6
TORSDOF 4
ENDMDL
MODEL 2
REMARK VINA RESULT:      -7.6      2.133      2.530
REMARK SMILES O=C(O)CCc1ccc2c(c1)OCO2
REMARK SMILES IDX 4 1 2 2 1 3 3 4 5 6 6 7 7 8 11 9 8 10 10 11 9 12 12 13 14 14
REMARK SMILES IDX 13 15
REMARK H PARENT 3 5
REMARK Flexibility Score: inf
ROOT
ATOM      1  C   UNL     1       4.737   1.888   0.698  1.00  0.00     0.127 C 
ENDROOT
BRANCH   1   2
ATOM      2  C   UNL     1       4.414   1.163   1.916  1.00  0.00     0.303 C 
ATOM      3  O   UNL     1       5.127   0.317   2.459  1.00  0.00    -0.252 OA
BRANCH   2   4
ATOM      4  O   UNL     1       3.183   1.449   2.529  1.00  0.00    -0.481 OA
ATOM      5  H   UNL     1       2.511   0.697   2.551  1.00  0.00     0.296 HD
ENDBRANCH   2   4
ENDBRANCH   1   2
BRANCH   1   6
ATOM      6  C   UNL     1       6.170   2.229   0.565  1.00  0.00     0.047 C 
BRANCH   6   7
ATOM      7  C   UNL     1       7.010   1.327  -0.225  1.00  0.00    -0.043 A 
ATOM      8  C   UNL     1       8.362   1.572  -0.410  1.00  0.00     0.008 A 
ATOM      9  C   UNL     1       6.472   0.228  -0.841  1.00  0.00     0.054 A 
ATOM     10  C   UNL     1       9.146   0.744  -1.183  1.00  0.00     0.051 A 
ATOM     11  C   UNL     1       7.239  -0.617  -1.620  1.00  0.00     0.166 A 
ATOM     12  C   UNL     1       8.578  -0.362  -1.794  1.00  0.00     0.165 A 
ATOM     13  O   UNL     1       6.916  -1.764  -2.324  1.00  0.00    -0.454 OA
ATOM     14  O   UNL     1       9.077  -1.373  -2.617  1.00  0.00    -0.454 OA
ATOM     15  C   UNL     1       8.005  -2.070  -3.208  1.00  0.00     0.468 C 
ENDBRANCH   6   7
ENDBRANCH   1   6
TORSDOF 4
ENDMDL
MODEL 3
REMARK VINA RESULT:      -7.5      1.805      5.292
REMARK SMILES O=C(O)CCc1ccc2c(c1)OCO2
REMARK SMILES IDX 4 1 2 2 1 3 3 4 5 6 6 7 7 8 11 9 8 10 10 11 9 12 12 13 14 14
REMARK SMILES IDX 13 15
REMARK H PARENT 3 5
REMARK Flexibility Score: inf
ROOT
ATOM      1  C   UNL     1       8.309  -0.312  -2.832  1.00  0.00     0.127 C 
ENDROOT
BRANCH   1   2
ATOM      2  C   UNL     1       8.471  -1.739  -3.064  1.00  0.00     0.303 C 
ATOM      3  O   UNL     1       9.537  -2.355  -3.029  1.00  0.00    -0.252 OA
BRANCH   2   4
ATOM      4  O   UNL     1       7.314  -2.480  -3.352  1.00  0.00    -0.481 OA
ATOM      5  H   UNL     1       6.849  -2.903  -2.563  1.00  0.00     0.296 HD
ENDBRANCH   2   4
ENDBRANCH   1   2
BRANCH   1   6
ATOM      6  C   UNL     1       8.759   0.134  -1.495  1.00  0.00     0.047 C 
BRANCH   6   7
ATOM      7  C   UNL     1       7.781   0.097  -0.405  1.00  0.00    -0.043 A 
ATOM      8  C   UNL     1       7.724  -0.966   0.482  1.00  0.00     0.008 A 
ATOM      9  C   UNL     1       6.864   1.103  -0.254  1.00  0.00     0.054 A 
ATOM     10  C   UNL     1       6.782  -1.019   1.485  1.00  0.00     0.051 A 
ATOM     11  C   UNL     1       5.910   1.072   0.746  1.00  0.00     0.166 A 
ATOM     12  C   UNL     1       5.866   0.012   1.618  1.00  0.00     0.165 A 
ATOM     13  O   UNL     1       4.903   1.959   1.082  1.00  0.00    -0.454 OA
ATOM     14  O   UNL     1       4.813   0.259   2.501  1.00  0.00    -0.454 OA
ATOM     15  C   UNL     1       4.010   1.301   1.994  1.00  0.00     0.468 C 
ENDBRANCH   6   7
ENDBRANCH   1   6
TORSDOF 4
ENDMDL
MODEL 4
REMARK VINA RESULT:      -7.4      1.988      2.961
REMARK SMILES O=C(O)CCc1ccc2c(c1)OCO2
REMARK SMILES IDX 4 1 2 2 1 3 3 4 5 6 6 7 7 8 11 9 8 10 10 11 9 12 12 13 14 14
REMARK SMILES IDX 13 15
REMARK H PARENT 3 5
REMARK Flexibility Score: inf
ROOT
ATOM      1  C   UNL     1       6.477   1.275   0.831  1.00  0.00     0.127 C 
ENDROOT
BRANCH   1   2
ATOM      2  C   UNL     1       5.251   1.159   1.605  1.00  0.00     0.303 C 
ATOM      3  O   UNL     1       5.018   0.297   2.454  1.00  0.00    -0.252 OA
BRANCH   2   4
ATOM      4  O   UNL     1       4.245   2.108   1.365  1.00  0.00    -0.481 OA
ATOM      5  H   UNL     1       4.084   2.781   2.099  1.00  0.00     0.296 HD
ENDBRANCH   2   4
ENDBRANCH   1   2
BRANCH   1   6
ATOM      6  C   UNL     1       6.323   0.915  -0.595  1.00  0.00     0.047 C 
BRANCH   6   7
ATOM      7  C   UNL     1       7.037  -0.271  -1.075  1.00  0.00    -0.043 A 
ATOM      8  C   UNL     1       7.271  -0.478  -2.426  1.00  0.00     0.008 A 
ATOM      9  C   UNL     1       7.462  -1.234  -0.199  1.00  0.00     0.054 A 
ATOM     10  C   UNL     1       7.910  -1.610  -2.881  1.00  0.00     0.051 A 
ATOM     11  C   UNL     1       8.106  -2.377  -0.634  1.00  0.00     0.166 A 
ATOM     12  C   UNL     1       8.332  -2.569  -1.975  1.00  0.00     0.165 A 
ATOM     13  O   UNL     1       8.614  -3.464   0.056  1.00  0.00    -0.454 OA
ATOM     14  O   UNL     1       8.989  -3.794  -2.102  1.00  0.00    -0.454 OA
ATOM     15  C   UNL     1       8.894  -4.506  -0.890  1.00  0.00     0.468 C 
ENDBRANCH   6   7
ENDBRANCH   1   6
TORSDOF 4
ENDMDL
