@<TRIPOS>MOLECULE
/home/cewinharhar/GITHUB/reincatalyze/data/processed/docking_pred/2023-May-17-1006_maxeplen10_maxtrainstep1000_seadep16_gamma099_lrac9e-4_lrcr1e-3_sub6/1a0a4210c7fbec369f44508687af2363e72d8760_ligand_6.pdbqt
 15 16 0 0 0
SMALL
GASTEIGER

@<TRIPOS>ATOM
      1  C          5.4320    2.8920    0.0770 C.3     1  UNL1        0.1270
      2  C          6.2330    3.8830    0.7780 C.2     1  UNL1        0.3030
      3  O          6.9060    4.7680    0.2460 O.2     1  UNL1       -0.2520
      4  O          6.2430    3.8280    2.1800 O.3     1  UNL1       -0.4810
      5  H          7.1510    3.8220    2.6190 H       1  UNL1        0.2960
      6  C          5.3540    1.5860    0.7660 C.3     1  UNL1        0.0470
      7  C          6.1310    0.4780    0.2070 C.2     1  UNL1       -0.0430
      8  C          6.5650   -0.5760    0.9970 C.2     1  UNL1        0.0080
      9  C          6.4880    0.4700   -1.1160 C.2     1  UNL1        0.0540
     10  C          7.3260   -1.6000    0.4800 C.2     1  UNL1        0.0510
     11  C          7.2510   -0.5470   -1.6570 C.2     1  UNL1        0.1660
     12  C          7.6720   -1.5860   -0.8610 C.2     1  UNL1        0.1650
     13  O          7.7210   -0.7600   -2.9410 O.2     1  UNL1       -0.4540
     14  O          8.4120   -2.4440   -1.6770 O.2     1  UNL1       -0.4540
     15  C          8.7160   -1.7940   -2.8900 C.3     1  UNL1        0.4680
@<TRIPOS>BOND
     1    13    15    1
     2    13    11    1
     3    15    14    1
     4    14    12    1
     5    11     9    1
     6    11    12    2
     7     9     7    2
     8    12    10    1
     9     1     6    1
    10     1     2    1
    11     7     6    1
    12     7     8    1
    13     3     2    2
    14    10     8    2
    15     2     4    1
    16     4     5    1
