@<TRIPOS>MOLECULE
/home/cewinharhar/GITHUB/reincatalyze/data/processed/docking_pred/2023-May-17-1006_maxeplen10_maxtrainstep1000_seadep16_gamma099_lrac9e-4_lrcr1e-3_sub6/1a0a4210c7fbec369f44508687af2363e72d8760_ligand_6.pdbqt
 15 16 0 0 0
SMALL
GASTEIGER

@<TRIPOS>ATOM
      1  C          6.4770    1.2750    0.8310 C.3     1  UNL1        0.1270
      2  C          5.2510    1.1590    1.6050 C.2     1  UNL1        0.3030
      3  O          5.0180    0.2970    2.4540 O.2     1  UNL1       -0.2520
      4  O          4.2450    2.1080    1.3650 O.3     1  UNL1       -0.4810
      5  H          4.0840    2.7810    2.0990 H       1  UNL1        0.2960
      6  C          6.3230    0.9150   -0.5950 C.3     1  UNL1        0.0470
      7  C          7.0370   -0.2710   -1.0750 C.2     1  UNL1       -0.0430
      8  C          7.2710   -0.4780   -2.4260 C.2     1  UNL1        0.0080
      9  C          7.4620   -1.2340   -0.1990 C.2     1  UNL1        0.0540
     10  C          7.9100   -1.6100   -2.8810 C.2     1  UNL1        0.0510
     11  C          8.1060   -2.3770   -0.6340 C.2     1  UNL1        0.1660
     12  C          8.3320   -2.5690   -1.9750 C.2     1  UNL1        0.1650
     13  O          8.6140   -3.4640    0.0560 O.2     1  UNL1       -0.4540
     14  O          8.9890   -3.7940   -2.1020 O.2     1  UNL1       -0.4540
     15  C          8.8940   -4.5060   -0.8900 C.3     1  UNL1        0.4680
@<TRIPOS>BOND
     1    10     8    1
     2    10    12    2
     3     8     7    2
     4    14    12    1
     5    14    15    1
     6    12    11    1
     7     7     6    1
     8     7     9    1
     9    15    13    1
    10    11     9    2
    11    11    13    1
    12     6     1    1
    13     1     2    1
    14     4     2    1
    15     4     5    1
    16     2     3    2
