@<TRIPOS>MOLECULE
/home/cewinharhar/GITHUB/reincatalyze/data/processed/docking_pred/2023-May-17-1006_maxeplen10_maxtrainstep1000_seadep16_gamma099_lrac9e-4_lrcr1e-3_sub6/1b5ae47dc41e9fd81b532b383f57e012b2e09fc7_ligand_6.pdbqt
 15 16 0 0 0
SMALL
GASTEIGER

@<TRIPOS>ATOM
      1  C          5.4140    2.8670    0.1280 C.3     1  UNL1        0.1270
      2  C          6.2420    3.8500    0.8090 C.2     1  UNL1        0.3030
      3  O          6.8810    4.7510    0.2630 O.2     1  UNL1       -0.2520
      4  O          6.3220    3.7670    2.2080 O.3     1  UNL1       -0.4810
      5  H          6.4530    2.8440    2.5930 H       1  UNL1        0.2960
      6  C          5.3470    1.5600    0.8160 C.3     1  UNL1        0.0470
      7  C          6.1290    0.4570    0.2530 C.2     1  UNL1       -0.0430
      8  C          6.5880   -0.5840    1.0450 C.2     1  UNL1        0.0080
      9  C          6.4650    0.4430   -1.0750 C.2     1  UNL1        0.0540
     10  C          7.3540   -1.6030    0.5240 C.2     1  UNL1        0.0510
     11  C          7.2330   -0.5690   -1.6190 C.2     1  UNL1        0.1660
     12  C          7.6790   -1.5950   -0.8230 C.2     1  UNL1        0.1650
     13  O          7.6860   -0.7860   -2.9090 O.2     1  UNL1       -0.4540
     14  O          8.4170   -2.4500   -1.6430 O.2     1  UNL1       -0.4540
     15  C          8.6940   -1.8060   -2.8650 C.3     1  UNL1        0.4680
@<TRIPOS>BOND
     1    13    15    1
     2    13    11    1
     3    15    14    1
     4    14    12    1
     5    11     9    1
     6    11    12    2
     7     9     7    2
     8    12    10    1
     9     1     2    1
    10     1     6    1
    11     7     6    1
    12     7     8    1
    13     3     2    2
    14    10     8    2
    15     2     4    1
    16     4     5    1
