@<TRIPOS>MOLECULE
/home/cewinharhar/GITHUB/reincatalyze/data/processed/docking_pred/2023-May-17-1006_maxeplen10_maxtrainstep1000_seadep16_gamma099_lrac9e-4_lrcr1e-3_sub6/1b5ae47dc41e9fd81b532b383f57e012b2e09fc7_ligand_6.pdbqt
 15 16 0 0 0
SMALL
GASTEIGER

@<TRIPOS>ATOM
      1  C          6.4310    1.3090    0.7530 C.3     1  UNL1        0.1270
      2  C          5.1790    1.3170    1.4930 C.2     1  UNL1        0.3030
      3  O          4.2640    2.1300    1.3460 O.2     1  UNL1       -0.2520
      4  O          4.9930    0.3150    2.4580 O.3     1  UNL1       -0.4810
      5  H          5.1130   -0.6350    2.1410 H       1  UNL1        0.2960
      6  C          6.2860    0.9220   -0.6670 C.3     1  UNL1        0.0470
      7  C          7.0180   -0.2620   -1.1240 C.2     1  UNL1       -0.0430
      8  C          7.2880   -0.4730   -2.4680 C.2     1  UNL1        0.0080
      9  C          7.4250   -1.2200   -0.2350 C.2     1  UNL1        0.0540
     10  C          7.9440   -1.6030   -2.9030 C.2     1  UNL1        0.0510
     11  C          8.0850   -2.3620   -0.6480 C.2     1  UNL1        0.1660
     12  C          8.3470   -2.5570   -1.9830 C.2     1  UNL1        0.1650
     13  O          8.5810   -3.4430    0.0580 O.2     1  UNL1       -0.4540
     14  O          9.0130   -3.7790   -2.0880 O.2     1  UNL1       -0.4540
     15  C          8.8910   -4.4870   -0.8770 C.3     1  UNL1        0.4680
@<TRIPOS>BOND
     1    10     8    1
     2    10    12    2
     3     8     7    2
     4    14    12    1
     5    14    15    1
     6    12    11    1
     7     7     6    1
     8     7     9    1
     9    15    13    1
    10     6     1    1
    11    11     9    2
    12    11    13    1
    13     1     2    1
    14     3     2    2
    15     2     4    1
    16     5     4    1
