MODEL 1
REMARK VINA RESULT:      -7.7      0.000      0.000
REMARK SMILES O=C(O)CCc1ccc2c(c1)OCO2
REMARK SMILES IDX 4 1 2 2 1 3 3 4 5 6 6 7 7 8 11 9 8 10 10 11 9 12 12 13 14 14
REMARK SMILES IDX 13 15
REMARK H PARENT 3 5
REMARK Flexibility Score: inf
ROOT
ATOM      1  C   UNL     1       5.414   2.867   0.128  1.00  0.00     0.127 C 
ENDROOT
BRANCH   1   2
ATOM      2  C   UNL     1       6.242   3.850   0.809  1.00  0.00     0.303 C 
ATOM      3  O   UNL     1       6.881   4.751   0.263  1.00  0.00    -0.252 OA
BRANCH   2   4
ATOM      4  O   UNL     1       6.322   3.767   2.208  1.00  0.00    -0.481 OA
ATOM      5  H   UNL     1       6.453   2.844   2.593  1.00  0.00     0.296 HD
ENDBRANCH   2   4
ENDBRANCH   1   2
BRANCH   1   6
ATOM      6  C   UNL     1       5.347   1.560   0.816  1.00  0.00     0.047 C 
BRANCH   6   7
ATOM      7  C   UNL     1       6.129   0.457   0.253  1.00  0.00    -0.043 A 
ATOM      8  C   UNL     1       6.588  -0.584   1.045  1.00  0.00     0.008 A 
ATOM      9  C   UNL     1       6.465   0.443  -1.075  1.00  0.00     0.054 A 
ATOM     10  C   UNL     1       7.354  -1.603   0.524  1.00  0.00     0.051 A 
ATOM     11  C   UNL     1       7.233  -0.569  -1.619  1.00  0.00     0.166 A 
ATOM     12  C   UNL     1       7.679  -1.595  -0.823  1.00  0.00     0.165 A 
ATOM     13  O   UNL     1       7.686  -0.786  -2.909  1.00  0.00    -0.454 OA
ATOM     14  O   UNL     1       8.417  -2.450  -1.643  1.00  0.00    -0.454 OA
ATOM     15  C   UNL     1       8.694  -1.806  -2.865  1.00  0.00     0.468 C 
ENDBRANCH   6   7
ENDBRANCH   1   6
TORSDOF 4
ENDMDL
MODEL 2
REMARK VINA RESULT:      -7.6      2.136      2.514
REMARK SMILES O=C(O)CCc1ccc2c(c1)OCO2
REMARK SMILES IDX 4 1 2 2 1 3 3 4 5 6 6 7 7 8 11 9 8 10 10 11 9 12 12 13 14 14
REMARK SMILES IDX 13 15
REMARK H PARENT 3 5
REMARK Flexibility Score: inf
ROOT
ATOM      1  C   UNL     1       4.701   1.879   0.678  1.00  0.00     0.127 C 
ENDROOT
BRANCH   1   2
ATOM      2  C   UNL     1       4.384   1.174   1.910  1.00  0.00     0.303 C 
ATOM      3  O   UNL     1       5.099   0.336   2.462  1.00  0.00    -0.252 OA
BRANCH   2   4
ATOM      4  O   UNL     1       3.158   1.473   2.526  1.00  0.00    -0.481 OA
ATOM      5  H   UNL     1       2.346   1.469   1.928  1.00  0.00     0.296 HD
ENDBRANCH   2   4
ENDBRANCH   1   2
BRANCH   1   6
ATOM      6  C   UNL     1       6.130   2.233   0.540  1.00  0.00     0.047 C 
BRANCH   6   7
ATOM      7  C   UNL     1       6.979   1.328  -0.238  1.00  0.00    -0.043 A 
ATOM      8  C   UNL     1       8.342   1.546  -0.367  1.00  0.00     0.008 A 
ATOM      9  C   UNL     1       6.441   0.255  -0.896  1.00  0.00     0.054 A 
ATOM     10  C   UNL     1       9.137   0.716  -1.127  1.00  0.00     0.051 A 
ATOM     11  C   UNL     1       7.218  -0.591  -1.664  1.00  0.00     0.166 A 
ATOM     12  C   UNL     1       8.568  -0.364  -1.782  1.00  0.00     0.165 A 
ATOM     13  O   UNL     1       6.897  -1.716  -2.404  1.00  0.00    -0.454 OA
ATOM     14  O   UNL     1       9.075  -1.368  -2.608  1.00  0.00    -0.454 OA
ATOM     15  C   UNL     1       8.011  -2.029  -3.253  1.00  0.00     0.468 C 
ENDBRANCH   6   7
ENDBRANCH   1   6
TORSDOF 4
ENDMDL
MODEL 3
REMARK VINA RESULT:      -7.5      0.964      2.126
REMARK SMILES O=C(O)CCc1ccc2c(c1)OCO2
REMARK SMILES IDX 4 1 2 2 1 3 3 4 5 6 6 7 7 8 11 9 8 10 10 11 9 12 12 13 14 14
REMARK SMILES IDX 13 15
REMARK H PARENT 3 5
REMARK Flexibility Score: inf
ROOT
ATOM      1  C   UNL     1       5.417   2.738   0.155  1.00  0.00     0.127 C 
ENDROOT
BRANCH   1   2
ATOM      2  C   UNL     1       6.172   3.713   0.926  1.00  0.00     0.303 C 
ATOM      3  O   UNL     1       6.300   3.714   2.152  1.00  0.00    -0.252 OA
BRANCH   2   4
ATOM      4  O   UNL     1       6.811   4.741   0.216  1.00  0.00    -0.481 OA
ATOM      5  H   UNL     1       6.727   4.708  -0.788  1.00  0.00     0.296 HD
ENDBRANCH   2   4
ENDBRANCH   1   2
BRANCH   1   6
ATOM      6  C   UNL     1       5.381   1.390   0.761  1.00  0.00     0.047 C 
BRANCH   6   7
ATOM      7  C   UNL     1       6.231   0.357   0.165  1.00  0.00    -0.043 A 
ATOM      8  C   UNL     1       6.522   0.350  -1.190  1.00  0.00     0.008 A 
ATOM      9  C   UNL     1       6.736  -0.661   0.930  1.00  0.00     0.054 A 
ATOM     10  C   UNL     1       7.291  -0.641  -1.758  1.00  0.00     0.051 A 
ATOM     11  C   UNL     1       7.511  -1.666   0.382  1.00  0.00     0.166 A 
ATOM     12  C   UNL     1       7.791  -1.660  -0.963  1.00  0.00     0.165 A 
ATOM     13  O   UNL     1       8.116  -2.773   0.951  1.00  0.00    -0.454 OA
ATOM     14  O   UNL     1       8.581  -2.783  -1.215  1.00  0.00    -0.454 OA
ATOM     15  C   UNL     1       8.532  -3.651  -0.106  1.00  0.00     0.468 C 
ENDBRANCH   6   7
ENDBRANCH   1   6
TORSDOF 4
ENDMDL
MODEL 4
REMARK VINA RESULT:      -7.5      1.789      5.284
REMARK SMILES O=C(O)CCc1ccc2c(c1)OCO2
REMARK SMILES IDX 4 1 2 2 1 3 3 4 5 6 6 7 7 8 11 9 8 10 10 11 9 12 12 13 14 14
REMARK SMILES IDX 13 15
REMARK H PARENT 3 5
REMARK Flexibility Score: inf
ROOT
ATOM      1  C   UNL     1       8.320  -0.321  -2.822  1.00  0.00     0.127 C 
ENDROOT
BRANCH   1   2
ATOM      2  C   UNL     1       8.473  -1.748  -3.060  1.00  0.00     0.303 C 
ATOM      3  O   UNL     1       9.538  -2.369  -3.035  1.00  0.00    -0.252 OA
BRANCH   2   4
ATOM      4  O   UNL     1       7.311  -2.482  -3.343  1.00  0.00    -0.481 OA
ATOM      5  H   UNL     1       6.493  -1.945  -3.585  1.00  0.00     0.296 HD
ENDBRANCH   2   4
ENDBRANCH   1   2
BRANCH   1   6
ATOM      6  C   UNL     1       8.771   0.116  -1.483  1.00  0.00     0.047 C 
BRANCH   6   7
ATOM      7  C   UNL     1       7.791   0.085  -0.395  1.00  0.00    -0.043 A 
ATOM      8  C   UNL     1       7.726  -0.979   0.492  1.00  0.00     0.008 A 
ATOM      9  C   UNL     1       6.880   1.096  -0.245  1.00  0.00     0.054 A 
ATOM     10  C   UNL     1       6.782  -1.027   1.493  1.00  0.00     0.051 A 
ATOM     11  C   UNL     1       5.924   1.070   0.753  1.00  0.00     0.166 A 
ATOM     12  C   UNL     1       5.871   0.009   1.625  1.00  0.00     0.165 A 
ATOM     13  O   UNL     1       4.921   1.963   1.088  1.00  0.00    -0.454 OA
ATOM     14  O   UNL     1       4.818   0.263   2.505  1.00  0.00    -0.454 OA
ATOM     15  C   UNL     1       4.023   1.310   1.998  1.00  0.00     0.468 C 
ENDBRANCH   6   7
ENDBRANCH   1   6
TORSDOF 4
ENDMDL
MODEL 5
REMARK VINA RESULT:      -7.4      1.958      2.857
REMARK SMILES O=C(O)CCc1ccc2c(c1)OCO2
REMARK SMILES IDX 4 1 2 2 1 3 3 4 5 6 6 7 7 8 11 9 8 10 10 11 9 12 12 13 14 14
REMARK SMILES IDX 13 15
REMARK H PARENT 3 5
REMARK Flexibility Score: inf
ROOT
ATOM      1  C   UNL     1       6.431   1.309   0.753  1.00  0.00     0.127 C 
ENDROOT
BRANCH   1   2
ATOM      2  C   UNL     1       5.179   1.317   1.493  1.00  0.00     0.303 C 
ATOM      3  O   UNL     1       4.264   2.130   1.346  1.00  0.00    -0.252 OA
BRANCH   2   4
ATOM      4  O   UNL     1       4.993   0.315   2.458  1.00  0.00    -0.481 OA
ATOM      5  H   UNL     1       5.113  -0.635   2.141  1.00  0.00     0.296 HD
ENDBRANCH   2   4
ENDBRANCH   1   2
BRANCH   1   6
ATOM      6  C   UNL     1       6.286   0.922  -0.667  1.00  0.00     0.047 C 
BRANCH   6   7
ATOM      7  C   UNL     1       7.018  -0.262  -1.124  1.00  0.00    -0.043 A 
ATOM      8  C   UNL     1       7.288  -0.473  -2.468  1.00  0.00     0.008 A 
ATOM      9  C   UNL     1       7.425  -1.220  -0.235  1.00  0.00     0.054 A 
ATOM     10  C   UNL     1       7.944  -1.603  -2.903  1.00  0.00     0.051 A 
ATOM     11  C   UNL     1       8.085  -2.362  -0.648  1.00  0.00     0.166 A 
ATOM     12  C   UNL     1       8.347  -2.557  -1.983  1.00  0.00     0.165 A 
ATOM     13  O   UNL     1       8.581  -3.443   0.058  1.00  0.00    -0.454 OA
ATOM     14  O   UNL     1       9.013  -3.779  -2.088  1.00  0.00    -0.454 OA
ATOM     15  C   UNL     1       8.891  -4.487  -0.877  1.00  0.00     0.468 C 
ENDBRANCH   6   7
ENDBRANCH   1   6
TORSDOF 4
ENDMDL
