@<TRIPOS>MOLECULE
/home/cewinharhar/GITHUB/reincatalyze/data/processed/docking_pred/2023-May-17-1006_maxeplen10_maxtrainstep1000_seadep16_gamma099_lrac9e-4_lrcr1e-3_sub6/1b5ae47dc41e9fd81b532b383f57e012b2e09fc7_ligand_6.pdbqt
 15 16 0 0 0
SMALL
GASTEIGER

@<TRIPOS>ATOM
      1  C          5.4170    2.7380    0.1550 C.3     1  UNL1        0.1270
      2  C          6.1720    3.7130    0.9260 C.2     1  UNL1        0.3030
      3  O          6.3000    3.7140    2.1520 O.2     1  UNL1       -0.2520
      4  O          6.8110    4.7410    0.2160 O.3     1  UNL1       -0.4810
      5  H          6.7270    4.7080   -0.7880 H       1  UNL1        0.2960
      6  C          5.3810    1.3900    0.7610 C.3     1  UNL1        0.0470
      7  C          6.2310    0.3570    0.1650 C.2     1  UNL1       -0.0430
      8  C          6.5220    0.3500   -1.1900 C.2     1  UNL1        0.0080
      9  C          6.7360   -0.6610    0.9300 C.2     1  UNL1        0.0540
     10  C          7.2910   -0.6410   -1.7580 C.2     1  UNL1        0.0510
     11  C          7.5110   -1.6660    0.3820 C.2     1  UNL1        0.1660
     12  C          7.7910   -1.6600   -0.9630 C.2     1  UNL1        0.1650
     13  O          8.1160   -2.7730    0.9510 O.2     1  UNL1       -0.4540
     14  O          8.5810   -2.7830   -1.2150 O.2     1  UNL1       -0.4540
     15  C          8.5320   -3.6510   -0.1060 C.3     1  UNL1        0.4680
@<TRIPOS>BOND
     1    10     8    1
     2    10    12    2
     3    14    12    1
     4    14    15    1
     5     8     7    2
     6    12    11    1
     7     5     4    1
     8    15    13    1
     9     1     6    1
    10     1     2    1
    11     7     6    1
    12     7     9    1
    13     4     2    1
    14    11     9    2
    15    11    13    1
    16     2     3    2
