@<TRIPOS>MOLECULE
/home/cewinharhar/GITHUB/reincatalyze/data/processed/docking_pred/2023-May-17-1006_maxeplen10_maxtrainstep1000_seadep16_gamma099_lrac9e-4_lrcr1e-3_sub6/1b5ae47dc41e9fd81b532b383f57e012b2e09fc7_ligand_6.pdbqt
 15 16 0 0 0
SMALL
GASTEIGER

@<TRIPOS>ATOM
      1  C          4.7010    1.8790    0.6780 C.3     1  UNL1        0.1270
      2  C          4.3840    1.1740    1.9100 C.2     1  UNL1        0.3030
      3  O          5.0990    0.3360    2.4620 O.2     1  UNL1       -0.2520
      4  O          3.1580    1.4730    2.5260 O.3     1  UNL1       -0.4810
      5  H          2.3460    1.4690    1.9280 H       1  UNL1        0.2960
      6  C          6.1300    2.2330    0.5400 C.3     1  UNL1        0.0470
      7  C          6.9790    1.3280   -0.2380 C.2     1  UNL1       -0.0430
      8  C          8.3420    1.5460   -0.3670 C.2     1  UNL1        0.0080
      9  C          6.4410    0.2550   -0.8960 C.2     1  UNL1        0.0540
     10  C          9.1370    0.7160   -1.1270 C.2     1  UNL1        0.0510
     11  C          7.2180   -0.5910   -1.6640 C.2     1  UNL1        0.1660
     12  C          8.5680   -0.3640   -1.7820 C.2     1  UNL1        0.1650
     13  O          6.8970   -1.7160   -2.4040 O.2     1  UNL1       -0.4540
     14  O          9.0750   -1.3680   -2.6080 O.2     1  UNL1       -0.4540
     15  C          8.0110   -2.0290   -3.2530 C.3     1  UNL1        0.4680
@<TRIPOS>BOND
     1    15    14    1
     2    15    13    1
     3    14    12    1
     4    13    11    1
     5    12    11    2
     6    12    10    1
     7    11     9    1
     8    10     8    2
     9     9     7    2
    10     8     7    1
    11     7     6    1
    12     6     1    1
    13     1     2    1
    14     2     3    2
    15     2     4    1
    16     5     4    1
