@<TRIPOS>MOLECULE
/home/cewinharhar/GITHUB/reincatalyze/data/processed/docking_pred/2023-May-17-1006_maxeplen10_maxtrainstep1000_seadep16_gamma099_lrac9e-4_lrcr1e-3_sub6/1b5ae47dc41e9fd81b532b383f57e012b2e09fc7_ligand_6.pdbqt
 15 16 0 0 0
SMALL
GASTEIGER

@<TRIPOS>ATOM
      1  C          8.3200   -0.3210   -2.8220 C.3     1  UNL1        0.1270
      2  C          8.4730   -1.7480   -3.0600 C.2     1  UNL1        0.3030
      3  O          9.5380   -2.3690   -3.0350 O.2     1  UNL1       -0.2520
      4  O          7.3110   -2.4820   -3.3430 O.3     1  UNL1       -0.4810
      5  H          6.4930   -1.9450   -3.5850 H       1  UNL1        0.2960
      6  C          8.7710    0.1160   -1.4830 C.3     1  UNL1        0.0470
      7  C          7.7910    0.0850   -0.3950 C.2     1  UNL1       -0.0430
      8  C          7.7260   -0.9790    0.4920 C.2     1  UNL1        0.0080
      9  C          6.8800    1.0960   -0.2450 C.2     1  UNL1        0.0540
     10  C          6.7820   -1.0270    1.4930 C.2     1  UNL1        0.0510
     11  C          5.9240    1.0700    0.7530 C.2     1  UNL1        0.1660
     12  C          5.8710    0.0090    1.6250 C.2     1  UNL1        0.1650
     13  O          4.9210    1.9630    1.0880 O.2     1  UNL1       -0.4540
     14  O          4.8180    0.2630    2.5050 O.2     1  UNL1       -0.4540
     15  C          4.0230    1.3100    1.9980 C.3     1  UNL1        0.4680
@<TRIPOS>BOND
     1     5     4    1
     2     4     2    1
     3     2     3    2
     4     2     1    1
     5     1     6    1
     6     6     7    1
     7     7     9    2
     8     7     8    1
     9     9    11    1
    10     8    10    2
    11    11    13    1
    12    11    12    2
    13    13    15    1
    14    10    12    1
    15    12    14    1
    16    15    14    1
