@<TRIPOS>MOLECULE
/home/cewinharhar/GITHUB/reincatalyze/data/processed/docking_pred/2023-May-17-1006_maxeplen10_maxtrainstep1000_seadep16_gamma099_lrac9e-4_lrcr1e-3_sub6/1c0c8a91d3eae7937fa2398dc61f909c50ab5738_ligand_6.pdbqt
 15 16 0 0 0
SMALL
GASTEIGER

@<TRIPOS>ATOM
      1  C          4.6840    1.8350    0.6850 C.3     1  UNL1        0.1270
      2  C          4.3920    1.1400    1.9280 C.2     1  UNL1        0.3030
      3  O          5.1270    0.3190    2.4810 O.2     1  UNL1       -0.2520
      4  O          3.1690    1.4260    2.5540 O.3     1  UNL1       -0.4810
      5  H          2.4510    0.7220    2.4730 H       1  UNL1        0.2960
      6  C          6.1040    2.2180    0.5310 C.3     1  UNL1        0.0470
      7  C          6.9690    1.3180   -0.2360 C.2     1  UNL1       -0.0430
      8  C          8.3280    1.5570   -0.3670 C.2     1  UNL1        0.0080
      9  C          6.4490    0.2280   -0.8810 C.2     1  UNL1        0.0540
     10  C          9.1360    0.7320   -1.1170 C.2     1  UNL1        0.0510
     11  C          7.2400   -0.6140   -1.6390 C.2     1  UNL1        0.1660
     12  C          8.5860   -0.3650   -1.7590 C.2     1  UNL1        0.1650
     13  O          6.9380   -1.7530   -2.3650 O.2     1  UNL1       -0.4540
     14  O          9.1100   -1.3710   -2.5730 O.2     1  UNL1       -0.4540
     15  C          8.0570   -2.0570   -3.2110 C.3     1  UNL1        0.4680
@<TRIPOS>BOND
     1    15    14    1
     2    15    13    1
     3    14    12    1
     4    13    11    1
     5    12    11    2
     6    12    10    1
     7    11     9    1
     8    10     8    2
     9     9     7    2
    10     8     7    1
    11     7     6    1
    12     6     1    1
    13     1     2    1
    14     2     3    2
    15     2     4    1
    16     5     4    1
