MODEL 1
REMARK VINA RESULT:      -7.7      0.000      0.000
REMARK SMILES O=C(O)CCc1ccc2c(c1)OCO2
REMARK SMILES IDX 4 1 2 2 1 3 3 4 5 6 6 7 7 8 11 9 8 10 10 11 9 12 12 13 14 14
REMARK SMILES IDX 13 15
REMARK H PARENT 3 5
REMARK Flexibility Score: inf
ROOT
ATOM      1  C   UNL     1       5.416   2.871   0.123  1.00  0.00     0.127 C 
ENDROOT
BRANCH   1   2
ATOM      2  C   UNL     1       6.242   3.855   0.806  1.00  0.00     0.303 C 
ATOM      3  O   UNL     1       6.875   4.761   0.262  1.00  0.00    -0.252 OA
BRANCH   2   4
ATOM      4  O   UNL     1       6.328   3.766   2.204  1.00  0.00    -0.481 OA
ATOM      5  H   UNL     1       5.672   3.144   2.651  1.00  0.00     0.296 HD
ENDBRANCH   2   4
ENDBRANCH   1   2
BRANCH   1   6
ATOM      6  C   UNL     1       5.348   1.564   0.811  1.00  0.00     0.047 C 
BRANCH   6   7
ATOM      7  C   UNL     1       6.131   0.461   0.250  1.00  0.00    -0.043 A 
ATOM      8  C   UNL     1       6.593  -0.578   1.043  1.00  0.00     0.008 A 
ATOM      9  C   UNL     1       6.465   0.445  -1.079  1.00  0.00     0.054 A 
ATOM     10  C   UNL     1       7.360  -1.596   0.524  1.00  0.00     0.051 A 
ATOM     11  C   UNL     1       7.233  -0.568  -1.622  1.00  0.00     0.166 A 
ATOM     12  C   UNL     1       7.683  -1.591  -0.824  1.00  0.00     0.165 A 
ATOM     13  O   UNL     1       7.684  -0.787  -2.912  1.00  0.00    -0.454 OA
ATOM     14  O   UNL     1       8.421  -2.447  -1.643  1.00  0.00    -0.454 OA
ATOM     15  C   UNL     1       8.695  -1.806  -2.867  1.00  0.00     0.468 C 
ENDBRANCH   6   7
ENDBRANCH   1   6
TORSDOF 4
ENDMDL
MODEL 2
REMARK VINA RESULT:      -7.6      2.133      2.521
REMARK SMILES O=C(O)CCc1ccc2c(c1)OCO2
REMARK SMILES IDX 4 1 2 2 1 3 3 4 5 6 6 7 7 8 11 9 8 10 10 11 9 12 12 13 14 14
REMARK SMILES IDX 13 15
REMARK H PARENT 3 5
REMARK Flexibility Score: inf
ROOT
ATOM      1  C   UNL     1       4.684   1.835   0.685  1.00  0.00     0.127 C 
ENDROOT
BRANCH   1   2
ATOM      2  C   UNL     1       4.392   1.140   1.928  1.00  0.00     0.303 C 
ATOM      3  O   UNL     1       5.127   0.319   2.481  1.00  0.00    -0.252 OA
BRANCH   2   4
ATOM      4  O   UNL     1       3.169   1.426   2.554  1.00  0.00    -0.481 OA
ATOM      5  H   UNL     1       2.451   0.722   2.473  1.00  0.00     0.296 HD
ENDBRANCH   2   4
ENDBRANCH   1   2
BRANCH   1   6
ATOM      6  C   UNL     1       6.104   2.218   0.531  1.00  0.00     0.047 C 
BRANCH   6   7
ATOM      7  C   UNL     1       6.969   1.318  -0.236  1.00  0.00    -0.043 A 
ATOM      8  C   UNL     1       8.328   1.557  -0.367  1.00  0.00     0.008 A 
ATOM      9  C   UNL     1       6.449   0.228  -0.881  1.00  0.00     0.054 A 
ATOM     10  C   UNL     1       9.136   0.732  -1.117  1.00  0.00     0.051 A 
ATOM     11  C   UNL     1       7.240  -0.614  -1.639  1.00  0.00     0.166 A 
ATOM     12  C   UNL     1       8.586  -0.365  -1.759  1.00  0.00     0.165 A 
ATOM     13  O   UNL     1       6.938  -1.753  -2.365  1.00  0.00    -0.454 OA
ATOM     14  O   UNL     1       9.110  -1.371  -2.573  1.00  0.00    -0.454 OA
ATOM     15  C   UNL     1       8.057  -2.057  -3.211  1.00  0.00     0.468 C 
ENDBRANCH   6   7
ENDBRANCH   1   6
TORSDOF 4
ENDMDL
MODEL 3
REMARK VINA RESULT:      -7.5      1.798      5.286
REMARK SMILES O=C(O)CCc1ccc2c(c1)OCO2
REMARK SMILES IDX 4 1 2 2 1 3 3 4 5 6 6 7 7 8 11 9 8 10 10 11 9 12 12 13 14 14
REMARK SMILES IDX 13 15
REMARK H PARENT 3 5
REMARK Flexibility Score: inf
ROOT
ATOM      1  C   UNL     1       8.285  -0.329  -2.847  1.00  0.00     0.127 C 
ENDROOT
BRANCH   1   2
ATOM      2  C   UNL     1       8.456  -1.755  -3.076  1.00  0.00     0.303 C 
ATOM      3  O   UNL     1       9.527  -2.364  -3.032  1.00  0.00    -0.252 OA
BRANCH   2   4
ATOM      4  O   UNL     1       7.307  -2.503  -3.374  1.00  0.00    -0.481 OA
ATOM      5  H   UNL     1       6.747  -2.791  -2.586  1.00  0.00     0.296 HD
ENDBRANCH   2   4
ENDBRANCH   1   2
BRANCH   1   6
ATOM      6  C   UNL     1       8.749   0.126  -1.518  1.00  0.00     0.047 C 
BRANCH   6   7
ATOM      7  C   UNL     1       7.784   0.094  -0.417  1.00  0.00    -0.043 A 
ATOM      8  C   UNL     1       7.750  -0.957   0.486  1.00  0.00     0.008 A 
ATOM      9  C   UNL     1       6.857   1.091  -0.269  1.00  0.00     0.054 A 
ATOM     10  C   UNL     1       6.820  -1.007   1.501  1.00  0.00     0.051 A 
ATOM     11  C   UNL     1       5.915   1.063   0.742  1.00  0.00     0.166 A 
ATOM     12  C   UNL     1       5.893   0.015   1.630  1.00  0.00     0.165 A 
ATOM     13  O   UNL     1       4.901   1.943   1.077  1.00  0.00    -0.454 OA
ATOM     14  O   UNL     1       4.847   0.263   2.521  1.00  0.00    -0.454 OA
ATOM     15  C   UNL     1       4.027   1.288   2.009  1.00  0.00     0.468 C 
ENDBRANCH   6   7
ENDBRANCH   1   6
TORSDOF 4
ENDMDL
MODEL 4
REMARK VINA RESULT:      -7.5      1.965      2.868
REMARK SMILES O=C(O)CCc1ccc2c(c1)OCO2
REMARK SMILES IDX 4 1 2 2 1 3 3 4 5 6 6 7 7 8 11 9 8 10 10 11 9 12 12 13 14 14
REMARK SMILES IDX 13 15
REMARK H PARENT 3 5
REMARK Flexibility Score: inf
ROOT
ATOM      1  C   UNL     1       6.422   1.295   0.739  1.00  0.00     0.127 C 
ENDROOT
BRANCH   1   2
ATOM      2  C   UNL     1       5.170   1.300   1.479  1.00  0.00     0.303 C 
ATOM      3  O   UNL     1       4.256   2.115   1.338  1.00  0.00    -0.252 OA
BRANCH   2   4
ATOM      4  O   UNL     1       4.984   0.291   2.437  1.00  0.00    -0.481 OA
ATOM      5  H   UNL     1       5.172   0.546   3.395  1.00  0.00     0.296 HD
ENDBRANCH   2   4
ENDBRANCH   1   2
BRANCH   1   6
ATOM      6  C   UNL     1       6.278   0.907  -0.681  1.00  0.00     0.047 C 
BRANCH   6   7
ATOM      7  C   UNL     1       7.010  -0.277  -1.137  1.00  0.00    -0.043 A 
ATOM      8  C   UNL     1       7.283  -0.488  -2.479  1.00  0.00     0.008 A 
ATOM      9  C   UNL     1       7.416  -1.235  -0.246  1.00  0.00     0.054 A 
ATOM     10  C   UNL     1       7.940  -1.618  -2.913  1.00  0.00     0.051 A 
ATOM     11  C   UNL     1       8.077  -2.377  -0.658  1.00  0.00     0.166 A 
ATOM     12  C   UNL     1       8.342  -2.572  -1.992  1.00  0.00     0.165 A 
ATOM     13  O   UNL     1       8.571  -3.459   0.049  1.00  0.00    -0.454 OA
ATOM     14  O   UNL     1       9.008  -3.794  -2.097  1.00  0.00    -0.454 OA
ATOM     15  C   UNL     1       8.883  -4.503  -0.885  1.00  0.00     0.468 C 
ENDBRANCH   6   7
ENDBRANCH   1   6
TORSDOF 4
ENDMDL
MODEL 5
REMARK VINA RESULT:      -7.4      1.050      2.146
REMARK SMILES O=C(O)CCc1ccc2c(c1)OCO2
REMARK SMILES IDX 4 1 2 2 1 3 3 4 5 6 6 7 7 8 11 9 8 10 10 11 9 12 12 13 14 14
REMARK SMILES IDX 13 15
REMARK H PARENT 3 5
REMARK Flexibility Score: inf
ROOT
ATOM      1  C   UNL     1       5.698   2.504   0.099  1.00  0.00     0.127 C 
ENDROOT
BRANCH   1   2
ATOM      2  C   UNL     1       6.253   3.593   0.888  1.00  0.00     0.303 C 
ATOM      3  O   UNL     1       6.262   3.655   2.119  1.00  0.00    -0.252 OA
BRANCH   2   4
ATOM      4  O   UNL     1       6.827   4.667   0.190  1.00  0.00    -0.481 OA
ATOM      5  H   UNL     1       6.373   5.562   0.298  1.00  0.00     0.296 HD
ENDBRANCH   2   4
ENDBRANCH   1   2
BRANCH   1   6
ATOM      6  C   UNL     1       5.764   1.186   0.766  1.00  0.00     0.047 C 
BRANCH   6   7
ATOM      7  C   UNL     1       6.506   0.121   0.088  1.00  0.00    -0.043 A 
ATOM      8  C   UNL     1       6.592   0.064  -1.295  1.00  0.00     0.008 A 
ATOM      9  C   UNL     1       7.107  -0.879   0.805  1.00  0.00     0.054 A 
ATOM     10  C   UNL     1       7.258  -0.957  -1.934  1.00  0.00     0.051 A 
ATOM     11  C   UNL     1       7.782  -1.913   0.185  1.00  0.00     0.166 A 
ATOM     12  C   UNL     1       7.860  -1.956  -1.186  1.00  0.00     0.165 A 
ATOM     13  O   UNL     1       8.454  -3.010   0.697  1.00  0.00    -0.454 OA
ATOM     14  O   UNL     1       8.592  -3.099  -1.513  1.00  0.00    -0.454 OA
ATOM     15  C   UNL     1       8.699  -3.928  -0.379  1.00  0.00     0.468 C 
ENDBRANCH   6   7
ENDBRANCH   1   6
TORSDOF 4
ENDMDL
