@<TRIPOS>MOLECULE
/home/cewinharhar/GITHUB/reincatalyze/data/processed/docking_pred/2023-May-17-1006_maxeplen10_maxtrainstep1000_seadep16_gamma099_lrac9e-4_lrcr1e-3_sub6/1c0c8a91d3eae7937fa2398dc61f909c50ab5738_ligand_6.pdbqt
 15 16 0 0 0
SMALL
GASTEIGER

@<TRIPOS>ATOM
      1  C          8.2850   -0.3290   -2.8470 C.3     1  UNL1        0.1270
      2  C          8.4560   -1.7550   -3.0760 C.2     1  UNL1        0.3030
      3  O          9.5270   -2.3640   -3.0320 O.2     1  UNL1       -0.2520
      4  O          7.3070   -2.5030   -3.3740 O.3     1  UNL1       -0.4810
      5  H          6.7470   -2.7910   -2.5860 H       1  UNL1        0.2960
      6  C          8.7490    0.1260   -1.5180 C.3     1  UNL1        0.0470
      7  C          7.7840    0.0940   -0.4170 C.2     1  UNL1       -0.0430
      8  C          7.7500   -0.9570    0.4860 C.2     1  UNL1        0.0080
      9  C          6.8570    1.0910   -0.2690 C.2     1  UNL1        0.0540
     10  C          6.8200   -1.0070    1.5010 C.2     1  UNL1        0.0510
     11  C          5.9150    1.0630    0.7420 C.2     1  UNL1        0.1660
     12  C          5.8930    0.0150    1.6300 C.2     1  UNL1        0.1650
     13  O          4.9010    1.9430    1.0770 O.2     1  UNL1       -0.4540
     14  O          4.8470    0.2630    2.5210 O.2     1  UNL1       -0.4540
     15  C          4.0270    1.2880    2.0090 C.3     1  UNL1        0.4680
@<TRIPOS>BOND
     1     4     2    1
     2     4     5    1
     3     2     3    2
     4     2     1    1
     5     1     6    1
     6     6     7    1
     7     7     9    2
     8     7     8    1
     9     9    11    1
    10     8    10    2
    11    11    13    1
    12    11    12    2
    13    13    15    1
    14    10    12    1
    15    12    14    1
    16    15    14    1
