@<TRIPOS>MOLECULE
/home/cewinharhar/GITHUB/reincatalyze/data/processed/docking_pred/2023-May-17-1006_maxeplen10_maxtrainstep1000_seadep16_gamma099_lrac9e-4_lrcr1e-3_sub6/1c0c8a91d3eae7937fa2398dc61f909c50ab5738_ligand_6.pdbqt
 15 16 0 0 0
SMALL
GASTEIGER

@<TRIPOS>ATOM
      1  C          6.4220    1.2950    0.7390 C.3     1  UNL1        0.1270
      2  C          5.1700    1.3000    1.4790 C.2     1  UNL1        0.3030
      3  O          4.2560    2.1150    1.3380 O.2     1  UNL1       -0.2520
      4  O          4.9840    0.2910    2.4370 O.3     1  UNL1       -0.4810
      5  H          5.1720    0.5460    3.3950 H       1  UNL1        0.2960
      6  C          6.2780    0.9070   -0.6810 C.3     1  UNL1        0.0470
      7  C          7.0100   -0.2770   -1.1370 C.2     1  UNL1       -0.0430
      8  C          7.2830   -0.4880   -2.4790 C.2     1  UNL1        0.0080
      9  C          7.4160   -1.2350   -0.2460 C.2     1  UNL1        0.0540
     10  C          7.9400   -1.6180   -2.9130 C.2     1  UNL1        0.0510
     11  C          8.0770   -2.3770   -0.6580 C.2     1  UNL1        0.1660
     12  C          8.3420   -2.5720   -1.9920 C.2     1  UNL1        0.1650
     13  O          8.5710   -3.4590    0.0490 O.2     1  UNL1       -0.4540
     14  O          9.0080   -3.7940   -2.0970 O.2     1  UNL1       -0.4540
     15  C          8.8830   -4.5030   -0.8850 C.3     1  UNL1        0.4680
@<TRIPOS>BOND
     1    10     8    1
     2    10    12    2
     3     8     7    2
     4    14    12    1
     5    14    15    1
     6    12    11    1
     7     7     6    1
     8     7     9    1
     9    15    13    1
    10     6     1    1
    11    11     9    2
    12    11    13    1
    13     1     2    1
    14     3     2    2
    15     2     4    1
    16     4     5    1
