@<TRIPOS>MOLECULE
/home/cewinharhar/GITHUB/reincatalyze/data/processed/docking_pred/2023-May-17-1006_maxeplen10_maxtrainstep1000_seadep16_gamma099_lrac9e-4_lrcr1e-3_sub6/1c0c8a91d3eae7937fa2398dc61f909c50ab5738_ligand_6.pdbqt
 15 16 0 0 0
SMALL
GASTEIGER

@<TRIPOS>ATOM
      1  C          5.6980    2.5040    0.0990 C.3     1  UNL1        0.1270
      2  C          6.2530    3.5930    0.8880 C.2     1  UNL1        0.3030
      3  O          6.2620    3.6550    2.1190 O.2     1  UNL1       -0.2520
      4  O          6.8270    4.6670    0.1900 O.3     1  UNL1       -0.4810
      5  H          6.3730    5.5620    0.2980 H       1  UNL1        0.2960
      6  C          5.7640    1.1860    0.7660 C.3     1  UNL1        0.0470
      7  C          6.5060    0.1210    0.0880 C.2     1  UNL1       -0.0430
      8  C          6.5920    0.0640   -1.2950 C.2     1  UNL1        0.0080
      9  C          7.1070   -0.8790    0.8050 C.2     1  UNL1        0.0540
     10  C          7.2580   -0.9570   -1.9340 C.2     1  UNL1        0.0510
     11  C          7.7820   -1.9130    0.1850 C.2     1  UNL1        0.1660
     12  C          7.8600   -1.9560   -1.1860 C.2     1  UNL1        0.1650
     13  O          8.4540   -3.0100    0.6970 O.2     1  UNL1       -0.4540
     14  O          8.5920   -3.0990   -1.5130 O.2     1  UNL1       -0.4540
     15  C          8.6990   -3.9280   -0.3790 C.3     1  UNL1        0.4680
@<TRIPOS>BOND
     1    10     8    1
     2    10    12    2
     3    14    12    1
     4    14    15    1
     5     8     7    2
     6    12    11    1
     7    15    13    1
     8     7     6    1
     9     7     9    1
    10     1     6    1
    11     1     2    1
    12    11    13    1
    13    11     9    2
    14     4     5    1
    15     4     2    1
    16     2     3    2
