@<TRIPOS>MOLECULE
/home/cewinharhar/GITHUB/reincatalyze/data/processed/docking_pred/2023-May-17-1006_maxeplen10_maxtrainstep1000_seadep16_gamma099_lrac9e-4_lrcr1e-3_sub6/1c86ade130d2cc9f902dffb19ba95248752a952e_ligand_6.pdbqt
 15 16 0 0 0
SMALL
GASTEIGER

@<TRIPOS>ATOM
      1  C          8.2980   -0.3150   -2.8540 C.3     1  UNL1        0.1270
      2  C          8.4640   -1.7440   -3.0670 C.2     1  UNL1        0.3030
      3  O          9.5320   -2.3560   -3.0210 O.2     1  UNL1       -0.2520
      4  O          7.3100   -2.4910   -3.3510 O.3     1  UNL1       -0.4810
      5  H          7.2730   -2.9240   -4.2610 H       1  UNL1        0.2960
      6  C          8.7560    0.1510   -1.5270 C.3     1  UNL1        0.0470
      7  C          7.7910    0.1130   -0.4260 C.2     1  UNL1       -0.0430
      8  C          7.7540   -0.9450    0.4690 C.2     1  UNL1        0.0080
      9  C          6.8650    1.1110   -0.2710 C.2     1  UNL1        0.0540
     10  C          6.8250   -0.9990    1.4840 C.2     1  UNL1        0.0510
     11  C          5.9230    1.0770    0.7390 C.2     1  UNL1        0.1660
     12  C          5.9000    0.0230    1.6200 C.2     1  UNL1        0.1650
     13  O          4.9110    1.9570    1.0810 O.2     1  UNL1       -0.4540
     14  O          4.8540    0.2670    2.5130 O.2     1  UNL1       -0.4540
     15  C          4.0360    1.2970    2.0080 C.3     1  UNL1        0.4680
@<TRIPOS>BOND
     1     5     4    1
     2     4     2    1
     3     2     3    2
     4     2     1    1
     5     1     6    1
     6     6     7    1
     7     7     9    2
     8     7     8    1
     9     9    11    1
    10     8    10    2
    11    11    13    1
    12    11    12    2
    13    13    15    1
    14    10    12    1
    15    12    14    1
    16    15    14    1
