@<TRIPOS>MOLECULE
/home/cewinharhar/GITHUB/reincatalyze/data/processed/docking_pred/2023-May-17-1006_maxeplen10_maxtrainstep1000_seadep16_gamma099_lrac9e-4_lrcr1e-3_sub6/1c86ade130d2cc9f902dffb19ba95248752a952e_ligand_6.pdbqt
 15 16 0 0 0
SMALL
GASTEIGER

@<TRIPOS>ATOM
      1  C          5.3990    2.7580    0.1780 C.3     1  UNL1        0.1270
      2  C          6.1480    3.7550    0.9260 C.2     1  UNL1        0.3030
      3  O          6.2040    3.8370    2.1540 O.2     1  UNL1       -0.2520
      4  O          6.8700    4.7060    0.1890 O.3     1  UNL1       -0.4810
      5  H          6.5720    5.6650    0.2870 H       1  UNL1        0.2960
      6  C          5.3980    1.4160    0.7990 C.3     1  UNL1        0.0470
      7  C          6.2200    0.3790    0.1720 C.2     1  UNL1       -0.0430
      8  C          6.4350    0.3530   -1.1970 C.2     1  UNL1        0.0080
      9  C          6.7730   -0.6250    0.9220 C.2     1  UNL1        0.0540
     10  C          7.1770   -0.6420   -1.7920 C.2     1  UNL1        0.0510
     11  C          7.5220   -1.6340    0.3470 C.2     1  UNL1        0.1660
     12  C          7.7270   -1.6460   -1.0120 C.2     1  UNL1        0.1650
     13  O          8.1650   -2.7290    0.8970 O.2     1  UNL1       -0.4540
     14  O          8.5080   -2.7690   -1.2910 O.2     1  UNL1       -0.4540
     15  C          8.5270   -3.6200   -0.1690 C.3     1  UNL1        0.4680
@<TRIPOS>BOND
     1    10     8    1
     2    10    12    2
     3    14    12    1
     4    14    15    1
     5     8     7    2
     6    12    11    1
     7    15    13    1
     8     7     6    1
     9     7     9    1
    10     1     6    1
    11     1     2    1
    12     4     5    1
    13     4     2    1
    14    11    13    1
    15    11     9    2
    16     2     3    2
