@<TRIPOS>MOLECULE
/home/cewinharhar/GITHUB/reincatalyze/data/processed/docking_pred/2023-May-17-1006_maxeplen10_maxtrainstep1000_seadep16_gamma099_lrac9e-4_lrcr1e-3_sub6/1c86ade130d2cc9f902dffb19ba95248752a952e_ligand_6.pdbqt
 15 16 0 0 0
SMALL
GASTEIGER

@<TRIPOS>ATOM
      1  C          6.4230    1.3620    0.6710 C.3     1  UNL1        0.1270
      2  C          5.2040    1.3470    1.4640 C.2     1  UNL1        0.3030
      3  O          4.2590    2.1290    1.3410 O.2     1  UNL1       -0.2520
      4  O          5.0920    0.3590    2.4540 O.3     1  UNL1       -0.4810
      5  H          4.1570    0.1520    2.7720 H       1  UNL1        0.2960
      6  C          6.2380    0.9040   -0.7230 C.3     1  UNL1        0.0470
      7  C          6.9860   -0.2800   -1.1510 C.2     1  UNL1       -0.0430
      8  C          7.2830   -0.5070   -2.4860 C.2     1  UNL1        0.0080
      9  C          7.3840   -1.2240   -0.2410 C.2     1  UNL1        0.0540
     10  C          7.9550   -1.6380   -2.8940 C.2     1  UNL1        0.0510
     11  C          8.0590   -2.3660   -0.6270 C.2     1  UNL1        0.1660
     12  C          8.3480   -2.5770   -1.9540 C.2     1  UNL1        0.1650
     13  O          8.5490   -3.4350    0.1030 O.2     1  UNL1       -0.4540
     14  O          9.0240   -3.7960   -2.0310 O.2     1  UNL1       -0.4540
     15  C          8.8840   -4.4890   -0.8130 C.3     1  UNL1        0.4680
@<TRIPOS>BOND
     1    10     8    1
     2    10    12    2
     3     8     7    2
     4    14    12    1
     5    14    15    1
     6    12    11    1
     7     7     6    1
     8     7     9    1
     9    15    13    1
    10     6     1    1
    11    11     9    2
    12    11    13    1
    13     1     2    1
    14     3     2    2
    15     2     4    1
    16     4     5    1
