MODEL 1
REMARK VINA RESULT:      -7.7      0.000      0.000
REMARK SMILES O=C(O)CCc1ccc2c(c1)OCO2
REMARK SMILES IDX 4 1 2 2 1 3 3 4 5 6 6 7 7 8 11 9 8 10 10 11 9 12 12 13 14 14
REMARK SMILES IDX 13 15
REMARK H PARENT 3 5
REMARK Flexibility Score: inf
ROOT
ATOM      1  C   UNL     1       5.418   2.873   0.117  1.00  0.00     0.127 C 
ENDROOT
BRANCH   1   2
ATOM      2  C   UNL     1       6.250   3.853   0.797  1.00  0.00     0.303 C 
ATOM      3  O   UNL     1       6.875   4.765   0.252  1.00  0.00    -0.252 OA
BRANCH   2   4
ATOM      4  O   UNL     1       6.351   3.755   2.193  1.00  0.00    -0.481 OA
ATOM      5  H   UNL     1       5.893   4.479   2.725  1.00  0.00     0.296 HD
ENDBRANCH   2   4
ENDBRANCH   1   2
BRANCH   1   6
ATOM      6  C   UNL     1       5.350   1.565   0.803  1.00  0.00     0.047 C 
BRANCH   6   7
ATOM      7  C   UNL     1       6.129   0.462   0.236  1.00  0.00    -0.043 A 
ATOM      8  C   UNL     1       6.592  -0.579   1.026  1.00  0.00     0.008 A 
ATOM      9  C   UNL     1       6.457   0.447  -1.094  1.00  0.00     0.054 A 
ATOM     10  C   UNL     1       7.355  -1.598   0.501  1.00  0.00     0.051 A 
ATOM     11  C   UNL     1       7.220  -0.566  -1.643  1.00  0.00     0.166 A 
ATOM     12  C   UNL     1       7.672  -1.592  -0.848  1.00  0.00     0.165 A 
ATOM     13  O   UNL     1       7.665  -0.784  -2.935  1.00  0.00    -0.454 OA
ATOM     14  O   UNL     1       8.404  -2.448  -1.672  1.00  0.00    -0.454 OA
ATOM     15  C   UNL     1       8.674  -1.805  -2.897  1.00  0.00     0.468 C 
ENDBRANCH   6   7
ENDBRANCH   1   6
TORSDOF 4
ENDMDL
MODEL 2
REMARK VINA RESULT:      -7.6      2.131      2.523
REMARK SMILES O=C(O)CCc1ccc2c(c1)OCO2
REMARK SMILES IDX 4 1 2 2 1 3 3 4 5 6 6 7 7 8 11 9 8 10 10 11 9 12 12 13 14 14
REMARK SMILES IDX 13 15
REMARK H PARENT 3 5
REMARK Flexibility Score: inf
ROOT
ATOM      1  C   UNL     1       4.680   1.831   0.685  1.00  0.00     0.127 C 
ENDROOT
BRANCH   1   2
ATOM      2  C   UNL     1       4.388   1.139   1.930  1.00  0.00     0.303 C 
ATOM      3  O   UNL     1       5.122   0.317   2.483  1.00  0.00    -0.252 OA
BRANCH   2   4
ATOM      4  O   UNL     1       3.167   1.429   2.558  1.00  0.00    -0.481 OA
ATOM      5  H   UNL     1       3.106   1.206   3.539  1.00  0.00     0.296 HD
ENDBRANCH   2   4
ENDBRANCH   1   2
BRANCH   1   6
ATOM      6  C   UNL     1       6.099   2.217   0.531  1.00  0.00     0.047 C 
BRANCH   6   7
ATOM      7  C   UNL     1       6.966   1.319  -0.235  1.00  0.00    -0.043 A 
ATOM      8  C   UNL     1       8.326   1.558  -0.363  1.00  0.00     0.008 A 
ATOM      9  C   UNL     1       6.447   0.230  -0.884  1.00  0.00     0.054 A 
ATOM     10  C   UNL     1       9.135   0.734  -1.113  1.00  0.00     0.051 A 
ATOM     11  C   UNL     1       7.240  -0.611  -1.641  1.00  0.00     0.166 A 
ATOM     12  C   UNL     1       8.587  -0.362  -1.758  1.00  0.00     0.165 A 
ATOM     13  O   UNL     1       6.940  -1.748  -2.370  1.00  0.00    -0.454 OA
ATOM     14  O   UNL     1       9.113  -1.366  -2.573  1.00  0.00    -0.454 OA
ATOM     15  C   UNL     1       8.061  -2.051  -3.214  1.00  0.00     0.468 C 
ENDBRANCH   6   7
ENDBRANCH   1   6
TORSDOF 4
ENDMDL
MODEL 3
REMARK VINA RESULT:      -7.5      0.949      2.113
REMARK SMILES O=C(O)CCc1ccc2c(c1)OCO2
REMARK SMILES IDX 4 1 2 2 1 3 3 4 5 6 6 7 7 8 11 9 8 10 10 11 9 12 12 13 14 14
REMARK SMILES IDX 13 15
REMARK H PARENT 3 5
REMARK Flexibility Score: inf
ROOT
ATOM      1  C   UNL     1       5.399   2.758   0.178  1.00  0.00     0.127 C 
ENDROOT
BRANCH   1   2
ATOM      2  C   UNL     1       6.148   3.755   0.926  1.00  0.00     0.303 C 
ATOM      3  O   UNL     1       6.204   3.837   2.154  1.00  0.00    -0.252 OA
BRANCH   2   4
ATOM      4  O   UNL     1       6.870   4.706   0.189  1.00  0.00    -0.481 OA
ATOM      5  H   UNL     1       6.572   5.665   0.287  1.00  0.00     0.296 HD
ENDBRANCH   2   4
ENDBRANCH   1   2
BRANCH   1   6
ATOM      6  C   UNL     1       5.398   1.416   0.799  1.00  0.00     0.047 C 
BRANCH   6   7
ATOM      7  C   UNL     1       6.220   0.379   0.172  1.00  0.00    -0.043 A 
ATOM      8  C   UNL     1       6.435   0.353  -1.197  1.00  0.00     0.008 A 
ATOM      9  C   UNL     1       6.773  -0.625   0.922  1.00  0.00     0.054 A 
ATOM     10  C   UNL     1       7.177  -0.642  -1.792  1.00  0.00     0.051 A 
ATOM     11  C   UNL     1       7.522  -1.634   0.347  1.00  0.00     0.166 A 
ATOM     12  C   UNL     1       7.727  -1.646  -1.012  1.00  0.00     0.165 A 
ATOM     13  O   UNL     1       8.165  -2.729   0.897  1.00  0.00    -0.454 OA
ATOM     14  O   UNL     1       8.508  -2.769  -1.291  1.00  0.00    -0.454 OA
ATOM     15  C   UNL     1       8.527  -3.620  -0.169  1.00  0.00     0.468 C 
ENDBRANCH   6   7
ENDBRANCH   1   6
TORSDOF 4
ENDMDL
MODEL 4
REMARK VINA RESULT:      -7.5      1.793      5.281
REMARK SMILES O=C(O)CCc1ccc2c(c1)OCO2
REMARK SMILES IDX 4 1 2 2 1 3 3 4 5 6 6 7 7 8 11 9 8 10 10 11 9 12 12 13 14 14
REMARK SMILES IDX 13 15
REMARK H PARENT 3 5
REMARK Flexibility Score: inf
ROOT
ATOM      1  C   UNL     1       8.298  -0.315  -2.854  1.00  0.00     0.127 C 
ENDROOT
BRANCH   1   2
ATOM      2  C   UNL     1       8.464  -1.744  -3.067  1.00  0.00     0.303 C 
ATOM      3  O   UNL     1       9.532  -2.356  -3.021  1.00  0.00    -0.252 OA
BRANCH   2   4
ATOM      4  O   UNL     1       7.310  -2.491  -3.351  1.00  0.00    -0.481 OA
ATOM      5  H   UNL     1       7.273  -2.924  -4.261  1.00  0.00     0.296 HD
ENDBRANCH   2   4
ENDBRANCH   1   2
BRANCH   1   6
ATOM      6  C   UNL     1       8.756   0.151  -1.527  1.00  0.00     0.047 C 
BRANCH   6   7
ATOM      7  C   UNL     1       7.791   0.113  -0.426  1.00  0.00    -0.043 A 
ATOM      8  C   UNL     1       7.754  -0.945   0.469  1.00  0.00     0.008 A 
ATOM      9  C   UNL     1       6.865   1.111  -0.271  1.00  0.00     0.054 A 
ATOM     10  C   UNL     1       6.825  -0.999   1.484  1.00  0.00     0.051 A 
ATOM     11  C   UNL     1       5.923   1.077   0.739  1.00  0.00     0.166 A 
ATOM     12  C   UNL     1       5.900   0.023   1.620  1.00  0.00     0.165 A 
ATOM     13  O   UNL     1       4.911   1.957   1.081  1.00  0.00    -0.454 OA
ATOM     14  O   UNL     1       4.854   0.267   2.513  1.00  0.00    -0.454 OA
ATOM     15  C   UNL     1       4.036   1.297   2.008  1.00  0.00     0.468 C 
ENDBRANCH   6   7
ENDBRANCH   1   6
TORSDOF 4
ENDMDL
MODEL 5
REMARK VINA RESULT:      -7.4      1.954      2.854
REMARK SMILES O=C(O)CCc1ccc2c(c1)OCO2
REMARK SMILES IDX 4 1 2 2 1 3 3 4 5 6 6 7 7 8 11 9 8 10 10 11 9 12 12 13 14 14
REMARK SMILES IDX 13 15
REMARK H PARENT 3 5
REMARK Flexibility Score: inf
ROOT
ATOM      1  C   UNL     1       6.423   1.362   0.671  1.00  0.00     0.127 C 
ENDROOT
BRANCH   1   2
ATOM      2  C   UNL     1       5.204   1.347   1.464  1.00  0.00     0.303 C 
ATOM      3  O   UNL     1       4.259   2.129   1.341  1.00  0.00    -0.252 OA
BRANCH   2   4
ATOM      4  O   UNL     1       5.092   0.359   2.454  1.00  0.00    -0.481 OA
ATOM      5  H   UNL     1       4.157   0.152   2.772  1.00  0.00     0.296 HD
ENDBRANCH   2   4
ENDBRANCH   1   2
BRANCH   1   6
ATOM      6  C   UNL     1       6.238   0.904  -0.723  1.00  0.00     0.047 C 
BRANCH   6   7
ATOM      7  C   UNL     1       6.986  -0.280  -1.151  1.00  0.00    -0.043 A 
ATOM      8  C   UNL     1       7.283  -0.507  -2.486  1.00  0.00     0.008 A 
ATOM      9  C   UNL     1       7.384  -1.224  -0.241  1.00  0.00     0.054 A 
ATOM     10  C   UNL     1       7.955  -1.638  -2.894  1.00  0.00     0.051 A 
ATOM     11  C   UNL     1       8.059  -2.366  -0.627  1.00  0.00     0.166 A 
ATOM     12  C   UNL     1       8.348  -2.577  -1.954  1.00  0.00     0.165 A 
ATOM     13  O   UNL     1       8.549  -3.435   0.103  1.00  0.00    -0.454 OA
ATOM     14  O   UNL     1       9.024  -3.796  -2.031  1.00  0.00    -0.454 OA
ATOM     15  C   UNL     1       8.884  -4.489  -0.813  1.00  0.00     0.468 C 
ENDBRANCH   6   7
ENDBRANCH   1   6
TORSDOF 4
ENDMDL
