@<TRIPOS>MOLECULE
/home/cewinharhar/GITHUB/reincatalyze/data/processed/docking_pred/2023-May-17-1006_maxeplen10_maxtrainstep1000_seadep16_gamma099_lrac9e-4_lrcr1e-3_sub6/1c86ade130d2cc9f902dffb19ba95248752a952e_ligand_6.pdbqt
 15 16 0 0 0
SMALL
GASTEIGER

@<TRIPOS>ATOM
      1  C          4.6800    1.8310    0.6850 C.3     1  UNL1        0.1270
      2  C          4.3880    1.1390    1.9300 C.2     1  UNL1        0.3030
      3  O          5.1220    0.3170    2.4830 O.2     1  UNL1       -0.2520
      4  O          3.1670    1.4290    2.5580 O.3     1  UNL1       -0.4810
      5  H          3.1060    1.2060    3.5390 H       1  UNL1        0.2960
      6  C          6.0990    2.2170    0.5310 C.3     1  UNL1        0.0470
      7  C          6.9660    1.3190   -0.2350 C.2     1  UNL1       -0.0430
      8  C          8.3260    1.5580   -0.3630 C.2     1  UNL1        0.0080
      9  C          6.4470    0.2300   -0.8840 C.2     1  UNL1        0.0540
     10  C          9.1350    0.7340   -1.1130 C.2     1  UNL1        0.0510
     11  C          7.2400   -0.6110   -1.6410 C.2     1  UNL1        0.1660
     12  C          8.5870   -0.3620   -1.7580 C.2     1  UNL1        0.1650
     13  O          6.9400   -1.7480   -2.3700 O.2     1  UNL1       -0.4540
     14  O          9.1130   -1.3660   -2.5730 O.2     1  UNL1       -0.4540
     15  C          8.0610   -2.0510   -3.2140 C.3     1  UNL1        0.4680
@<TRIPOS>BOND
     1    15    14    1
     2    15    13    1
     3    14    12    1
     4    13    11    1
     5    12    11    2
     6    12    10    1
     7    11     9    1
     8    10     8    2
     9     9     7    2
    10     8     7    1
    11     7     6    1
    12     6     1    1
    13     1     2    1
    14     2     3    2
    15     2     4    1
    16     4     5    1
