@<TRIPOS>MOLECULE
/home/cewinharhar/GITHUB/reincatalyze/data/processed/docking_pred/2023-May-17-1006_maxeplen10_maxtrainstep1000_seadep16_gamma099_lrac9e-4_lrcr1e-3_sub6/1caf15995fa8372ea76f1cb48e36fe3c815c3a18_ligand_6.pdbqt
 15 16 0 0 0
SMALL
GASTEIGER

@<TRIPOS>ATOM
      1  C          4.7000    1.8680    0.6990 C.3     1  UNL1        0.1270
      2  C          4.3960    1.1520    1.9280 C.2     1  UNL1        0.3030
      3  O          5.1220    0.3170    2.4700 O.2     1  UNL1       -0.2520
      4  O          3.1700    1.4330    2.5510 O.3     1  UNL1       -0.4810
      5  H          3.0430    1.0520    3.4760 H       1  UNL1        0.2960
      6  C          6.1260    2.2310    0.5530 C.3     1  UNL1        0.0470
      7  C          6.9780    1.3280   -0.2230 C.2     1  UNL1       -0.0430
      8  C          8.3390    1.5570   -0.3630 C.2     1  UNL1        0.0080
      9  C          6.4450    0.2450   -0.8700 C.2     1  UNL1        0.0540
     10  C          9.1350    0.7290   -1.1220 C.2     1  UNL1        0.0510
     11  C          7.2250   -0.6000   -1.6370 C.2     1  UNL1        0.1660
     12  C          8.5720   -0.3610   -1.7660 C.2     1  UNL1        0.1650
     13  O          6.9090   -1.7330   -2.3660 O.2     1  UNL1       -0.4540
     14  O          9.0830   -1.3670   -2.5880 O.2     1  UNL1       -0.4540
     15  C          8.0200   -2.0420   -3.2210 C.3     1  UNL1        0.4680
@<TRIPOS>BOND
     1    15    14    1
     2    15    13    1
     3    14    12    1
     4    13    11    1
     5    12    11    2
     6    12    10    1
     7    11     9    1
     8    10     8    2
     9     9     7    2
    10     8     7    1
    11     7     6    1
    12     6     1    1
    13     1     2    1
    14     2     3    2
    15     2     4    1
    16     4     5    1
