MODEL 1
REMARK VINA RESULT:      -7.7      0.000      0.000
REMARK SMILES O=C(O)CCc1ccc2c(c1)OCO2
REMARK SMILES IDX 4 1 2 2 1 3 3 4 5 6 6 7 7 8 11 9 8 10 10 11 9 12 12 13 14 14
REMARK SMILES IDX 13 15
REMARK H PARENT 3 5
REMARK Flexibility Score: inf
ROOT
ATOM      1  C   UNL     1       5.414   2.875   0.122  1.00  0.00     0.127 C 
ENDROOT
BRANCH   1   2
ATOM      2  C   UNL     1       6.234   3.858   0.811  1.00  0.00     0.303 C 
ATOM      3  O   UNL     1       6.864   4.770   0.273  1.00  0.00    -0.252 OA
BRANCH   2   4
ATOM      4  O   UNL     1       6.318   3.761   2.209  1.00  0.00    -0.481 OA
ATOM      5  H   UNL     1       5.465   3.521   2.691  1.00  0.00     0.296 HD
ENDBRANCH   2   4
ENDBRANCH   1   2
BRANCH   1   6
ATOM      6  C   UNL     1       5.346   1.565   0.804  1.00  0.00     0.047 C 
BRANCH   6   7
ATOM      7  C   UNL     1       6.133   0.466   0.240  1.00  0.00    -0.043 A 
ATOM      8  C   UNL     1       6.599  -0.573   1.031  1.00  0.00     0.008 A 
ATOM      9  C   UNL     1       6.466   0.453  -1.089  1.00  0.00     0.054 A 
ATOM     10  C   UNL     1       7.370  -1.588   0.509  1.00  0.00     0.051 A 
ATOM     11  C   UNL     1       7.237  -0.555  -1.635  1.00  0.00     0.166 A 
ATOM     12  C   UNL     1       7.691  -1.579  -0.839  1.00  0.00     0.165 A 
ATOM     13  O   UNL     1       7.687  -0.771  -2.926  1.00  0.00    -0.454 OA
ATOM     14  O   UNL     1       8.431  -2.430  -1.661  1.00  0.00    -0.454 OA
ATOM     15  C   UNL     1       8.701  -1.786  -2.884  1.00  0.00     0.468 C 
ENDBRANCH   6   7
ENDBRANCH   1   6
TORSDOF 4
ENDMDL
MODEL 2
REMARK VINA RESULT:      -7.6      2.130      2.514
REMARK SMILES O=C(O)CCc1ccc2c(c1)OCO2
REMARK SMILES IDX 4 1 2 2 1 3 3 4 5 6 6 7 7 8 11 9 8 10 10 11 9 12 12 13 14 14
REMARK SMILES IDX 13 15
REMARK H PARENT 3 5
REMARK Flexibility Score: inf
ROOT
ATOM      1  C   UNL     1       4.700   1.868   0.699  1.00  0.00     0.127 C 
ENDROOT
BRANCH   1   2
ATOM      2  C   UNL     1       4.396   1.152   1.928  1.00  0.00     0.303 C 
ATOM      3  O   UNL     1       5.122   0.317   2.470  1.00  0.00    -0.252 OA
BRANCH   2   4
ATOM      4  O   UNL     1       3.170   1.433   2.551  1.00  0.00    -0.481 OA
ATOM      5  H   UNL     1       3.043   1.052   3.476  1.00  0.00     0.296 HD
ENDBRANCH   2   4
ENDBRANCH   1   2
BRANCH   1   6
ATOM      6  C   UNL     1       6.126   2.231   0.553  1.00  0.00     0.047 C 
BRANCH   6   7
ATOM      7  C   UNL     1       6.978   1.328  -0.223  1.00  0.00    -0.043 A 
ATOM      8  C   UNL     1       8.339   1.557  -0.363  1.00  0.00     0.008 A 
ATOM      9  C   UNL     1       6.445   0.245  -0.870  1.00  0.00     0.054 A 
ATOM     10  C   UNL     1       9.135   0.729  -1.122  1.00  0.00     0.051 A 
ATOM     11  C   UNL     1       7.225  -0.600  -1.637  1.00  0.00     0.166 A 
ATOM     12  C   UNL     1       8.572  -0.361  -1.766  1.00  0.00     0.165 A 
ATOM     13  O   UNL     1       6.909  -1.733  -2.366  1.00  0.00    -0.454 OA
ATOM     14  O   UNL     1       9.083  -1.367  -2.588  1.00  0.00    -0.454 OA
ATOM     15  C   UNL     1       8.020  -2.042  -3.221  1.00  0.00     0.468 C 
ENDBRANCH   6   7
ENDBRANCH   1   6
TORSDOF 4
ENDMDL
MODEL 3
REMARK VINA RESULT:      -7.5      1.998      2.993
REMARK SMILES O=C(O)CCc1ccc2c(c1)OCO2
REMARK SMILES IDX 4 1 2 2 1 3 3 4 5 6 6 7 7 8 11 9 8 10 10 11 9 12 12 13 14 14
REMARK SMILES IDX 13 15
REMARK H PARENT 3 5
REMARK Flexibility Score: inf
ROOT
ATOM      1  C   UNL     1       6.435   1.265   0.733  1.00  0.00     0.127 C 
ENDROOT
BRANCH   1   2
ATOM      2  C   UNL     1       5.251   1.136   1.568  1.00  0.00     0.303 C 
ATOM      3  O   UNL     1       5.070   0.270   2.426  1.00  0.00    -0.252 OA
BRANCH   2   4
ATOM      4  O   UNL     1       4.225   2.076   1.381  1.00  0.00    -0.481 OA
ATOM      5  H   UNL     1       3.332   1.708   1.090  1.00  0.00     0.296 HD
ENDBRANCH   2   4
ENDBRANCH   1   2
BRANCH   1   6
ATOM      6  C   UNL     1       6.240   0.807  -0.660  1.00  0.00     0.047 C 
BRANCH   6   7
ATOM      7  C   UNL     1       6.990  -0.374  -1.095  1.00  0.00    -0.043 A 
ATOM      8  C   UNL     1       7.283  -0.594  -2.432  1.00  0.00     0.008 A 
ATOM      9  C   UNL     1       7.392  -1.321  -0.191  1.00  0.00     0.054 A 
ATOM     10  C   UNL     1       7.956  -1.721  -2.847  1.00  0.00     0.051 A 
ATOM     11  C   UNL     1       8.069  -2.459  -0.584  1.00  0.00     0.166 A 
ATOM     12  C   UNL     1       8.353  -2.664  -1.912  1.00  0.00     0.165 A 
ATOM     13  O   UNL     1       8.563  -3.530   0.140  1.00  0.00    -0.454 OA
ATOM     14  O   UNL     1       9.033  -3.880  -1.996  1.00  0.00    -0.454 OA
ATOM     15  C   UNL     1       8.897  -4.580  -0.781  1.00  0.00     0.468 C 
ENDBRANCH   6   7
ENDBRANCH   1   6
TORSDOF 4
ENDMDL
MODEL 4
REMARK VINA RESULT:      -7.4      1.789      5.289
REMARK SMILES O=C(O)CCc1ccc2c(c1)OCO2
REMARK SMILES IDX 4 1 2 2 1 3 3 4 5 6 6 7 7 8 11 9 8 10 10 11 9 12 12 13 14 14
REMARK SMILES IDX 13 15
REMARK H PARENT 3 5
REMARK Flexibility Score: inf
ROOT
ATOM      1  C   UNL     1       8.304  -0.327  -2.872  1.00  0.00     0.127 C 
ENDROOT
BRANCH   1   2
ATOM      2  C   UNL     1       8.471  -1.756  -3.084  1.00  0.00     0.303 C 
ATOM      3  O   UNL     1       9.541  -2.366  -3.044  1.00  0.00    -0.252 OA
BRANCH   2   4
ATOM      4  O   UNL     1       7.317  -2.506  -3.357  1.00  0.00    -0.481 OA
ATOM      5  H   UNL     1       7.461  -3.476  -3.591  1.00  0.00     0.296 HD
ENDBRANCH   2   4
ENDBRANCH   1   2
BRANCH   1   6
ATOM      6  C   UNL     1       8.758   0.141  -1.545  1.00  0.00     0.047 C 
BRANCH   6   7
ATOM      7  C   UNL     1       7.792   0.099  -0.445  1.00  0.00    -0.043 A 
ATOM      8  C   UNL     1       7.745  -0.969   0.438  1.00  0.00     0.008 A 
ATOM      9  C   UNL     1       6.876   1.103  -0.279  1.00  0.00     0.054 A 
ATOM     10  C   UNL     1       6.814  -1.027   1.450  1.00  0.00     0.051 A 
ATOM     11  C   UNL     1       5.933   1.066   0.730  1.00  0.00     0.166 A 
ATOM     12  C   UNL     1       5.899   0.002   1.599  1.00  0.00     0.165 A 
ATOM     13  O   UNL     1       4.928   1.951   1.082  1.00  0.00    -0.454 OA
ATOM     14  O   UNL     1       4.855   0.245   2.493  1.00  0.00    -0.454 OA
ATOM     15  C   UNL     1       4.046   1.288   2.000  1.00  0.00     0.468 C 
ENDBRANCH   6   7
ENDBRANCH   1   6
TORSDOF 4
ENDMDL
