@<TRIPOS>MOLECULE
/home/cewinharhar/GITHUB/reincatalyze/data/processed/docking_pred/2023-May-17-1006_maxeplen10_maxtrainstep1000_seadep16_gamma099_lrac9e-4_lrcr1e-3_sub6/1caf15995fa8372ea76f1cb48e36fe3c815c3a18_ligand_6.pdbqt
 15 16 0 0 0
SMALL
GASTEIGER

@<TRIPOS>ATOM
      1  C          8.3040   -0.3270   -2.8720 C.3     1  UNL1        0.1270
      2  C          8.4710   -1.7560   -3.0840 C.2     1  UNL1        0.3030
      3  O          9.5410   -2.3660   -3.0440 O.2     1  UNL1       -0.2520
      4  O          7.3170   -2.5060   -3.3570 O.3     1  UNL1       -0.4810
      5  H          7.4610   -3.4760   -3.5910 H       1  UNL1        0.2960
      6  C          8.7580    0.1410   -1.5450 C.3     1  UNL1        0.0470
      7  C          7.7920    0.0990   -0.4450 C.2     1  UNL1       -0.0430
      8  C          7.7450   -0.9690    0.4380 C.2     1  UNL1        0.0080
      9  C          6.8760    1.1030   -0.2790 C.2     1  UNL1        0.0540
     10  C          6.8140   -1.0270    1.4500 C.2     1  UNL1        0.0510
     11  C          5.9330    1.0660    0.7300 C.2     1  UNL1        0.1660
     12  C          5.8990    0.0020    1.5990 C.2     1  UNL1        0.1650
     13  O          4.9280    1.9510    1.0820 O.2     1  UNL1       -0.4540
     14  O          4.8550    0.2450    2.4930 O.2     1  UNL1       -0.4540
     15  C          4.0460    1.2880    2.0000 C.3     1  UNL1        0.4680
@<TRIPOS>BOND
     1     5     4    1
     2     4     2    1
     3     2     3    2
     4     2     1    1
     5     1     6    1
     6     6     7    1
     7     7     9    2
     8     7     8    1
     9     9    11    1
    10     8    10    2
    11    11    13    1
    12    11    12    2
    13    13    15    1
    14    10    12    1
    15    12    14    1
    16    15    14    1
