@<TRIPOS>MOLECULE
/home/cewinharhar/GITHUB/reincatalyze/data/processed/docking_pred/2023-May-17-1006_maxeplen10_maxtrainstep1000_seadep16_gamma099_lrac9e-4_lrcr1e-3_sub6/1caf15995fa8372ea76f1cb48e36fe3c815c3a18_ligand_6.pdbqt
 15 16 0 0 0
SMALL
GASTEIGER

@<TRIPOS>ATOM
      1  C          5.3780    2.8610    0.1040 C.3     1  UNL1        0.1270
      2  C          6.1300    3.8680    0.8350 C.2     1  UNL1        0.3030
      3  O          6.1540    3.9950    2.0610 O.2     1  UNL1       -0.2520
      4  O          6.8930    4.7750    0.0840 O.3     1  UNL1       -0.4810
      5  H          6.6160    5.7430    0.1380 H       1  UNL1        0.2960
      6  C          5.3720    1.5300    0.7490 C.3     1  UNL1        0.0470
      7  C          6.2000    0.4820    0.1480 C.2     1  UNL1       -0.0430
      8  C          6.4720    0.4640   -1.2110 C.2     1  UNL1        0.0080
      9  C          6.7010   -0.5380    0.9120 C.2     1  UNL1        0.0540
     10  C          7.2200   -0.5410   -1.7830 C.2     1  UNL1        0.0510
     11  C          7.4550   -1.5570    0.3600 C.2     1  UNL1        0.1660
     12  C          7.7170   -1.5620   -0.9890 C.2     1  UNL1        0.1650
     13  O          8.0520   -2.6690    0.9270 O.2     1  UNL1       -0.4540
     14  O          8.4880   -2.6970   -1.2450 O.2     1  UNL1       -0.4540
     15  C          8.4420   -3.5580   -0.1310 C.3     1  UNL1        0.4680
@<TRIPOS>BOND
     1    10     8    1
     2    10    12    2
     3    14    12    1
     4    14    15    1
     5     8     7    2
     6    12    11    1
     7    15    13    1
     8     4     5    1
     9     4     2    1
    10     1     6    1
    11     1     2    1
    12     7     6    1
    13     7     9    1
    14    11     9    2
    15    11    13    1
    16     2     3    2
