@<TRIPOS>MOLECULE
/home/cewinharhar/GITHUB/reincatalyze/data/processed/docking_pred/2023-May-17-1006_maxeplen10_maxtrainstep1000_seadep16_gamma099_lrac9e-4_lrcr1e-3_sub6/1caf15995fa8372ea76f1cb48e36fe3c815c3a18_ligand_6.pdbqt
 15 16 0 0 0
SMALL
GASTEIGER

@<TRIPOS>ATOM
      1  C          5.4140    2.8750    0.1220 C.3     1  UNL1        0.1270
      2  C          6.2340    3.8580    0.8110 C.2     1  UNL1        0.3030
      3  O          6.8640    4.7700    0.2730 O.2     1  UNL1       -0.2520
      4  O          6.3180    3.7610    2.2090 O.3     1  UNL1       -0.4810
      5  H          5.4650    3.5210    2.6910 H       1  UNL1        0.2960
      6  C          5.3460    1.5650    0.8040 C.3     1  UNL1        0.0470
      7  C          6.1330    0.4660    0.2400 C.2     1  UNL1       -0.0430
      8  C          6.5990   -0.5730    1.0310 C.2     1  UNL1        0.0080
      9  C          6.4660    0.4530   -1.0890 C.2     1  UNL1        0.0540
     10  C          7.3700   -1.5880    0.5090 C.2     1  UNL1        0.0510
     11  C          7.2370   -0.5550   -1.6350 C.2     1  UNL1        0.1660
     12  C          7.6910   -1.5790   -0.8390 C.2     1  UNL1        0.1650
     13  O          7.6870   -0.7710   -2.9260 O.2     1  UNL1       -0.4540
     14  O          8.4310   -2.4300   -1.6610 O.2     1  UNL1       -0.4540
     15  C          8.7010   -1.7860   -2.8840 C.3     1  UNL1        0.4680
@<TRIPOS>BOND
     1    13    15    1
     2    13    11    1
     3    15    14    1
     4    14    12    1
     5    11     9    1
     6    11    12    2
     7     9     7    2
     8    12    10    1
     9     1     6    1
    10     1     2    1
    11     7     6    1
    12     7     8    1
    13     3     2    2
    14    10     8    2
    15     2     4    1
    16     4     5    1
