@<TRIPOS>MOLECULE
/home/cewinharhar/GITHUB/reincatalyze/data/processed/docking_pred/2023-May-17-1006_maxeplen10_maxtrainstep1000_seadep16_gamma099_lrac9e-4_lrcr1e-3_sub6/1caf15995fa8372ea76f1cb48e36fe3c815c3a18_ligand_6.pdbqt
 15 16 0 0 0
SMALL
GASTEIGER

@<TRIPOS>ATOM
      1  C          6.4350    1.2650    0.7330 C.3     1  UNL1        0.1270
      2  C          5.2510    1.1360    1.5680 C.2     1  UNL1        0.3030
      3  O          5.0700    0.2700    2.4260 O.2     1  UNL1       -0.2520
      4  O          4.2250    2.0760    1.3810 O.3     1  UNL1       -0.4810
      5  H          3.3320    1.7080    1.0900 H       1  UNL1        0.2960
      6  C          6.2400    0.8070   -0.6600 C.3     1  UNL1        0.0470
      7  C          6.9900   -0.3740   -1.0950 C.2     1  UNL1       -0.0430
      8  C          7.2830   -0.5940   -2.4320 C.2     1  UNL1        0.0080
      9  C          7.3920   -1.3210   -0.1910 C.2     1  UNL1        0.0540
     10  C          7.9560   -1.7210   -2.8470 C.2     1  UNL1        0.0510
     11  C          8.0690   -2.4590   -0.5840 C.2     1  UNL1        0.1660
     12  C          8.3530   -2.6640   -1.9120 C.2     1  UNL1        0.1650
     13  O          8.5630   -3.5300    0.1400 O.2     1  UNL1       -0.4540
     14  O          9.0330   -3.8800   -1.9960 O.2     1  UNL1       -0.4540
     15  C          8.8970   -4.5800   -0.7810 C.3     1  UNL1        0.4680
@<TRIPOS>BOND
     1    10     8    1
     2    10    12    2
     3     8     7    2
     4    14    12    1
     5    14    15    1
     6    12    11    1
     7     7     6    1
     8     7     9    1
     9    15    13    1
    10     6     1    1
    11    11     9    2
    12    11    13    1
    13     1     2    1
    14     5     4    1
    15     4     2    1
    16     2     3    2
