@<TRIPOS>MOLECULE
/home/cewinharhar/GITHUB/reincatalyze/data/processed/docking_pred/2023-May-17-1006_maxeplen10_maxtrainstep1000_seadep16_gamma099_lrac9e-4_lrcr1e-3_sub6/1e16add1d5649bf0b13dd0d86c7d3fc630d89625_ligand_6.pdbqt
 15 16 0 0 0
SMALL
GASTEIGER

@<TRIPOS>ATOM
      1  C          5.5880    2.7580   -0.2550 C.3     1  UNL1        0.1270
      2  C          6.1760    3.6530    0.7290 C.2     1  UNL1        0.3030
      3  O          6.1180    3.5130    1.9520 O.2     1  UNL1       -0.2520
      4  O          6.8690    4.7750    0.2470 O.3     1  UNL1       -0.4810
      5  H          6.3640    5.6480    0.2580 H       1  UNL1        0.2960
      6  C          5.7670    1.3230    0.0570 C.3     1  UNL1        0.0470
      7  C          6.8110    0.5970   -0.6690 C.2     1  UNL1       -0.0430
      8  C          8.1270    1.0320   -0.6720 C.2     1  UNL1        0.0080
      9  C          6.5070   -0.5190   -1.4020 C.2     1  UNL1        0.0540
     10  C          9.1030    0.3700   -1.3840 C.2     1  UNL1        0.0510
     11  C          7.4700   -1.2000   -2.1230 C.2     1  UNL1        0.1660
     12  C          8.7710   -0.7580   -2.1160 C.2     1  UNL1        0.1650
     13  O          7.3940   -2.3290   -2.9190 O.2     1  UNL1       -0.4540
     14  O          9.4980   -1.6350   -2.9230 O.2     1  UNL1       -0.4540
     15  C          8.6100   -2.4270   -3.6770 C.3     1  UNL1        0.4680
@<TRIPOS>BOND
     1    15    14    1
     2    15    13    1
     3    14    12    1
     4    13    11    1
     5    11    12    2
     6    11     9    1
     7    12    10    1
     8     9     7    2
     9    10     8    2
    10     8     7    1
    11     7     6    1
    12     1     6    1
    13     1     2    1
    14     4     5    1
    15     4     2    1
    16     2     3    2
