MODEL 1
REMARK VINA RESULT:      -7.7      0.000      0.000
REMARK SMILES O=C(O)CCc1ccc2c(c1)OCO2
REMARK SMILES IDX 4 1 2 2 1 3 3 4 5 6 6 7 7 8 11 9 8 10 10 11 9 12 12 13 14 14
REMARK SMILES IDX 13 15
REMARK H PARENT 3 5
REMARK Flexibility Score: inf
ROOT
ATOM      1  C   UNL     1       5.838   1.673   1.194  1.00  0.00     0.127 C 
ENDROOT
BRANCH   1   2
ATOM      2  C   UNL     1       5.085   0.731   2.007  1.00  0.00     0.303 C 
ATOM      3  O   UNL     1       3.937   0.899   2.423  1.00  0.00    -0.252 OA
BRANCH   2   4
ATOM      4  O   UNL     1       5.718  -0.474   2.350  1.00  0.00    -0.481 OA
ATOM      5  H   UNL     1       5.112  -1.239   2.606  1.00  0.00     0.296 HD
ENDBRANCH   2   4
ENDBRANCH   1   2
BRANCH   1   6
ATOM      6  C   UNL     1       5.728   1.432  -0.261  1.00  0.00     0.047 C 
BRANCH   6   7
ATOM      7  C   UNL     1       6.779   0.634  -0.896  1.00  0.00    -0.043 A 
ATOM      8  C   UNL     1       8.113   1.004  -0.824  1.00  0.00     0.008 A 
ATOM      9  C   UNL     1       6.467  -0.487  -1.619  1.00  0.00     0.054 A 
ATOM     10  C   UNL     1       9.098   0.275  -1.452  1.00  0.00     0.051 A 
ATOM     11  C   UNL     1       7.439  -1.234  -2.257  1.00  0.00     0.166 A 
ATOM     12  C   UNL     1       8.757  -0.856  -2.176  1.00  0.00     0.165 A 
ATOM     13  O   UNL     1       7.358  -2.381  -3.027  1.00  0.00    -0.454 OA
ATOM     14  O   UNL     1       9.490  -1.790  -2.910  1.00  0.00    -0.454 OA
ATOM     15  C   UNL     1       8.613  -2.560  -3.700  1.00  0.00     0.468 C 
ENDBRANCH   6   7
ENDBRANCH   1   6
TORSDOF 4
ENDMDL
MODEL 2
REMARK VINA RESULT:      -7.5      1.824      2.261
REMARK SMILES O=C(O)CCc1ccc2c(c1)OCO2
REMARK SMILES IDX 4 1 2 2 1 3 3 4 5 6 6 7 7 8 11 9 8 10 10 11 9 12 12 13 14 14
REMARK SMILES IDX 13 15
REMARK H PARENT 3 5
REMARK Flexibility Score: inf
ROOT
ATOM      1  C   UNL     1       4.995   1.730   0.745  1.00  0.00     0.127 C 
ENDROOT
BRANCH   1   2
ATOM      2  C   UNL     1       4.496   1.076   1.945  1.00  0.00     0.303 C 
ATOM      3  O   UNL     1       5.075   0.187   2.571  1.00  0.00    -0.252 OA
BRANCH   2   4
ATOM      4  O   UNL     1       3.247   1.493   2.434  1.00  0.00    -0.481 OA
ATOM      5  H   UNL     1       3.085   2.488   2.450  1.00  0.00     0.296 HD
ENDBRANCH   2   4
ENDBRANCH   1   2
BRANCH   1   6
ATOM      6  C   UNL     1       6.456   1.602   0.556  1.00  0.00     0.047 C 
BRANCH   6   7
ATOM      7  C   UNL     1       6.951   0.388  -0.096  1.00  0.00    -0.043 A 
ATOM      8  C   UNL     1       6.719   0.142  -1.441  1.00  0.00     0.008 A 
ATOM      9  C   UNL     1       7.628  -0.564   0.618  1.00  0.00     0.054 A 
ATOM     10  C   UNL     1       7.152  -1.016  -2.047  1.00  0.00     0.051 A 
ATOM     11  C   UNL     1       8.073  -1.734   0.031  1.00  0.00     0.166 A 
ATOM     12  C   UNL     1       7.837  -1.964  -1.303  1.00  0.00     0.165 A 
ATOM     13  O   UNL     1       8.765  -2.815   0.546  1.00  0.00    -0.454 OA
ATOM     14  O   UNL     1       8.396  -3.207  -1.603  1.00  0.00    -0.454 OA
ATOM     15  C   UNL     1       8.699  -3.887  -0.407  1.00  0.00     0.468 C 
ENDBRANCH   6   7
ENDBRANCH   1   6
TORSDOF 4
ENDMDL
MODEL 3
REMARK VINA RESULT:      -7.5      2.587      2.988
REMARK SMILES O=C(O)CCc1ccc2c(c1)OCO2
REMARK SMILES IDX 4 1 2 2 1 3 3 4 5 6 6 7 7 8 11 9 8 10 10 11 9 12 12 13 14 14
REMARK SMILES IDX 13 15
REMARK H PARENT 3 5
REMARK Flexibility Score: inf
ROOT
ATOM      1  C   UNL     1       5.398   2.818   0.136  1.00  0.00     0.127 C 
ENDROOT
BRANCH   1   2
ATOM      2  C   UNL     1       6.227   3.816   0.794  1.00  0.00     0.303 C 
ATOM      3  O   UNL     1       6.891   4.685   0.226  1.00  0.00    -0.252 OA
BRANCH   2   4
ATOM      4  O   UNL     1       6.278   3.788   2.197  1.00  0.00    -0.481 OA
ATOM      5  H   UNL     1       5.830   3.002   2.643  1.00  0.00     0.296 HD
ENDBRANCH   2   4
ENDBRANCH   1   2
BRANCH   1   6
ATOM      6  C   UNL     1       5.407   1.497   0.800  1.00  0.00     0.047 C 
BRANCH   6   7
ATOM      7  C   UNL     1       6.232   0.445   0.204  1.00  0.00    -0.043 A 
ATOM      8  C   UNL     1       6.488   0.409  -1.158  1.00  0.00     0.008 A 
ATOM      9  C   UNL     1       6.746  -0.563   0.975  1.00  0.00     0.054 A 
ATOM     10  C   UNL     1       7.234  -0.600  -1.726  1.00  0.00     0.051 A 
ATOM     11  C   UNL     1       7.498  -1.585   0.428  1.00  0.00     0.166 A 
ATOM     12  C   UNL     1       7.745  -1.607  -0.924  1.00  0.00     0.165 A 
ATOM     13  O   UNL     1       8.108  -2.687   1.002  1.00  0.00    -0.454 OA
ATOM     14  O   UNL     1       8.518  -2.743  -1.174  1.00  0.00    -0.454 OA
ATOM     15  C   UNL     1       8.489  -3.589  -0.048  1.00  0.00     0.468 C 
ENDBRANCH   6   7
ENDBRANCH   1   6
TORSDOF 4
ENDMDL
MODEL 4
REMARK VINA RESULT:      -7.3      1.647      5.653
REMARK SMILES O=C(O)CCc1ccc2c(c1)OCO2
REMARK SMILES IDX 4 1 2 2 1 3 3 4 5 6 6 7 7 8 11 9 8 10 10 11 9 12 12 13 14 14
REMARK SMILES IDX 13 15
REMARK H PARENT 3 5
REMARK Flexibility Score: inf
ROOT
ATOM      1  C   UNL     1       8.216  -2.694  -3.662  1.00  0.00     0.127 C 
ENDROOT
BRANCH   1   2
ATOM      2  C   UNL     1       9.285  -3.671  -3.528  1.00  0.00     0.303 C 
ATOM      3  O   UNL     1      10.476  -3.411  -3.348  1.00  0.00    -0.252 OA
BRANCH   2   4
ATOM      4  O   UNL     1       8.932  -5.027  -3.611  1.00  0.00    -0.481 OA
ATOM      5  H   UNL     1       8.096  -5.301  -3.118  1.00  0.00     0.296 HD
ENDBRANCH   2   4
ENDBRANCH   1   2
BRANCH   1   6
ATOM      6  C   UNL     1       8.527  -1.378  -3.064  1.00  0.00     0.047 C 
BRANCH   6   7
ATOM      7  C   UNL     1       7.725  -0.950  -1.915  1.00  0.00    -0.043 A 
ATOM      8  C   UNL     1       6.971   0.213  -1.951  1.00  0.00     0.008 A 
ATOM      9  C   UNL     1       7.729  -1.671  -0.751  1.00  0.00     0.054 A 
ATOM     10  C   UNL     1       6.246   0.636  -0.859  1.00  0.00     0.051 A 
ATOM     11  C   UNL     1       7.008  -1.267   0.357  1.00  0.00     0.166 A 
ATOM     12  C   UNL     1       6.264  -0.112   0.306  1.00  0.00     0.165 A 
ATOM     13  O   UNL     1       6.865  -1.826   1.614  1.00  0.00    -0.454 OA
ATOM     14  O   UNL     1       5.659   0.032   1.556  1.00  0.00    -0.454 OA
ATOM     15  C   UNL     1       6.265  -0.847   2.476  1.00  0.00     0.468 C 
ENDBRANCH   6   7
ENDBRANCH   1   6
TORSDOF 4
ENDMDL
MODEL 5
REMARK VINA RESULT:      -6.0      1.823      2.073
REMARK SMILES O=C(O)CCc1ccc2c(c1)OCO2
REMARK SMILES IDX 4 1 2 2 1 3 3 4 5 6 6 7 7 8 11 9 8 10 10 11 9 12 12 13 14 14
REMARK SMILES IDX 13 15
REMARK H PARENT 3 5
REMARK Flexibility Score: inf
ROOT
ATOM      1  C   UNL     1       5.588   2.758  -0.255  1.00  0.00     0.127 C 
ENDROOT
BRANCH   1   2
ATOM      2  C   UNL     1       6.176   3.653   0.729  1.00  0.00     0.303 C 
ATOM      3  O   UNL     1       6.118   3.513   1.952  1.00  0.00    -0.252 OA
BRANCH   2   4
ATOM      4  O   UNL     1       6.869   4.775   0.247  1.00  0.00    -0.481 OA
ATOM      5  H   UNL     1       6.364   5.648   0.258  1.00  0.00     0.296 HD
ENDBRANCH   2   4
ENDBRANCH   1   2
BRANCH   1   6
ATOM      6  C   UNL     1       5.767   1.323   0.057  1.00  0.00     0.047 C 
BRANCH   6   7
ATOM      7  C   UNL     1       6.811   0.597  -0.669  1.00  0.00    -0.043 A 
ATOM      8  C   UNL     1       8.127   1.032  -0.672  1.00  0.00     0.008 A 
ATOM      9  C   UNL     1       6.507  -0.519  -1.402  1.00  0.00     0.054 A 
ATOM     10  C   UNL     1       9.103   0.370  -1.384  1.00  0.00     0.051 A 
ATOM     11  C   UNL     1       7.470  -1.200  -2.123  1.00  0.00     0.166 A 
ATOM     12  C   UNL     1       8.771  -0.758  -2.116  1.00  0.00     0.165 A 
ATOM     13  O   UNL     1       7.394  -2.329  -2.919  1.00  0.00    -0.454 OA
ATOM     14  O   UNL     1       9.498  -1.635  -2.923  1.00  0.00    -0.454 OA
ATOM     15  C   UNL     1       8.610  -2.427  -3.677  1.00  0.00     0.468 C 
ENDBRANCH   6   7
ENDBRANCH   1   6
TORSDOF 4
ENDMDL
