@<TRIPOS>MOLECULE
/home/cewinharhar/GITHUB/reincatalyze/data/processed/docking_pred/2023-May-17-1006_maxeplen10_maxtrainstep1000_seadep16_gamma099_lrac9e-4_lrcr1e-3_sub6/1e16add1d5649bf0b13dd0d86c7d3fc630d89625_ligand_6.pdbqt
 15 16 0 0 0
SMALL
GASTEIGER

@<TRIPOS>ATOM
      1  C          8.2160   -2.6940   -3.6620 C.3     1  UNL1        0.1270
      2  C          9.2850   -3.6710   -3.5280 C.2     1  UNL1        0.3030
      3  O         10.4760   -3.4110   -3.3480 O.2     1  UNL1       -0.2520
      4  O          8.9320   -5.0270   -3.6110 O.3     1  UNL1       -0.4810
      5  H          8.0960   -5.3010   -3.1180 H       1  UNL1        0.2960
      6  C          8.5270   -1.3780   -3.0640 C.3     1  UNL1        0.0470
      7  C          7.7250   -0.9500   -1.9150 C.2     1  UNL1       -0.0430
      8  C          6.9710    0.2130   -1.9510 C.2     1  UNL1        0.0080
      9  C          7.7290   -1.6710   -0.7510 C.2     1  UNL1        0.0540
     10  C          6.2460    0.6360   -0.8590 C.2     1  UNL1        0.0510
     11  C          7.0080   -1.2670    0.3570 C.2     1  UNL1        0.1660
     12  C          6.2640   -0.1120    0.3060 C.2     1  UNL1        0.1650
     13  O          6.8650   -1.8260    1.6140 O.2     1  UNL1       -0.4540
     14  O          5.6590    0.0320    1.5560 O.2     1  UNL1       -0.4540
     15  C          6.2650   -0.8470    2.4760 C.3     1  UNL1        0.4680
@<TRIPOS>BOND
     1     1     2    1
     2     1     6    1
     3     4     2    1
     4     4     5    1
     5     2     3    2
     6     6     7    1
     7     8     7    2
     8     8    10    1
     9     7     9    1
    10    10    12    2
    11     9    11    2
    12    12    11    1
    13    12    14    1
    14    11    13    1
    15    14    15    1
    16    13    15    1
