@<TRIPOS>MOLECULE
/home/cewinharhar/GITHUB/reincatalyze/data/processed/docking_pred/2023-May-17-1006_maxeplen10_maxtrainstep1000_seadep16_gamma099_lrac9e-4_lrcr1e-3_sub6/1e16add1d5649bf0b13dd0d86c7d3fc630d89625_ligand_6.pdbqt
 15 16 0 0 0
SMALL
GASTEIGER

@<TRIPOS>ATOM
      1  C          5.3980    2.8180    0.1360 C.3     1  UNL1        0.1270
      2  C          6.2270    3.8160    0.7940 C.2     1  UNL1        0.3030
      3  O          6.8910    4.6850    0.2260 O.2     1  UNL1       -0.2520
      4  O          6.2780    3.7880    2.1970 O.3     1  UNL1       -0.4810
      5  H          5.8300    3.0020    2.6430 H       1  UNL1        0.2960
      6  C          5.4070    1.4970    0.8000 C.3     1  UNL1        0.0470
      7  C          6.2320    0.4450    0.2040 C.2     1  UNL1       -0.0430
      8  C          6.4880    0.4090   -1.1580 C.2     1  UNL1        0.0080
      9  C          6.7460   -0.5630    0.9750 C.2     1  UNL1        0.0540
     10  C          7.2340   -0.6000   -1.7260 C.2     1  UNL1        0.0510
     11  C          7.4980   -1.5850    0.4280 C.2     1  UNL1        0.1660
     12  C          7.7450   -1.6070   -0.9240 C.2     1  UNL1        0.1650
     13  O          8.1080   -2.6870    1.0020 O.2     1  UNL1       -0.4540
     14  O          8.5180   -2.7430   -1.1740 O.2     1  UNL1       -0.4540
     15  C          8.4890   -3.5890   -0.0480 C.3     1  UNL1        0.4680
@<TRIPOS>BOND
     1    10     8    1
     2    10    12    2
     3    14    12    1
     4    14    15    1
     5     8     7    2
     6    12    11    1
     7    15    13    1
     8     1     2    1
     9     1     6    1
    10     7     6    1
    11     7     9    1
    12     3     2    2
    13    11     9    2
    14    11    13    1
    15     2     4    1
    16     4     5    1
