@<TRIPOS>MOLECULE
/home/cewinharhar/GITHUB/reincatalyze/data/processed/docking_pred/2023-May-17-1006_maxeplen10_maxtrainstep1000_seadep16_gamma099_lrac9e-4_lrcr1e-3_sub6/1e16add1d5649bf0b13dd0d86c7d3fc630d89625_ligand_6.pdbqt
 15 16 0 0 0
SMALL
GASTEIGER

@<TRIPOS>ATOM
      1  C          5.8380    1.6730    1.1940 C.3     1  UNL1        0.1270
      2  C          5.0850    0.7310    2.0070 C.2     1  UNL1        0.3030
      3  O          3.9370    0.8990    2.4230 O.2     1  UNL1       -0.2520
      4  O          5.7180   -0.4740    2.3500 O.3     1  UNL1       -0.4810
      5  H          5.1120   -1.2390    2.6060 H       1  UNL1        0.2960
      6  C          5.7280    1.4320   -0.2610 C.3     1  UNL1        0.0470
      7  C          6.7790    0.6340   -0.8960 C.2     1  UNL1       -0.0430
      8  C          8.1130    1.0040   -0.8240 C.2     1  UNL1        0.0080
      9  C          6.4670   -0.4870   -1.6190 C.2     1  UNL1        0.0540
     10  C          9.0980    0.2750   -1.4520 C.2     1  UNL1        0.0510
     11  C          7.4390   -1.2340   -2.2570 C.2     1  UNL1        0.1660
     12  C          8.7570   -0.8560   -2.1760 C.2     1  UNL1        0.1650
     13  O          7.3580   -2.3810   -3.0270 O.2     1  UNL1       -0.4540
     14  O          9.4900   -1.7900   -2.9100 O.2     1  UNL1       -0.4540
     15  C          8.6130   -2.5600   -3.7000 C.3     1  UNL1        0.4680
@<TRIPOS>BOND
     1    15    13    1
     2    15    14    1
     3    13    11    1
     4    14    12    1
     5    11    12    2
     6    11     9    1
     7    12    10    1
     8     9     7    2
     9    10     8    2
    10     7     8    1
    11     7     6    1
    12     6     1    1
    13     1     2    1
    14     2     4    1
    15     2     3    2
    16     4     5    1
