@<TRIPOS>MOLECULE
/home/cewinharhar/GITHUB/reincatalyze/data/processed/docking_pred/2023-May-17-1006_maxeplen10_maxtrainstep1000_seadep16_gamma099_lrac9e-4_lrcr1e-3_sub6/1e16add1d5649bf0b13dd0d86c7d3fc630d89625_ligand_6.pdbqt
 15 16 0 0 0
SMALL
GASTEIGER

@<TRIPOS>ATOM
      1  C          4.9950    1.7300    0.7450 C.3     1  UNL1        0.1270
      2  C          4.4960    1.0760    1.9450 C.2     1  UNL1        0.3030
      3  O          5.0750    0.1870    2.5710 O.2     1  UNL1       -0.2520
      4  O          3.2470    1.4930    2.4340 O.3     1  UNL1       -0.4810
      5  H          3.0850    2.4880    2.4500 H       1  UNL1        0.2960
      6  C          6.4560    1.6020    0.5560 C.3     1  UNL1        0.0470
      7  C          6.9510    0.3880   -0.0960 C.2     1  UNL1       -0.0430
      8  C          6.7190    0.1420   -1.4410 C.2     1  UNL1        0.0080
      9  C          7.6280   -0.5640    0.6180 C.2     1  UNL1        0.0540
     10  C          7.1520   -1.0160   -2.0470 C.2     1  UNL1        0.0510
     11  C          8.0730   -1.7340    0.0310 C.2     1  UNL1        0.1660
     12  C          7.8370   -1.9640   -1.3030 C.2     1  UNL1        0.1650
     13  O          8.7650   -2.8150    0.5460 O.2     1  UNL1       -0.4540
     14  O          8.3960   -3.2070   -1.6030 O.2     1  UNL1       -0.4540
     15  C          8.6990   -3.8870   -0.4070 C.3     1  UNL1        0.4680
@<TRIPOS>BOND
     1    10     8    1
     2    10    12    2
     3    14    12    1
     4    14    15    1
     5     8     7    2
     6    12    11    1
     7    15    13    1
     8     7     6    1
     9     7     9    1
    10    11    13    1
    11    11     9    2
    12     6     1    1
    13     1     2    1
    14     2     4    1
    15     2     3    2
    16     4     5    1
