@<TRIPOS>MOLECULE
/home/cewinharhar/GITHUB/reincatalyze/data/processed/docking_pred/2023-May-17-1006_maxeplen10_maxtrainstep1000_seadep16_gamma099_lrac9e-4_lrcr1e-3_sub6/1e20ac6c45a20644dde897fa0fc5711864bcd284_ligand_6.pdbqt
 15 16 0 0 0
SMALL
GASTEIGER

@<TRIPOS>ATOM
      1  C          6.4090    1.3050    0.6370 C.3     1  UNL1        0.1270
      2  C          5.1990    1.3280    1.4430 C.2     1  UNL1        0.3030
      3  O          4.2880    2.1530    1.3460 O.2     1  UNL1       -0.2520
      4  O          5.0530    0.3270    2.4160 O.3     1  UNL1       -0.4810
      5  H          4.8480   -0.5990    2.0750 H       1  UNL1        0.2960
      6  C          6.2050    0.8020   -0.7380 C.3     1  UNL1        0.0470
      7  C          6.9710   -0.3770   -1.1480 C.2     1  UNL1       -0.0430
      8  C          7.2790   -0.6130   -2.4790 C.2     1  UNL1        0.0080
      9  C          7.3740   -1.3060   -0.2260 C.2     1  UNL1        0.0540
     10  C          7.9680   -1.7400   -2.8700 C.2     1  UNL1        0.0510
     11  C          8.0670   -2.4430   -0.5950 C.2     1  UNL1        0.1660
     12  C          8.3670   -2.6640   -1.9180 C.2     1  UNL1        0.1650
     13  O          8.5660   -3.4970    0.1490 O.2     1  UNL1       -0.4540
     14  O          9.0600   -3.8740   -1.9770 O.2     1  UNL1       -0.4540
     15  C          8.9200   -4.5570   -0.7530 C.3     1  UNL1        0.4680
@<TRIPOS>BOND
     1    10     8    1
     2    10    12    2
     3     8     7    2
     4    14    12    1
     5    14    15    1
     6    12    11    1
     7     7     6    1
     8     7     9    1
     9    15    13    1
    10     6     1    1
    11    11     9    2
    12    11    13    1
    13     1     2    1
    14     3     2    2
    15     2     4    1
    16     5     4    1
