@<TRIPOS>MOLECULE
/home/cewinharhar/GITHUB/reincatalyze/data/processed/docking_pred/2023-May-17-1006_maxeplen10_maxtrainstep1000_seadep16_gamma099_lrac9e-4_lrcr1e-3_sub6/1e20ac6c45a20644dde897fa0fc5711864bcd284_ligand_6.pdbqt
 15 16 0 0 0
SMALL
GASTEIGER

@<TRIPOS>ATOM
      1  C          5.6300    2.5560    0.1110 C.3     1  UNL1        0.1270
      2  C          6.3080    3.5580    0.9190 C.2     1  UNL1        0.3030
      3  O          6.5250    3.4750    2.1290 O.2     1  UNL1       -0.2520
      4  O          6.7530    4.7190    0.2670 O.3     1  UNL1       -0.4810
      5  H          7.7520    4.8270    0.1830 H       1  UNL1        0.2960
      6  C          5.6160    1.2070    0.7150 C.3     1  UNL1        0.0470
      7  C          6.4010    0.1620    0.0560 C.2     1  UNL1       -0.0430
      8  C          6.5400    0.1200   -1.3230 C.2     1  UNL1        0.0080
      9  C          6.9940   -0.8340    0.7860 C.2     1  UNL1        0.0540
     10  C          7.2490   -0.8830   -1.9460 C.2     1  UNL1        0.0510
     11  C          7.7100   -1.8500    0.1820 C.2     1  UNL1        0.1660
     12  C          7.8400   -1.8790   -1.1850 C.2     1  UNL1        0.1650
     13  O          8.3820   -2.9400    0.7090 O.2     1  UNL1       -0.4540
     14  O          8.6040   -3.0050   -1.4940 O.2     1  UNL1       -0.4540
     15  C          8.6840   -3.8430   -0.3650 C.3     1  UNL1        0.4680
@<TRIPOS>BOND
     1    10     8    1
     2    10    12    2
     3    14    12    1
     4    14    15    1
     5     8     7    2
     6    12    11    1
     7    15    13    1
     8     7     6    1
     9     7     9    1
    10     1     6    1
    11     1     2    1
    12    11    13    1
    13    11     9    2
    14     5     4    1
    15     4     2    1
    16     2     3    2
