MODEL 1
REMARK VINA RESULT:      -7.7      0.000      0.000
REMARK SMILES O=C(O)CCc1ccc2c(c1)OCO2
REMARK SMILES IDX 4 1 2 2 1 3 3 4 5 6 6 7 7 8 11 9 8 10 10 11 9 12 12 13 14 14
REMARK SMILES IDX 13 15
REMARK H PARENT 3 5
REMARK Flexibility Score: inf
ROOT
ATOM      1  C   UNL     1       5.411   2.874   0.121  1.00  0.00     0.127 C 
ENDROOT
BRANCH   1   2
ATOM      2  C   UNL     1       6.239   3.850   0.812  1.00  0.00     0.303 C 
ATOM      3  O   UNL     1       6.866   4.766   0.277  1.00  0.00    -0.252 OA
BRANCH   2   4
ATOM      4  O   UNL     1       6.332   3.743   2.209  1.00  0.00    -0.481 OA
ATOM      5  H   UNL     1       7.262   3.648   2.587  1.00  0.00     0.296 HD
ENDBRANCH   2   4
ENDBRANCH   1   2
BRANCH   1   6
ATOM      6  C   UNL     1       5.342   1.560   0.797  1.00  0.00     0.047 C 
BRANCH   6   7
ATOM      7  C   UNL     1       6.123   0.462   0.225  1.00  0.00    -0.043 A 
ATOM      8  C   UNL     1       6.582  -0.586   1.008  1.00  0.00     0.008 A 
ATOM      9  C   UNL     1       6.458   0.459  -1.104  1.00  0.00     0.054 A 
ATOM     10  C   UNL     1       7.348  -1.601   0.478  1.00  0.00     0.051 A 
ATOM     11  C   UNL     1       7.225  -0.549  -1.657  1.00  0.00     0.166 A 
ATOM     12  C   UNL     1       7.672  -1.582  -0.869  1.00  0.00     0.165 A 
ATOM     13  O   UNL     1       7.677  -0.756  -2.949  1.00  0.00    -0.454 OA
ATOM     14  O   UNL     1       8.408  -2.431  -1.697  1.00  0.00    -0.454 OA
ATOM     15  C   UNL     1       8.685  -1.777  -2.914  1.00  0.00     0.468 C 
ENDBRANCH   6   7
ENDBRANCH   1   6
TORSDOF 4
ENDMDL
MODEL 2
REMARK VINA RESULT:      -7.6      2.118      2.501
REMARK SMILES O=C(O)CCc1ccc2c(c1)OCO2
REMARK SMILES IDX 4 1 2 2 1 3 3 4 5 6 6 7 7 8 11 9 8 10 10 11 9 12 12 13 14 14
REMARK SMILES IDX 13 15
REMARK H PARENT 3 5
REMARK Flexibility Score: inf
ROOT
ATOM      1  C   UNL     1       4.679   1.871   0.685  1.00  0.00     0.127 C 
ENDROOT
BRANCH   1   2
ATOM      2  C   UNL     1       4.403   1.147   1.917  1.00  0.00     0.303 C 
ATOM      3  O   UNL     1       5.150   0.324   2.448  1.00  0.00    -0.252 OA
BRANCH   2   4
ATOM      4  O   UNL     1       3.181   1.408   2.557  1.00  0.00    -0.481 OA
ATOM      5  H   UNL     1       3.026   2.361   2.849  1.00  0.00     0.296 HD
ENDBRANCH   2   4
ENDBRANCH   1   2
BRANCH   1   6
ATOM      6  C   UNL     1       6.098   2.246   0.515  1.00  0.00     0.047 C 
BRANCH   6   7
ATOM      7  C   UNL     1       6.955   1.332  -0.243  1.00  0.00    -0.043 A 
ATOM      8  C   UNL     1       8.322   1.539  -0.349  1.00  0.00     0.008 A 
ATOM      9  C   UNL     1       6.420   0.260  -0.906  1.00  0.00     0.054 A 
ATOM     10  C   UNL     1       9.123   0.700  -1.091  1.00  0.00     0.051 A 
ATOM     11  C   UNL     1       7.205  -0.596  -1.657  1.00  0.00     0.166 A 
ATOM     12  C   UNL     1       8.558  -0.379  -1.752  1.00  0.00     0.165 A 
ATOM     13  O   UNL     1       6.888  -1.721  -2.397  1.00  0.00    -0.454 OA
ATOM     14  O   UNL     1       9.072  -1.390  -2.564  1.00  0.00    -0.454 OA
ATOM     15  C   UNL     1       8.015  -2.046  -3.225  1.00  0.00     0.468 C 
ENDBRANCH   6   7
ENDBRANCH   1   6
TORSDOF 4
ENDMDL
MODEL 3
REMARK VINA RESULT:      -7.5      1.963      2.886
REMARK SMILES O=C(O)CCc1ccc2c(c1)OCO2
REMARK SMILES IDX 4 1 2 2 1 3 3 4 5 6 6 7 7 8 11 9 8 10 10 11 9 12 12 13 14 14
REMARK SMILES IDX 13 15
REMARK H PARENT 3 5
REMARK Flexibility Score: inf
ROOT
ATOM      1  C   UNL     1       6.409   1.305   0.637  1.00  0.00     0.127 C 
ENDROOT
BRANCH   1   2
ATOM      2  C   UNL     1       5.199   1.328   1.443  1.00  0.00     0.303 C 
ATOM      3  O   UNL     1       4.288   2.153   1.346  1.00  0.00    -0.252 OA
BRANCH   2   4
ATOM      4  O   UNL     1       5.053   0.327   2.416  1.00  0.00    -0.481 OA
ATOM      5  H   UNL     1       4.848  -0.599   2.075  1.00  0.00     0.296 HD
ENDBRANCH   2   4
ENDBRANCH   1   2
BRANCH   1   6
ATOM      6  C   UNL     1       6.205   0.802  -0.738  1.00  0.00     0.047 C 
BRANCH   6   7
ATOM      7  C   UNL     1       6.971  -0.377  -1.148  1.00  0.00    -0.043 A 
ATOM      8  C   UNL     1       7.279  -0.613  -2.479  1.00  0.00     0.008 A 
ATOM      9  C   UNL     1       7.374  -1.306  -0.226  1.00  0.00     0.054 A 
ATOM     10  C   UNL     1       7.968  -1.740  -2.870  1.00  0.00     0.051 A 
ATOM     11  C   UNL     1       8.067  -2.443  -0.595  1.00  0.00     0.166 A 
ATOM     12  C   UNL     1       8.367  -2.664  -1.918  1.00  0.00     0.165 A 
ATOM     13  O   UNL     1       8.566  -3.497   0.149  1.00  0.00    -0.454 OA
ATOM     14  O   UNL     1       9.060  -3.874  -1.977  1.00  0.00    -0.454 OA
ATOM     15  C   UNL     1       8.920  -4.557  -0.753  1.00  0.00     0.468 C 
ENDBRANCH   6   7
ENDBRANCH   1   6
TORSDOF 4
ENDMDL
MODEL 4
REMARK VINA RESULT:      -7.5      1.794      5.291
REMARK SMILES O=C(O)CCc1ccc2c(c1)OCO2
REMARK SMILES IDX 4 1 2 2 1 3 3 4 5 6 6 7 7 8 11 9 8 10 10 11 9 12 12 13 14 14
REMARK SMILES IDX 13 15
REMARK H PARENT 3 5
REMARK Flexibility Score: inf
ROOT
ATOM      1  C   UNL     1       8.292  -0.324  -2.845  1.00  0.00     0.127 C 
ENDROOT
BRANCH   1   2
ATOM      2  C   UNL     1       8.466  -1.751  -3.064  1.00  0.00     0.303 C 
ATOM      3  O   UNL     1       9.536  -2.360  -3.010  1.00  0.00    -0.252 OA
BRANCH   2   4
ATOM      4  O   UNL     1       7.318  -2.502  -3.363  1.00  0.00    -0.481 OA
ATOM      5  H   UNL     1       7.291  -2.931  -4.275  1.00  0.00     0.296 HD
ENDBRANCH   2   4
ENDBRANCH   1   2
BRANCH   1   6
ATOM      6  C   UNL     1       8.748   0.139  -1.517  1.00  0.00     0.047 C 
BRANCH   6   7
ATOM      7  C   UNL     1       7.780   0.105  -0.419  1.00  0.00    -0.043 A 
ATOM      8  C   UNL     1       7.738  -0.951   0.478  1.00  0.00     0.008 A 
ATOM      9  C   UNL     1       6.856   1.105  -0.269  1.00  0.00     0.054 A 
ATOM     10  C   UNL     1       6.805  -1.002   1.490  1.00  0.00     0.051 A 
ATOM     11  C   UNL     1       5.910   1.075   0.739  1.00  0.00     0.166 A 
ATOM     12  C   UNL     1       5.881   0.023   1.622  1.00  0.00     0.165 A 
ATOM     13  O   UNL     1       4.899   1.958   1.076  1.00  0.00    -0.454 OA
ATOM     14  O   UNL     1       4.834   0.270   2.510  1.00  0.00    -0.454 OA
ATOM     15  C   UNL     1       4.019   1.301   2.001  1.00  0.00     0.468 C 
ENDBRANCH   6   7
ENDBRANCH   1   6
TORSDOF 4
ENDMDL
MODEL 5
REMARK VINA RESULT:      -7.4      1.027      2.138
REMARK SMILES O=C(O)CCc1ccc2c(c1)OCO2
REMARK SMILES IDX 4 1 2 2 1 3 3 4 5 6 6 7 7 8 11 9 8 10 10 11 9 12 12 13 14 14
REMARK SMILES IDX 13 15
REMARK H PARENT 3 5
REMARK Flexibility Score: inf
ROOT
ATOM      1  C   UNL     1       5.630   2.556   0.111  1.00  0.00     0.127 C 
ENDROOT
BRANCH   1   2
ATOM      2  C   UNL     1       6.308   3.558   0.919  1.00  0.00     0.303 C 
ATOM      3  O   UNL     1       6.525   3.475   2.129  1.00  0.00    -0.252 OA
BRANCH   2   4
ATOM      4  O   UNL     1       6.753   4.719   0.267  1.00  0.00    -0.481 OA
ATOM      5  H   UNL     1       7.752   4.827   0.183  1.00  0.00     0.296 HD
ENDBRANCH   2   4
ENDBRANCH   1   2
BRANCH   1   6
ATOM      6  C   UNL     1       5.616   1.207   0.715  1.00  0.00     0.047 C 
BRANCH   6   7
ATOM      7  C   UNL     1       6.401   0.162   0.056  1.00  0.00    -0.043 A 
ATOM      8  C   UNL     1       6.540   0.120  -1.323  1.00  0.00     0.008 A 
ATOM      9  C   UNL     1       6.994  -0.834   0.786  1.00  0.00     0.054 A 
ATOM     10  C   UNL     1       7.249  -0.883  -1.946  1.00  0.00     0.051 A 
ATOM     11  C   UNL     1       7.710  -1.850   0.182  1.00  0.00     0.166 A 
ATOM     12  C   UNL     1       7.840  -1.879  -1.185  1.00  0.00     0.165 A 
ATOM     13  O   UNL     1       8.382  -2.940   0.709  1.00  0.00    -0.454 OA
ATOM     14  O   UNL     1       8.604  -3.005  -1.494  1.00  0.00    -0.454 OA
ATOM     15  C   UNL     1       8.684  -3.843  -0.365  1.00  0.00     0.468 C 
ENDBRANCH   6   7
ENDBRANCH   1   6
TORSDOF 4
ENDMDL
