@<TRIPOS>MOLECULE
/home/cewinharhar/GITHUB/reincatalyze/data/processed/docking_pred/2023-May-17-1006_maxeplen10_maxtrainstep1000_seadep16_gamma099_lrac9e-4_lrcr1e-3_sub6/1e20ac6c45a20644dde897fa0fc5711864bcd284_ligand_6.pdbqt
 15 16 0 0 0
SMALL
GASTEIGER

@<TRIPOS>ATOM
      1  C          5.4110    2.8740    0.1210 C.3     1  UNL1        0.1270
      2  C          6.2390    3.8500    0.8120 C.2     1  UNL1        0.3030
      3  O          6.8660    4.7660    0.2770 O.2     1  UNL1       -0.2520
      4  O          6.3320    3.7430    2.2090 O.3     1  UNL1       -0.4810
      5  H          7.2620    3.6480    2.5870 H       1  UNL1        0.2960
      6  C          5.3420    1.5600    0.7970 C.3     1  UNL1        0.0470
      7  C          6.1230    0.4620    0.2250 C.2     1  UNL1       -0.0430
      8  C          6.5820   -0.5860    1.0080 C.2     1  UNL1        0.0080
      9  C          6.4580    0.4590   -1.1040 C.2     1  UNL1        0.0540
     10  C          7.3480   -1.6010    0.4780 C.2     1  UNL1        0.0510
     11  C          7.2250   -0.5490   -1.6570 C.2     1  UNL1        0.1660
     12  C          7.6720   -1.5820   -0.8690 C.2     1  UNL1        0.1650
     13  O          7.6770   -0.7560   -2.9490 O.2     1  UNL1       -0.4540
     14  O          8.4080   -2.4310   -1.6970 O.2     1  UNL1       -0.4540
     15  C          8.6850   -1.7770   -2.9140 C.3     1  UNL1        0.4680
@<TRIPOS>BOND
     1    13    15    1
     2    13    11    1
     3    15    14    1
     4    14    12    1
     5    11     9    1
     6    11    12    2
     7     9     7    2
     8    12    10    1
     9     1     6    1
    10     1     2    1
    11     7     6    1
    12     7     8    1
    13     3     2    2
    14    10     8    2
    15     2     4    1
    16     4     5    1
