@<TRIPOS>MOLECULE
/home/cewinharhar/GITHUB/reincatalyze/data/processed/docking_pred/2023-May-17-1006_maxeplen10_maxtrainstep1000_seadep16_gamma099_lrac9e-4_lrcr1e-3_sub6/1e20ac6c45a20644dde897fa0fc5711864bcd284_ligand_6.pdbqt
 15 16 0 0 0
SMALL
GASTEIGER

@<TRIPOS>ATOM
      1  C          8.2920   -0.3240   -2.8450 C.3     1  UNL1        0.1270
      2  C          8.4660   -1.7510   -3.0640 C.2     1  UNL1        0.3030
      3  O          9.5360   -2.3600   -3.0100 O.2     1  UNL1       -0.2520
      4  O          7.3180   -2.5020   -3.3630 O.3     1  UNL1       -0.4810
      5  H          7.2910   -2.9310   -4.2750 H       1  UNL1        0.2960
      6  C          8.7480    0.1390   -1.5170 C.3     1  UNL1        0.0470
      7  C          7.7800    0.1050   -0.4190 C.2     1  UNL1       -0.0430
      8  C          7.7380   -0.9510    0.4780 C.2     1  UNL1        0.0080
      9  C          6.8560    1.1050   -0.2690 C.2     1  UNL1        0.0540
     10  C          6.8050   -1.0020    1.4900 C.2     1  UNL1        0.0510
     11  C          5.9100    1.0750    0.7390 C.2     1  UNL1        0.1660
     12  C          5.8810    0.0230    1.6220 C.2     1  UNL1        0.1650
     13  O          4.8990    1.9580    1.0760 O.2     1  UNL1       -0.4540
     14  O          4.8340    0.2700    2.5100 O.2     1  UNL1       -0.4540
     15  C          4.0190    1.3010    2.0010 C.3     1  UNL1        0.4680
@<TRIPOS>BOND
     1     5     4    1
     2     4     2    1
     3     2     3    2
     4     2     1    1
     5     1     6    1
     6     6     7    1
     7     7     9    2
     8     7     8    1
     9     9    11    1
    10     8    10    2
    11    11    13    1
    12    11    12    2
    13    13    15    1
    14    10    12    1
    15    12    14    1
    16    15    14    1
