@<TRIPOS>MOLECULE
/home/cewinharhar/GITHUB/reincatalyze/data/processed/docking_pred/2023-May-17-1006_maxeplen10_maxtrainstep1000_seadep16_gamma099_lrac9e-4_lrcr1e-3_sub6/1e20ac6c45a20644dde897fa0fc5711864bcd284_ligand_6.pdbqt
 15 16 0 0 0
SMALL
GASTEIGER

@<TRIPOS>ATOM
      1  C          4.6790    1.8710    0.6850 C.3     1  UNL1        0.1270
      2  C          4.4030    1.1470    1.9170 C.2     1  UNL1        0.3030
      3  O          5.1500    0.3240    2.4480 O.2     1  UNL1       -0.2520
      4  O          3.1810    1.4080    2.5570 O.3     1  UNL1       -0.4810
      5  H          3.0260    2.3610    2.8490 H       1  UNL1        0.2960
      6  C          6.0980    2.2460    0.5150 C.3     1  UNL1        0.0470
      7  C          6.9550    1.3320   -0.2430 C.2     1  UNL1       -0.0430
      8  C          8.3220    1.5390   -0.3490 C.2     1  UNL1        0.0080
      9  C          6.4200    0.2600   -0.9060 C.2     1  UNL1        0.0540
     10  C          9.1230    0.7000   -1.0910 C.2     1  UNL1        0.0510
     11  C          7.2050   -0.5960   -1.6570 C.2     1  UNL1        0.1660
     12  C          8.5580   -0.3790   -1.7520 C.2     1  UNL1        0.1650
     13  O          6.8880   -1.7210   -2.3970 O.2     1  UNL1       -0.4540
     14  O          9.0720   -1.3900   -2.5640 O.2     1  UNL1       -0.4540
     15  C          8.0150   -2.0460   -3.2250 C.3     1  UNL1        0.4680
@<TRIPOS>BOND
     1    15    14    1
     2    15    13    1
     3    14    12    1
     4    13    11    1
     5    12    11    2
     6    12    10    1
     7    11     9    1
     8    10     8    2
     9     9     7    2
    10     8     7    1
    11     7     6    1
    12     6     1    1
    13     1     2    1
    14     2     3    2
    15     2     4    1
    16     4     5    1
