@<TRIPOS>MOLECULE
/home/cewinharhar/GITHUB/reincatalyze/data/processed/docking_pred/2023-May-17-1006_maxeplen10_maxtrainstep1000_seadep16_gamma099_lrac9e-4_lrcr1e-3_sub6/1e8ffecbec14ce573bf52adb8829230239be76a8_ligand_6.pdbqt
 15 16 0 0 0
SMALL
GASTEIGER

@<TRIPOS>ATOM
      1  C          5.4670    0.9810    0.5310 C.3     1  UNL1        0.1270
      2  C          5.1000    0.5360    1.8660 C.2     1  UNL1        0.3030
      3  O          5.7510   -0.2410    2.5670 O.2     1  UNL1       -0.2520
      4  O          3.9030    1.0330    2.4050 O.3     1  UNL1       -0.4810
      5  H          3.5720    1.9050    2.0230 H       1  UNL1        0.2960
      6  C          6.9190    0.9180    0.2550 C.3     1  UNL1        0.0470
      7  C          7.4180   -0.2450   -0.4810 C.2     1  UNL1       -0.0430
      8  C          7.3930   -0.2920   -1.8670 C.2     1  UNL1        0.0080
      9  C          7.8920   -1.3450    0.1840 C.2     1  UNL1        0.0540
     10  C          7.8290   -1.3990   -2.5590 C.2     1  UNL1        0.0510
     11  C          8.3340   -2.4670   -0.4900 C.2     1  UNL1        0.1660
     12  C          8.3050   -2.4980   -1.8630 C.2     1  UNL1        0.1650
     13  O          8.8450   -3.6700   -0.0350 O.2     1  UNL1       -0.4540
     14  O          8.8060   -3.7430   -2.2490 O.2     1  UNL1       -0.4540
     15  C          8.8530   -4.5980   -1.1300 C.3     1  UNL1        0.4680
@<TRIPOS>BOND
     1    10     8    1
     2    10    12    2
     3    14    12    1
     4    14    15    1
     5     8     7    2
     6    12    11    1
     7    15    13    1
     8    11    13    1
     9    11     9    2
    10     7     9    1
    11     7     6    1
    12     6     1    1
    13     1     2    1
    14     2     4    1
    15     2     3    2
    16     5     4    1
