@<TRIPOS>MOLECULE
/home/cewinharhar/GITHUB/reincatalyze/data/processed/docking_pred/2023-May-17-1006_maxeplen10_maxtrainstep1000_seadep16_gamma099_lrac9e-4_lrcr1e-3_sub6/1e8ffecbec14ce573bf52adb8829230239be76a8_ligand_6.pdbqt
 15 16 0 0 0
SMALL
GASTEIGER

@<TRIPOS>ATOM
      1  C          6.1780    2.5900   -0.2300 C.3     1  UNL1        0.1270
      2  C          6.5920    3.6490    0.6770 C.2     1  UNL1        0.3030
      3  O          6.9660    4.7750    0.3440 O.2     1  UNL1       -0.2520
      4  O          6.5630    3.3670    2.0520 O.3     1  UNL1       -0.4810
      5  H          7.4570    3.3210    2.5160 H       1  UNL1        0.2960
      6  C          5.7340    1.3550    0.4500 C.3     1  UNL1        0.0470
      7  C          6.4720    0.1230    0.1660 C.2     1  UNL1       -0.0430
      8  C          7.0730   -0.6120    1.1770 C.2     1  UNL1        0.0080
      9  C          6.6240   -0.3210   -1.1210 C.2     1  UNL1        0.0540
     10  C          7.7980   -1.7510    0.9070 C.2     1  UNL1        0.0510
     11  C          7.3460   -1.4620   -1.4150 C.2     1  UNL1        0.1660
     12  C          7.9350   -2.1810   -0.4030 C.2     1  UNL1        0.1650
     13  O          7.6270   -2.0880   -2.6180 O.2     1  UNL1       -0.4540
     14  O          8.5850   -3.2620   -1.0020 O.2     1  UNL1       -0.4540
     15  C          8.6680   -3.0490   -2.3920 C.3     1  UNL1        0.4680
@<TRIPOS>BOND
     1    13    15    1
     2    13    11    1
     3    15    14    1
     4    11     9    1
     5    11    12    2
     6     9     7    2
     7    14    12    1
     8    12    10    1
     9     1     6    1
    10     1     2    1
    11     7     6    1
    12     7     8    1
    13     3     2    2
    14     2     4    1
    15    10     8    2
    16     4     5    1
