@<TRIPOS>MOLECULE
/home/cewinharhar/GITHUB/reincatalyze/data/processed/docking_pred/2023-May-17-1006_maxeplen10_maxtrainstep1000_seadep16_gamma099_lrac9e-4_lrcr1e-3_sub6/1e8ffecbec14ce573bf52adb8829230239be76a8_ligand_6.pdbqt
 15 16 0 0 0
SMALL
GASTEIGER

@<TRIPOS>ATOM
      1  C          8.3950   -0.3150   -3.2130 C.3     1  UNL1        0.1270
      2  C          8.5150   -1.7650   -3.2030 C.2     1  UNL1        0.3030
      3  O          9.5630   -2.3970   -3.0630 O.2     1  UNL1       -0.2520
      4  O          7.3360   -2.5100   -3.3670 O.3     1  UNL1       -0.4810
      5  H          6.5180   -2.1580   -2.8950 H       1  UNL1        0.2960
      6  C          8.9250    0.3390   -1.9970 C.3     1  UNL1        0.0470
      7  C          8.1750    0.1620   -0.7520 C.2     1  UNL1       -0.0430
      8  C          8.6170   -0.6920    0.2460 C.2     1  UNL1        0.0080
      9  C          6.9860    0.8130   -0.5520 C.2     1  UNL1        0.0540
     10  C          7.8940   -0.8870    1.4020 C.2     1  UNL1        0.0510
     11  C          6.2440    0.6340    0.6000 C.2     1  UNL1        0.1660
     12  C          6.6950   -0.2160    1.5810 C.2     1  UNL1        0.1650
     13  O          5.0390    1.1760    1.0100 O.2     1  UNL1       -0.4540
     14  O          5.7470   -0.1890    2.6040 O.2     1  UNL1       -0.4540
     15  C          4.5670    0.4220    2.1360 C.3     1  UNL1        0.4680
@<TRIPOS>BOND
     1     4     2    1
     2     4     5    1
     3     1     2    1
     4     1     6    1
     5     2     3    2
     6     6     7    1
     7     7     9    2
     8     7     8    1
     9     9    11    1
    10     8    10    2
    11    11    13    1
    12    11    12    2
    13    13    15    1
    14    10    12    1
    15    12    14    1
    16    15    14    1
