MODEL 1
REMARK VINA RESULT:      -7.3      0.000      0.000
REMARK SMILES O=C(O)CCc1ccc2c(c1)OCO2
REMARK SMILES IDX 4 1 2 2 1 3 3 4 5 6 6 7 7 8 11 9 8 10 10 11 9 12 12 13 14 14
REMARK SMILES IDX 13 15
REMARK H PARENT 3 5
REMARK Flexibility Score: inf
ROOT
ATOM      1  C   UNL     1       5.467   0.981   0.531  1.00  0.00     0.127 C 
ENDROOT
BRANCH   1   2
ATOM      2  C   UNL     1       5.100   0.536   1.866  1.00  0.00     0.303 C 
ATOM      3  O   UNL     1       5.751  -0.241   2.567  1.00  0.00    -0.252 OA
BRANCH   2   4
ATOM      4  O   UNL     1       3.903   1.033   2.405  1.00  0.00    -0.481 OA
ATOM      5  H   UNL     1       3.572   1.905   2.023  1.00  0.00     0.296 HD
ENDBRANCH   2   4
ENDBRANCH   1   2
BRANCH   1   6
ATOM      6  C   UNL     1       6.919   0.918   0.255  1.00  0.00     0.047 C 
BRANCH   6   7
ATOM      7  C   UNL     1       7.418  -0.245  -0.481  1.00  0.00    -0.043 A 
ATOM      8  C   UNL     1       7.393  -0.292  -1.867  1.00  0.00     0.008 A 
ATOM      9  C   UNL     1       7.892  -1.345   0.184  1.00  0.00     0.054 A 
ATOM     10  C   UNL     1       7.829  -1.399  -2.559  1.00  0.00     0.051 A 
ATOM     11  C   UNL     1       8.334  -2.467  -0.490  1.00  0.00     0.166 A 
ATOM     12  C   UNL     1       8.305  -2.498  -1.863  1.00  0.00     0.165 A 
ATOM     13  O   UNL     1       8.845  -3.670  -0.035  1.00  0.00    -0.454 OA
ATOM     14  O   UNL     1       8.806  -3.743  -2.249  1.00  0.00    -0.454 OA
ATOM     15  C   UNL     1       8.853  -4.598  -1.130  1.00  0.00     0.468 C 
ENDBRANCH   6   7
ENDBRANCH   1   6
TORSDOF 4
ENDMDL
MODEL 2
REMARK VINA RESULT:      -7.1      1.748      5.261
REMARK SMILES O=C(O)CCc1ccc2c(c1)OCO2
REMARK SMILES IDX 4 1 2 2 1 3 3 4 5 6 6 7 7 8 11 9 8 10 10 11 9 12 12 13 14 14
REMARK SMILES IDX 13 15
REMARK H PARENT 3 5
REMARK Flexibility Score: inf
ROOT
ATOM      1  C   UNL     1       8.395  -0.315  -3.213  1.00  0.00     0.127 C 
ENDROOT
BRANCH   1   2
ATOM      2  C   UNL     1       8.515  -1.765  -3.203  1.00  0.00     0.303 C 
ATOM      3  O   UNL     1       9.563  -2.397  -3.063  1.00  0.00    -0.252 OA
BRANCH   2   4
ATOM      4  O   UNL     1       7.336  -2.510  -3.367  1.00  0.00    -0.481 OA
ATOM      5  H   UNL     1       6.518  -2.158  -2.895  1.00  0.00     0.296 HD
ENDBRANCH   2   4
ENDBRANCH   1   2
BRANCH   1   6
ATOM      6  C   UNL     1       8.925   0.339  -1.997  1.00  0.00     0.047 C 
BRANCH   6   7
ATOM      7  C   UNL     1       8.175   0.162  -0.752  1.00  0.00    -0.043 A 
ATOM      8  C   UNL     1       8.617  -0.692   0.246  1.00  0.00     0.008 A 
ATOM      9  C   UNL     1       6.986   0.813  -0.552  1.00  0.00     0.054 A 
ATOM     10  C   UNL     1       7.894  -0.887   1.402  1.00  0.00     0.051 A 
ATOM     11  C   UNL     1       6.244   0.634   0.600  1.00  0.00     0.166 A 
ATOM     12  C   UNL     1       6.695  -0.216   1.581  1.00  0.00     0.165 A 
ATOM     13  O   UNL     1       5.039   1.176   1.010  1.00  0.00    -0.454 OA
ATOM     14  O   UNL     1       5.747  -0.189   2.604  1.00  0.00    -0.454 OA
ATOM     15  C   UNL     1       4.567   0.422   2.136  1.00  0.00     0.468 C 
ENDBRANCH   6   7
ENDBRANCH   1   6
TORSDOF 4
ENDMDL
MODEL 3
REMARK VINA RESULT:      -6.8      1.731      5.095
REMARK SMILES O=C(O)CCc1ccc2c(c1)OCO2
REMARK SMILES IDX 4 1 2 2 1 3 3 4 5 6 6 7 7 8 11 9 8 10 10 11 9 12 12 13 14 14
REMARK SMILES IDX 13 15
REMARK H PARENT 3 5
REMARK Flexibility Score: inf
ROOT
ATOM      1  C   UNL     1       8.725  -0.618  -2.831  1.00  0.00     0.127 C 
ENDROOT
BRANCH   1   2
ATOM      2  C   UNL     1       8.681  -2.046  -3.107  1.00  0.00     0.303 C 
ATOM      3  O   UNL     1       7.664  -2.742  -3.122  1.00  0.00    -0.252 OA
BRANCH   2   4
ATOM      4  O   UNL     1       9.899  -2.688  -3.378  1.00  0.00    -0.481 OA
ATOM      5  H   UNL     1      10.529  -2.203  -3.999  1.00  0.00     0.296 HD
ENDBRANCH   2   4
ENDBRANCH   1   2
BRANCH   1   6
ATOM      6  C   UNL     1       7.393   0.009  -2.696  1.00  0.00     0.047 C 
BRANCH   6   7
ATOM      7  C   UNL     1       6.817   0.093  -1.352  1.00  0.00    -0.043 A 
ATOM      8  C   UNL     1       6.021   1.162  -0.971  1.00  0.00     0.008 A 
ATOM      9  C   UNL     1       7.082  -0.870  -0.415  1.00  0.00     0.054 A 
ATOM     10  C   UNL     1       5.509   1.261   0.304  1.00  0.00     0.051 A 
ATOM     11  C   UNL     1       6.579  -0.792   0.869  1.00  0.00     0.166 A 
ATOM     12  C   UNL     1       5.790   0.273   1.233  1.00  0.00     0.165 A 
ATOM     13  O   UNL     1       6.712  -1.632   1.961  1.00  0.00    -0.454 OA
ATOM     14  O   UNL     1       5.439   0.076   2.570  1.00  0.00    -0.454 OA
ATOM     15  C   UNL     1       6.252  -0.931   3.127  1.00  0.00     0.468 C 
ENDBRANCH   6   7
ENDBRANCH   1   6
TORSDOF 4
ENDMDL
MODEL 4
REMARK VINA RESULT:      -6.8      2.147      2.828
REMARK SMILES O=C(O)CCc1ccc2c(c1)OCO2
REMARK SMILES IDX 4 1 2 2 1 3 3 4 5 6 6 7 7 8 11 9 8 10 10 11 9 12 12 13 14 14
REMARK SMILES IDX 13 15
REMARK H PARENT 3 5
REMARK Flexibility Score: inf
ROOT
ATOM      1  C   UNL     1       6.178   2.590  -0.230  1.00  0.00     0.127 C 
ENDROOT
BRANCH   1   2
ATOM      2  C   UNL     1       6.592   3.649   0.677  1.00  0.00     0.303 C 
ATOM      3  O   UNL     1       6.966   4.775   0.344  1.00  0.00    -0.252 OA
BRANCH   2   4
ATOM      4  O   UNL     1       6.563   3.367   2.052  1.00  0.00    -0.481 OA
ATOM      5  H   UNL     1       7.457   3.321   2.516  1.00  0.00     0.296 HD
ENDBRANCH   2   4
ENDBRANCH   1   2
BRANCH   1   6
ATOM      6  C   UNL     1       5.734   1.355   0.450  1.00  0.00     0.047 C 
BRANCH   6   7
ATOM      7  C   UNL     1       6.472   0.123   0.166  1.00  0.00    -0.043 A 
ATOM      8  C   UNL     1       7.073  -0.612   1.177  1.00  0.00     0.008 A 
ATOM      9  C   UNL     1       6.624  -0.321  -1.121  1.00  0.00     0.054 A 
ATOM     10  C   UNL     1       7.798  -1.751   0.907  1.00  0.00     0.051 A 
ATOM     11  C   UNL     1       7.346  -1.462  -1.415  1.00  0.00     0.166 A 
ATOM     12  C   UNL     1       7.935  -2.181  -0.403  1.00  0.00     0.165 A 
ATOM     13  O   UNL     1       7.627  -2.088  -2.618  1.00  0.00    -0.454 OA
ATOM     14  O   UNL     1       8.585  -3.262  -1.002  1.00  0.00    -0.454 OA
ATOM     15  C   UNL     1       8.668  -3.049  -2.392  1.00  0.00     0.468 C 
ENDBRANCH   6   7
ENDBRANCH   1   6
TORSDOF 4
ENDMDL
