@<TRIPOS>MOLECULE
/home/cewinharhar/GITHUB/reincatalyze/data/processed/docking_pred/2023-May-17-1006_maxeplen10_maxtrainstep1000_seadep16_gamma099_lrac9e-4_lrcr1e-3_sub6/1e8ffecbec14ce573bf52adb8829230239be76a8_ligand_6.pdbqt
 15 16 0 0 0
SMALL
GASTEIGER

@<TRIPOS>ATOM
      1  C          8.7250   -0.6180   -2.8310 C.3     1  UNL1        0.1270
      2  C          8.6810   -2.0460   -3.1070 C.2     1  UNL1        0.3030
      3  O          7.6640   -2.7420   -3.1220 O.2     1  UNL1       -0.2520
      4  O          9.8990   -2.6880   -3.3780 O.3     1  UNL1       -0.4810
      5  H         10.5290   -2.2030   -3.9990 H       1  UNL1        0.2960
      6  C          7.3930    0.0090   -2.6960 C.3     1  UNL1        0.0470
      7  C          6.8170    0.0930   -1.3520 C.2     1  UNL1       -0.0430
      8  C          6.0210    1.1620   -0.9710 C.2     1  UNL1        0.0080
      9  C          7.0820   -0.8700   -0.4150 C.2     1  UNL1        0.0540
     10  C          5.5090    1.2610    0.3040 C.2     1  UNL1        0.0510
     11  C          6.5790   -0.7920    0.8690 C.2     1  UNL1        0.1660
     12  C          5.7900    0.2730    1.2330 C.2     1  UNL1        0.1650
     13  O          6.7120   -1.6320    1.9610 O.2     1  UNL1       -0.4540
     14  O          5.4390    0.0760    2.5700 O.2     1  UNL1       -0.4540
     15  C          6.2520   -0.9310    3.1270 C.3     1  UNL1        0.4680
@<TRIPOS>BOND
     1     5     4    1
     2     4     2    1
     3     3     2    2
     4     2     1    1
     5     1     6    1
     6     6     7    1
     7     7     8    2
     8     7     9    1
     9     8    10    1
    10     9    11    2
    11    10    12    2
    12    11    12    1
    13    11    13    1
    14    12    14    1
    15    13    15    1
    16    14    15    1
