@<TRIPOS>MOLECULE
/home/cewinharhar/GITHUB/reincatalyze/data/processed/docking_pred/2023-May-17-1006_maxeplen10_maxtrainstep1000_seadep16_gamma099_lrac9e-4_lrcr1e-3_sub6/1ec3d4ded79b7f38a98788c4b0a5da992fc20b58_ligand_6.pdbqt
 15 16 0 0 0
SMALL
GASTEIGER

@<TRIPOS>ATOM
      1  C          5.3850    2.8820    0.1500 C.3     1  UNL1        0.1270
      2  C          6.2740    3.8180    0.8210 C.2     1  UNL1        0.3030
      3  O          7.2130    4.4170    0.2950 O.2     1  UNL1       -0.2520
      4  O          6.0430    4.0600    2.1840 O.3     1  UNL1       -0.4810
      5  H          5.3240    4.7330    2.4010 H       1  UNL1        0.2960
      6  C          5.2800    1.5680    0.8210 C.3     1  UNL1        0.0470
      7  C          6.0700    0.4630    0.2740 C.2     1  UNL1       -0.0430
      8  C          6.5360   -0.5640    1.0800 C.2     1  UNL1        0.0080
      9  C          6.4070    0.4330   -1.0540 C.2     1  UNL1        0.0540
     10  C          7.3090   -1.5840    0.5740 C.2     1  UNL1        0.0510
     11  C          7.1820   -0.5810   -1.5840 C.2     1  UNL1        0.1660
     12  C          7.6350   -1.5930   -0.7720 C.2     1  UNL1        0.1650
     13  O          7.6370   -0.8130   -2.8700 O.2     1  UNL1       -0.4540
     14  O          8.3790   -2.4550   -1.5800 O.2     1  UNL1       -0.4540
     15  C          8.6530   -1.8260   -2.8110 C.3     1  UNL1        0.4680
@<TRIPOS>BOND
     1    13    15    1
     2    13    11    1
     3    15    14    1
     4    11     9    1
     5    11    12    2
     6    14    12    1
     7     9     7    2
     8    12    10    1
     9     1     2    1
    10     1     6    1
    11     7     6    1
    12     7     8    1
    13     3     2    2
    14    10     8    2
    15     2     4    1
    16     4     5    1
