MODEL 1
REMARK VINA RESULT:      -7.6      0.000      0.000
REMARK SMILES O=C(O)CCc1ccc2c(c1)OCO2
REMARK SMILES IDX 4 1 2 2 1 3 3 4 5 6 6 7 7 8 11 9 8 10 10 11 9 12 12 13 14 14
REMARK SMILES IDX 13 15
REMARK H PARENT 3 5
REMARK Flexibility Score: inf
ROOT
ATOM      1  C   UNL     1       4.727   1.864   0.716  1.00  0.00     0.127 C 
ENDROOT
BRANCH   1   2
ATOM      2  C   UNL     1       4.414   1.135   1.935  1.00  0.00     0.303 C 
ATOM      3  O   UNL     1       5.135   0.294   2.474  1.00  0.00    -0.252 OA
BRANCH   2   4
ATOM      4  O   UNL     1       3.184   1.412   2.553  1.00  0.00    -0.481 OA
ATOM      5  H   UNL     1       2.803   2.333   2.395  1.00  0.00     0.296 HD
ENDBRANCH   2   4
ENDBRANCH   1   2
BRANCH   1   6
ATOM      6  C   UNL     1       6.158   2.212   0.577  1.00  0.00     0.047 C 
BRANCH   6   7
ATOM      7  C   UNL     1       7.000   1.311  -0.213  1.00  0.00    -0.043 A 
ATOM      8  C   UNL     1       8.358   1.542  -0.372  1.00  0.00     0.008 A 
ATOM      9  C   UNL     1       6.459   0.229  -0.854  1.00  0.00     0.054 A 
ATOM     10  C   UNL     1       9.144   0.716  -1.144  1.00  0.00     0.051 A 
ATOM     11  C   UNL     1       7.229  -0.614  -1.633  1.00  0.00     0.166 A 
ATOM     12  C   UNL     1       8.574  -0.374  -1.780  1.00  0.00     0.165 A 
ATOM     13  O   UNL     1       6.904  -1.747  -2.358  1.00  0.00    -0.454 OA
ATOM     14  O   UNL     1       9.074  -1.378  -2.611  1.00  0.00    -0.454 OA
ATOM     15  C   UNL     1       8.003  -2.053  -3.229  1.00  0.00     0.468 C 
ENDBRANCH   6   7
ENDBRANCH   1   6
TORSDOF 4
ENDMDL
MODEL 2
REMARK VINA RESULT:      -7.4      1.873      2.414
REMARK SMILES O=C(O)CCc1ccc2c(c1)OCO2
REMARK SMILES IDX 4 1 2 2 1 3 3 4 5 6 6 7 7 8 11 9 8 10 10 11 9 12 12 13 14 14
REMARK SMILES IDX 13 15
REMARK H PARENT 3 5
REMARK Flexibility Score: inf
ROOT
ATOM      1  C   UNL     1       6.457   1.253   0.740  1.00  0.00     0.127 C 
ENDROOT
BRANCH   1   2
ATOM      2  C   UNL     1       5.242   1.190   1.536  1.00  0.00     0.303 C 
ATOM      3  O   UNL     1       4.999   0.357   2.411  1.00  0.00    -0.252 OA
BRANCH   2   4
ATOM      4  O   UNL     1       4.259   2.162   1.289  1.00  0.00    -0.481 OA
ATOM      5  H   UNL     1       3.444   2.131   1.881  1.00  0.00     0.296 HD
ENDBRANCH   2   4
ENDBRANCH   1   2
BRANCH   1   6
ATOM      6  C   UNL     1       6.280   0.817  -0.662  1.00  0.00     0.047 C 
BRANCH   6   7
ATOM      7  C   UNL     1       7.017  -0.371  -1.100  1.00  0.00    -0.043 A 
ATOM      8  C   UNL     1       7.286  -0.603  -2.440  1.00  0.00     0.008 A 
ATOM      9  C   UNL     1       7.429  -1.312  -0.194  1.00  0.00     0.054 A 
ATOM     10  C   UNL     1       7.947  -1.737  -2.856  1.00  0.00     0.051 A 
ATOM     11  C   UNL     1       8.095  -2.458  -0.589  1.00  0.00     0.166 A 
ATOM     12  C   UNL     1       8.356  -2.674  -1.921  1.00  0.00     0.165 A 
ATOM     13  O   UNL     1       8.596  -3.525   0.135  1.00  0.00    -0.454 OA
ATOM     14  O   UNL     1       9.028  -3.895  -2.006  1.00  0.00    -0.454 OA
ATOM     15  C   UNL     1       8.910  -4.583  -0.783  1.00  0.00     0.468 C 
ENDBRANCH   6   7
ENDBRANCH   1   6
TORSDOF 4
ENDMDL
MODEL 3
REMARK VINA RESULT:      -7.4      2.139      2.509
REMARK SMILES O=C(O)CCc1ccc2c(c1)OCO2
REMARK SMILES IDX 4 1 2 2 1 3 3 4 5 6 6 7 7 8 11 9 8 10 10 11 9 12 12 13 14 14
REMARK SMILES IDX 13 15
REMARK H PARENT 3 5
REMARK Flexibility Score: inf
ROOT
ATOM      1  C   UNL     1       5.385   2.882   0.150  1.00  0.00     0.127 C 
ENDROOT
BRANCH   1   2
ATOM      2  C   UNL     1       6.274   3.818   0.821  1.00  0.00     0.303 C 
ATOM      3  O   UNL     1       7.213   4.417   0.295  1.00  0.00    -0.252 OA
BRANCH   2   4
ATOM      4  O   UNL     1       6.043   4.060   2.184  1.00  0.00    -0.481 OA
ATOM      5  H   UNL     1       5.324   4.733   2.401  1.00  0.00     0.296 HD
ENDBRANCH   2   4
ENDBRANCH   1   2
BRANCH   1   6
ATOM      6  C   UNL     1       5.280   1.568   0.821  1.00  0.00     0.047 C 
BRANCH   6   7
ATOM      7  C   UNL     1       6.070   0.463   0.274  1.00  0.00    -0.043 A 
ATOM      8  C   UNL     1       6.536  -0.564   1.080  1.00  0.00     0.008 A 
ATOM      9  C   UNL     1       6.407   0.433  -1.054  1.00  0.00     0.054 A 
ATOM     10  C   UNL     1       7.309  -1.584   0.574  1.00  0.00     0.051 A 
ATOM     11  C   UNL     1       7.182  -0.581  -1.584  1.00  0.00     0.166 A 
ATOM     12  C   UNL     1       7.635  -1.593  -0.772  1.00  0.00     0.165 A 
ATOM     13  O   UNL     1       7.637  -0.813  -2.870  1.00  0.00    -0.454 OA
ATOM     14  O   UNL     1       8.379  -2.455  -1.580  1.00  0.00    -0.454 OA
ATOM     15  C   UNL     1       8.653  -1.826  -2.811  1.00  0.00     0.468 C 
ENDBRANCH   6   7
ENDBRANCH   1   6
TORSDOF 4
ENDMDL
MODEL 4
REMARK VINA RESULT:      -7.4      1.435      5.379
REMARK SMILES O=C(O)CCc1ccc2c(c1)OCO2
REMARK SMILES IDX 4 1 2 2 1 3 3 4 5 6 6 7 7 8 11 9 8 10 10 11 9 12 12 13 14 14
REMARK SMILES IDX 13 15
REMARK H PARENT 3 5
REMARK Flexibility Score: inf
ROOT
ATOM      1  C   UNL     1       8.297  -0.323  -2.861  1.00  0.00     0.127 C 
ENDROOT
BRANCH   1   2
ATOM      2  C   UNL     1       8.463  -1.752  -3.076  1.00  0.00     0.303 C 
ATOM      3  O   UNL     1       9.531  -2.365  -3.028  1.00  0.00    -0.252 OA
BRANCH   2   4
ATOM      4  O   UNL     1       7.310  -2.500  -3.361  1.00  0.00    -0.481 OA
ATOM      5  H   UNL     1       7.273  -2.932  -4.271  1.00  0.00     0.296 HD
ENDBRANCH   2   4
ENDBRANCH   1   2
BRANCH   1   6
ATOM      6  C   UNL     1       8.758   0.142  -1.536  1.00  0.00     0.047 C 
BRANCH   6   7
ATOM      7  C   UNL     1       7.795   0.107  -0.433  1.00  0.00    -0.043 A 
ATOM      8  C   UNL     1       7.752  -0.955   0.457  1.00  0.00     0.008 A 
ATOM      9  C   UNL     1       6.877   1.111  -0.273  1.00  0.00     0.054 A 
ATOM     10  C   UNL     1       6.823  -1.007   1.473  1.00  0.00     0.051 A 
ATOM     11  C   UNL     1       5.937   1.080   0.740  1.00  0.00     0.166 A 
ATOM     12  C   UNL     1       5.906   0.022   1.616  1.00  0.00     0.165 A 
ATOM     13  O   UNL     1       4.932   1.966   1.087  1.00  0.00    -0.454 OA
ATOM     14  O   UNL     1       4.864   0.270   2.511  1.00  0.00    -0.454 OA
ATOM     15  C   UNL     1       4.053   1.308   2.012  1.00  0.00     0.468 C 
ENDBRANCH   6   7
ENDBRANCH   1   6
TORSDOF 4
ENDMDL
MODEL 5
REMARK VINA RESULT:      -7.3      1.887      5.652
REMARK SMILES O=C(O)CCc1ccc2c(c1)OCO2
REMARK SMILES IDX 4 1 2 2 1 3 3 4 5 6 6 7 7 8 11 9 8 10 10 11 9 12 12 13 14 14
REMARK SMILES IDX 13 15
REMARK H PARENT 3 5
REMARK Flexibility Score: inf
ROOT
ATOM      1  C   UNL     1       8.333  -0.966  -1.885  1.00  0.00     0.127 C 
ENDROOT
BRANCH   1   2
ATOM      2  C   UNL     1       8.511  -2.041  -2.849  1.00  0.00     0.303 C 
ATOM      3  O   UNL     1       9.584  -2.576  -3.136  1.00  0.00    -0.252 OA
BRANCH   2   4
ATOM      4  O   UNL     1       7.366  -2.509  -3.511  1.00  0.00    -0.481 OA
ATOM      5  H   UNL     1       6.529  -1.959  -3.397  1.00  0.00     0.296 HD
ENDBRANCH   2   4
ENDBRANCH   1   2
BRANCH   1   6
ATOM      6  C   UNL     1       7.101  -1.085  -1.075  1.00  0.00     0.047 C 
BRANCH   6   7
ATOM      7  C   UNL     1       6.731   0.055  -0.234  1.00  0.00    -0.043 A 
ATOM      8  C   UNL     1       5.843  -0.081   0.821  1.00  0.00     0.008 A 
ATOM      9  C   UNL     1       7.226   1.306  -0.493  1.00  0.00     0.054 A 
ATOM     10  C   UNL     1       5.466   0.997   1.590  1.00  0.00     0.051 A 
ATOM     11  C   UNL     1       6.862   2.402   0.266  1.00  0.00     0.166 A 
ATOM     12  C   UNL     1       5.982   2.252   1.310  1.00  0.00     0.165 A 
ATOM     13  O   UNL     1       7.229   3.734   0.190  1.00  0.00    -0.454 OA
ATOM     14  O   UNL     1       5.810   3.516   1.877  1.00  0.00    -0.454 OA
ATOM     15  C   UNL     1       6.328   4.496   1.008  1.00  0.00     0.468 C 
ENDBRANCH   6   7
ENDBRANCH   1   6
TORSDOF 4
ENDMDL
