@<TRIPOS>MOLECULE
/home/cewinharhar/GITHUB/reincatalyze/data/processed/docking_pred/2023-May-17-1006_maxeplen10_maxtrainstep1000_seadep16_gamma099_lrac9e-4_lrcr1e-3_sub6/1ec3d4ded79b7f38a98788c4b0a5da992fc20b58_ligand_6.pdbqt
 15 16 0 0 0
SMALL
GASTEIGER

@<TRIPOS>ATOM
      1  C          6.4570    1.2530    0.7400 C.3     1  UNL1        0.1270
      2  C          5.2420    1.1900    1.5360 C.2     1  UNL1        0.3030
      3  O          4.9990    0.3570    2.4110 O.2     1  UNL1       -0.2520
      4  O          4.2590    2.1620    1.2890 O.3     1  UNL1       -0.4810
      5  H          3.4440    2.1310    1.8810 H       1  UNL1        0.2960
      6  C          6.2800    0.8170   -0.6620 C.3     1  UNL1        0.0470
      7  C          7.0170   -0.3710   -1.1000 C.2     1  UNL1       -0.0430
      8  C          7.2860   -0.6030   -2.4400 C.2     1  UNL1        0.0080
      9  C          7.4290   -1.3120   -0.1940 C.2     1  UNL1        0.0540
     10  C          7.9470   -1.7370   -2.8560 C.2     1  UNL1        0.0510
     11  C          8.0950   -2.4580   -0.5890 C.2     1  UNL1        0.1660
     12  C          8.3560   -2.6740   -1.9210 C.2     1  UNL1        0.1650
     13  O          8.5960   -3.5250    0.1350 O.2     1  UNL1       -0.4540
     14  O          9.0280   -3.8950   -2.0060 O.2     1  UNL1       -0.4540
     15  C          8.9100   -4.5830   -0.7830 C.3     1  UNL1        0.4680
@<TRIPOS>BOND
     1    10     8    1
     2    10    12    2
     3     8     7    2
     4    14    12    1
     5    14    15    1
     6    12    11    1
     7     7     6    1
     8     7     9    1
     9    15    13    1
    10     6     1    1
    11    11     9    2
    12    11    13    1
    13     1     2    1
    14     4     2    1
    15     4     5    1
    16     2     3    2
