@<TRIPOS>MOLECULE
/home/cewinharhar/GITHUB/reincatalyze/data/processed/docking_pred/2023-May-17-1006_maxeplen10_maxtrainstep1000_seadep16_gamma099_lrac9e-4_lrcr1e-3_sub6/1ec3d4ded79b7f38a98788c4b0a5da992fc20b58_ligand_6.pdbqt
 15 16 0 0 0
SMALL
GASTEIGER

@<TRIPOS>ATOM
      1  C          8.2970   -0.3230   -2.8610 C.3     1  UNL1        0.1270
      2  C          8.4630   -1.7520   -3.0760 C.2     1  UNL1        0.3030
      3  O          9.5310   -2.3650   -3.0280 O.2     1  UNL1       -0.2520
      4  O          7.3100   -2.5000   -3.3610 O.3     1  UNL1       -0.4810
      5  H          7.2730   -2.9320   -4.2710 H       1  UNL1        0.2960
      6  C          8.7580    0.1420   -1.5360 C.3     1  UNL1        0.0470
      7  C          7.7950    0.1070   -0.4330 C.2     1  UNL1       -0.0430
      8  C          7.7520   -0.9550    0.4570 C.2     1  UNL1        0.0080
      9  C          6.8770    1.1110   -0.2730 C.2     1  UNL1        0.0540
     10  C          6.8230   -1.0070    1.4730 C.2     1  UNL1        0.0510
     11  C          5.9370    1.0800    0.7400 C.2     1  UNL1        0.1660
     12  C          5.9060    0.0220    1.6160 C.2     1  UNL1        0.1650
     13  O          4.9320    1.9660    1.0870 O.2     1  UNL1       -0.4540
     14  O          4.8640    0.2700    2.5110 O.2     1  UNL1       -0.4540
     15  C          4.0530    1.3080    2.0120 C.3     1  UNL1        0.4680
@<TRIPOS>BOND
     1     5     4    1
     2     4     2    1
     3     2     3    2
     4     2     1    1
     5     1     6    1
     6     6     7    1
     7     7     9    2
     8     7     8    1
     9     9    11    1
    10     8    10    2
    11    11    13    1
    12    11    12    2
    13    13    15    1
    14    10    12    1
    15    12    14    1
    16    15    14    1
