@<TRIPOS>MOLECULE
/home/cewinharhar/GITHUB/reincatalyze/data/processed/docking_pred/2023-May-17-1006_maxeplen10_maxtrainstep1000_seadep16_gamma099_lrac9e-4_lrcr1e-3_sub6/1ec3d4ded79b7f38a98788c4b0a5da992fc20b58_ligand_6.pdbqt
 15 16 0 0 0
SMALL
GASTEIGER

@<TRIPOS>ATOM
      1  C          8.3330   -0.9660   -1.8850 C.3     1  UNL1        0.1270
      2  C          8.5110   -2.0410   -2.8490 C.2     1  UNL1        0.3030
      3  O          9.5840   -2.5760   -3.1360 O.2     1  UNL1       -0.2520
      4  O          7.3660   -2.5090   -3.5110 O.3     1  UNL1       -0.4810
      5  H          6.5290   -1.9590   -3.3970 H       1  UNL1        0.2960
      6  C          7.1010   -1.0850   -1.0750 C.3     1  UNL1        0.0470
      7  C          6.7310    0.0550   -0.2340 C.2     1  UNL1       -0.0430
      8  C          5.8430   -0.0810    0.8210 C.2     1  UNL1        0.0080
      9  C          7.2260    1.3060   -0.4930 C.2     1  UNL1        0.0540
     10  C          5.4660    0.9970    1.5900 C.2     1  UNL1        0.0510
     11  C          6.8620    2.4020    0.2660 C.2     1  UNL1        0.1660
     12  C          5.9820    2.2520    1.3100 C.2     1  UNL1        0.1650
     13  O          7.2290    3.7340    0.1900 O.2     1  UNL1       -0.4540
     14  O          5.8100    3.5160    1.8770 O.2     1  UNL1       -0.4540
     15  C          6.3280    4.4960    1.0080 C.3     1  UNL1        0.4680
@<TRIPOS>BOND
     1     4     5    1
     2     4     2    1
     3     3     2    2
     4     2     1    1
     5     1     6    1
     6     6     7    1
     7     9     7    2
     8     9    11    1
     9     7     8    1
    10    13    11    1
    11    13    15    1
    12    11    12    2
    13     8    10    2
    14    15    14    1
    15    12    10    1
    16    12    14    1
