@<TRIPOS>MOLECULE
/home/cewinharhar/GITHUB/reincatalyze/data/processed/docking_pred/2023-May-17-1006_maxeplen10_maxtrainstep1000_seadep16_gamma099_lrac9e-4_lrcr1e-3_sub6/1ec3d4ded79b7f38a98788c4b0a5da992fc20b58_ligand_6.pdbqt
 15 16 0 0 0
SMALL
GASTEIGER

@<TRIPOS>ATOM
      1  C          4.7270    1.8640    0.7160 C.3     1  UNL1        0.1270
      2  C          4.4140    1.1350    1.9350 C.2     1  UNL1        0.3030
      3  O          5.1350    0.2940    2.4740 O.2     1  UNL1       -0.2520
      4  O          3.1840    1.4120    2.5530 O.3     1  UNL1       -0.4810
      5  H          2.8030    2.3330    2.3950 H       1  UNL1        0.2960
      6  C          6.1580    2.2120    0.5770 C.3     1  UNL1        0.0470
      7  C          7.0000    1.3110   -0.2130 C.2     1  UNL1       -0.0430
      8  C          8.3580    1.5420   -0.3720 C.2     1  UNL1        0.0080
      9  C          6.4590    0.2290   -0.8540 C.2     1  UNL1        0.0540
     10  C          9.1440    0.7160   -1.1440 C.2     1  UNL1        0.0510
     11  C          7.2290   -0.6140   -1.6330 C.2     1  UNL1        0.1660
     12  C          8.5740   -0.3740   -1.7800 C.2     1  UNL1        0.1650
     13  O          6.9040   -1.7470   -2.3580 O.2     1  UNL1       -0.4540
     14  O          9.0740   -1.3780   -2.6110 O.2     1  UNL1       -0.4540
     15  C          8.0030   -2.0530   -3.2290 C.3     1  UNL1        0.4680
@<TRIPOS>BOND
     1    15    14    1
     2    15    13    1
     3    14    12    1
     4    13    11    1
     5    12    11    2
     6    12    10    1
     7    11     9    1
     8    10     8    2
     9     9     7    2
    10     8     7    1
    11     7     6    1
    12     6     1    1
    13     1     2    1
    14     2     3    2
    15     2     4    1
    16     5     4    1
