@<TRIPOS>MOLECULE
/home/cewinharhar/GITHUB/reincatalyze/data/processed/docking_pred/2023-May-17-1006_maxeplen10_maxtrainstep1000_seadep16_gamma099_lrac9e-4_lrcr1e-3_sub6/1f3204452a604bf2b5a1468570937d609aafa137_ligand_6.pdbqt
 15 16 0 0 0
SMALL
GASTEIGER

@<TRIPOS>ATOM
      1  C          4.7100    1.8550    0.6970 C.3     1  UNL1        0.1270
      2  C          4.4130    1.1370    1.9270 C.2     1  UNL1        0.3030
      3  O          5.1480    0.3090    2.4680 O.2     1  UNL1       -0.2520
      4  O          3.1860    1.4090    2.5510 O.3     1  UNL1       -0.4810
      5  H          3.2340    1.8980    3.4320 H       1  UNL1        0.2960
      6  C          6.1340    2.2200    0.5430 C.3     1  UNL1        0.0470
      7  C          6.9860    1.3160   -0.2320 C.2     1  UNL1       -0.0430
      8  C          8.3470    1.5400   -0.3680 C.2     1  UNL1        0.0080
      9  C          6.4510    0.2350   -0.8810 C.2     1  UNL1        0.0540
     10  C          9.1430    0.7100   -1.1260 C.2     1  UNL1        0.0510
     11  C          7.2300   -0.6110   -1.6470 C.2     1  UNL1        0.1660
     12  C          8.5780   -0.3770   -1.7720 C.2     1  UNL1        0.1650
     13  O          6.9120   -1.7420   -2.3790 O.2     1  UNL1       -0.4540
     14  O          9.0870   -1.3840   -2.5940 O.2     1  UNL1       -0.4540
     15  C          8.0240   -2.0540   -3.2310 C.3     1  UNL1        0.4680
@<TRIPOS>BOND
     1    15    14    1
     2    15    13    1
     3    14    12    1
     4    13    11    1
     5    12    11    2
     6    12    10    1
     7    11     9    1
     8    10     8    2
     9     9     7    2
    10     8     7    1
    11     7     6    1
    12     6     1    1
    13     1     2    1
    14     2     3    2
    15     2     4    1
    16     4     5    1
