MODEL 1
REMARK VINA RESULT:      -7.7      0.000      0.000
REMARK SMILES O=C(O)CCc1ccc2c(c1)OCO2
REMARK SMILES IDX 4 1 2 2 1 3 3 4 5 6 6 7 7 8 11 9 8 10 10 11 9 12 12 13 14 14
REMARK SMILES IDX 13 15
REMARK H PARENT 3 5
REMARK Flexibility Score: inf
ROOT
ATOM      1  C   UNL     1       5.390   2.884   0.105  1.00  0.00     0.127 C 
ENDROOT
BRANCH   1   2
ATOM      2  C   UNL     1       6.213   3.864   0.795  1.00  0.00     0.303 C 
ATOM      3  O   UNL     1       6.846   4.775   0.258  1.00  0.00    -0.252 OA
BRANCH   2   4
ATOM      4  O   UNL     1       6.295   3.767   2.193  1.00  0.00    -0.481 OA
ATOM      5  H   UNL     1       7.154   3.390   2.564  1.00  0.00     0.296 HD
ENDBRANCH   2   4
ENDBRANCH   1   2
BRANCH   1   6
ATOM      6  C   UNL     1       5.308   1.578   0.793  1.00  0.00     0.047 C 
BRANCH   6   7
ATOM      7  C   UNL     1       6.087   0.469   0.238  1.00  0.00    -0.043 A 
ATOM      8  C   UNL     1       6.540  -0.570   1.037  1.00  0.00     0.008 A 
ATOM      9  C   UNL     1       6.427   0.447  -1.088  1.00  0.00     0.054 A 
ATOM     10  C   UNL     1       7.304  -1.594   0.523  1.00  0.00     0.051 A 
ATOM     11  C   UNL     1       7.192  -0.571  -1.626  1.00  0.00     0.166 A 
ATOM     12  C   UNL     1       7.632  -1.595  -0.823  1.00  0.00     0.165 A 
ATOM     13  O   UNL     1       7.647  -0.796  -2.913  1.00  0.00    -0.454 OA
ATOM     14  O   UNL     1       8.369  -2.457  -1.637  1.00  0.00    -0.454 OA
ATOM     15  C   UNL     1       8.652  -1.821  -2.862  1.00  0.00     0.468 C 
ENDBRANCH   6   7
ENDBRANCH   1   6
TORSDOF 4
ENDMDL
MODEL 2
REMARK VINA RESULT:      -7.6      2.133      2.524
REMARK SMILES O=C(O)CCc1ccc2c(c1)OCO2
REMARK SMILES IDX 4 1 2 2 1 3 3 4 5 6 6 7 7 8 11 9 8 10 10 11 9 12 12 13 14 14
REMARK SMILES IDX 13 15
REMARK H PARENT 3 5
REMARK Flexibility Score: inf
ROOT
ATOM      1  C   UNL     1       4.710   1.855   0.697  1.00  0.00     0.127 C 
ENDROOT
BRANCH   1   2
ATOM      2  C   UNL     1       4.413   1.137   1.927  1.00  0.00     0.303 C 
ATOM      3  O   UNL     1       5.148   0.309   2.468  1.00  0.00    -0.252 OA
BRANCH   2   4
ATOM      4  O   UNL     1       3.186   1.409   2.551  1.00  0.00    -0.481 OA
ATOM      5  H   UNL     1       3.234   1.898   3.432  1.00  0.00     0.296 HD
ENDBRANCH   2   4
ENDBRANCH   1   2
BRANCH   1   6
ATOM      6  C   UNL     1       6.134   2.220   0.543  1.00  0.00     0.047 C 
BRANCH   6   7
ATOM      7  C   UNL     1       6.986   1.316  -0.232  1.00  0.00    -0.043 A 
ATOM      8  C   UNL     1       8.347   1.540  -0.368  1.00  0.00     0.008 A 
ATOM      9  C   UNL     1       6.451   0.235  -0.881  1.00  0.00     0.054 A 
ATOM     10  C   UNL     1       9.143   0.710  -1.126  1.00  0.00     0.051 A 
ATOM     11  C   UNL     1       7.230  -0.611  -1.647  1.00  0.00     0.166 A 
ATOM     12  C   UNL     1       8.578  -0.377  -1.772  1.00  0.00     0.165 A 
ATOM     13  O   UNL     1       6.912  -1.742  -2.379  1.00  0.00    -0.454 OA
ATOM     14  O   UNL     1       9.087  -1.384  -2.594  1.00  0.00    -0.454 OA
ATOM     15  C   UNL     1       8.024  -2.054  -3.231  1.00  0.00     0.468 C 
ENDBRANCH   6   7
ENDBRANCH   1   6
TORSDOF 4
ENDMDL
MODEL 3
REMARK VINA RESULT:      -7.5      1.984      2.904
REMARK SMILES O=C(O)CCc1ccc2c(c1)OCO2
REMARK SMILES IDX 4 1 2 2 1 3 3 4 5 6 6 7 7 8 11 9 8 10 10 11 9 12 12 13 14 14
REMARK SMILES IDX 13 15
REMARK H PARENT 3 5
REMARK Flexibility Score: inf
ROOT
ATOM      1  C   UNL     1       6.408   1.295   0.645  1.00  0.00     0.127 C 
ENDROOT
BRANCH   1   2
ATOM      2  C   UNL     1       5.197   1.274   1.450  1.00  0.00     0.303 C 
ATOM      3  O   UNL     1       4.255   2.061   1.349  1.00  0.00    -0.252 OA
BRANCH   2   4
ATOM      4  O   UNL     1       5.090   0.272   2.428  1.00  0.00    -0.481 OA
ATOM      5  H   UNL     1       4.473  -0.496   2.213  1.00  0.00     0.296 HD
ENDBRANCH   2   4
ENDBRANCH   1   2
BRANCH   1   6
ATOM      6  C   UNL     1       6.217   0.812  -0.740  1.00  0.00     0.047 C 
BRANCH   6   7
ATOM      7  C   UNL     1       6.970  -0.373  -1.154  1.00  0.00    -0.043 A 
ATOM      8  C   UNL     1       7.254  -0.621  -2.488  1.00  0.00     0.008 A 
ATOM      9  C   UNL     1       7.386  -1.296  -0.232  1.00  0.00     0.054 A 
ATOM     10  C   UNL     1       7.931  -1.753  -2.883  1.00  0.00     0.051 A 
ATOM     11  C   UNL     1       8.068  -2.439  -0.605  1.00  0.00     0.166 A 
ATOM     12  C   UNL     1       8.343  -2.672  -1.931  1.00  0.00     0.165 A 
ATOM     13  O   UNL     1       8.575  -3.490   0.139  1.00  0.00    -0.454 OA
ATOM     14  O   UNL     1       9.029  -3.886  -1.993  1.00  0.00    -0.454 OA
ATOM     15  C   UNL     1       8.908  -4.558  -0.761  1.00  0.00     0.468 C 
ENDBRANCH   6   7
ENDBRANCH   1   6
TORSDOF 4
ENDMDL
MODEL 4
REMARK VINA RESULT:      -7.5      1.800      5.278
REMARK SMILES O=C(O)CCc1ccc2c(c1)OCO2
REMARK SMILES IDX 4 1 2 2 1 3 3 4 5 6 6 7 7 8 11 9 8 10 10 11 9 12 12 13 14 14
REMARK SMILES IDX 13 15
REMARK H PARENT 3 5
REMARK Flexibility Score: inf
ROOT
ATOM      1  C   UNL     1       8.297  -0.311  -2.861  1.00  0.00     0.127 C 
ENDROOT
BRANCH   1   2
ATOM      2  C   UNL     1       8.464  -1.740  -3.070  1.00  0.00     0.303 C 
ATOM      3  O   UNL     1       9.532  -2.352  -3.020  1.00  0.00    -0.252 OA
BRANCH   2   4
ATOM      4  O   UNL     1       7.310  -2.489  -3.352  1.00  0.00    -0.481 OA
ATOM      5  H   UNL     1       7.460  -3.410  -3.735  1.00  0.00     0.296 HD
ENDBRANCH   2   4
ENDBRANCH   1   2
BRANCH   1   6
ATOM      6  C   UNL     1       8.758   0.160  -1.537  1.00  0.00     0.047 C 
BRANCH   6   7
ATOM      7  C   UNL     1       7.798   0.120  -0.432  1.00  0.00    -0.043 A 
ATOM      8  C   UNL     1       7.774  -0.935   0.468  1.00  0.00     0.008 A 
ATOM      9  C   UNL     1       6.865   1.110  -0.278  1.00  0.00     0.054 A 
ATOM     10  C   UNL     1       6.848  -0.992   1.487  1.00  0.00     0.051 A 
ATOM     11  C   UNL     1       5.927   1.074   0.737  1.00  0.00     0.166 A 
ATOM     12  C   UNL     1       5.915   0.023   1.622  1.00  0.00     0.165 A 
ATOM     13  O   UNL     1       4.909   1.946   1.079  1.00  0.00    -0.454 OA
ATOM     14  O   UNL     1       4.872   0.262   2.517  1.00  0.00    -0.454 OA
ATOM     15  C   UNL     1       4.043   1.283   2.012  1.00  0.00     0.468 C 
ENDBRANCH   6   7
ENDBRANCH   1   6
TORSDOF 4
ENDMDL
MODEL 5
REMARK VINA RESULT:      -7.3      0.973      2.124
REMARK SMILES O=C(O)CCc1ccc2c(c1)OCO2
REMARK SMILES IDX 4 1 2 2 1 3 3 4 5 6 6 7 7 8 11 9 8 10 10 11 9 12 12 13 14 14
REMARK SMILES IDX 13 15
REMARK H PARENT 3 5
REMARK Flexibility Score: inf
ROOT
ATOM      1  C   UNL     1       5.477   2.815   0.361  1.00  0.00     0.127 C 
ENDROOT
BRANCH   1   2
ATOM      2  C   UNL     1       6.402   3.666   1.093  1.00  0.00     0.303 C 
ATOM      3  O   UNL     1       6.762   3.497   2.260  1.00  0.00    -0.252 OA
BRANCH   2   4
ATOM      4  O   UNL     1       6.932   4.775   0.415  1.00  0.00    -0.481 OA
ATOM      5  H   UNL     1       7.898   4.705   0.134  1.00  0.00     0.296 HD
ENDBRANCH   2   4
ENDBRANCH   1   2
BRANCH   1   6
ATOM      6  C   UNL     1       5.383   1.437   0.889  1.00  0.00     0.047 C 
BRANCH   6   7
ATOM      7  C   UNL     1       6.222   0.413   0.263  1.00  0.00    -0.043 A 
ATOM      8  C   UNL     1       6.470   0.413  -1.101  1.00  0.00     0.008 A 
ATOM      9  C   UNL     1       6.757  -0.605   1.008  1.00  0.00     0.054 A 
ATOM     10  C   UNL     1       7.229  -0.570  -1.696  1.00  0.00     0.051 A 
ATOM     11  C   UNL     1       7.521  -1.602   0.432  1.00  0.00     0.166 A 
ATOM     12  C   UNL     1       7.760  -1.588  -0.921  1.00  0.00     0.165 A 
ATOM     13  O   UNL     1       8.152  -2.707   0.976  1.00  0.00    -0.454 OA
ATOM     14  O   UNL     1       8.549  -2.704  -1.203  1.00  0.00    -0.454 OA
ATOM     15  C   UNL     1       8.541  -3.577  -0.097  1.00  0.00     0.468 C 
ENDBRANCH   6   7
ENDBRANCH   1   6
TORSDOF 4
ENDMDL
