@<TRIPOS>MOLECULE
/home/cewinharhar/GITHUB/reincatalyze/data/processed/docking_pred/2023-May-17-1006_maxeplen10_maxtrainstep1000_seadep16_gamma099_lrac9e-4_lrcr1e-3_sub6/1f3204452a604bf2b5a1468570937d609aafa137_ligand_6.pdbqt
 15 16 0 0 0
SMALL
GASTEIGER

@<TRIPOS>ATOM
      1  C          5.3900    2.8840    0.1050 C.3     1  UNL1        0.1270
      2  C          6.2130    3.8640    0.7950 C.2     1  UNL1        0.3030
      3  O          6.8460    4.7750    0.2580 O.2     1  UNL1       -0.2520
      4  O          6.2950    3.7670    2.1930 O.3     1  UNL1       -0.4810
      5  H          7.1540    3.3900    2.5640 H       1  UNL1        0.2960
      6  C          5.3080    1.5780    0.7930 C.3     1  UNL1        0.0470
      7  C          6.0870    0.4690    0.2380 C.2     1  UNL1       -0.0430
      8  C          6.5400   -0.5700    1.0370 C.2     1  UNL1        0.0080
      9  C          6.4270    0.4470   -1.0880 C.2     1  UNL1        0.0540
     10  C          7.3040   -1.5940    0.5230 C.2     1  UNL1        0.0510
     11  C          7.1920   -0.5710   -1.6260 C.2     1  UNL1        0.1660
     12  C          7.6320   -1.5950   -0.8230 C.2     1  UNL1        0.1650
     13  O          7.6470   -0.7960   -2.9130 O.2     1  UNL1       -0.4540
     14  O          8.3690   -2.4570   -1.6370 O.2     1  UNL1       -0.4540
     15  C          8.6520   -1.8210   -2.8620 C.3     1  UNL1        0.4680
@<TRIPOS>BOND
     1    13    15    1
     2    13    11    1
     3    15    14    1
     4    14    12    1
     5    11     9    1
     6    11    12    2
     7     9     7    2
     8    12    10    1
     9     1     6    1
    10     1     2    1
    11     7     6    1
    12     7     8    1
    13     3     2    2
    14    10     8    2
    15     2     4    1
    16     4     5    1
