@<TRIPOS>MOLECULE
/home/cewinharhar/GITHUB/reincatalyze/data/processed/docking_pred/2023-May-17-1006_maxeplen10_maxtrainstep1000_seadep16_gamma099_lrac9e-4_lrcr1e-3_sub6/1f3204452a604bf2b5a1468570937d609aafa137_ligand_6.pdbqt
 15 16 0 0 0
SMALL
GASTEIGER

@<TRIPOS>ATOM
      1  C          8.2970   -0.3110   -2.8610 C.3     1  UNL1        0.1270
      2  C          8.4640   -1.7400   -3.0700 C.2     1  UNL1        0.3030
      3  O          9.5320   -2.3520   -3.0200 O.2     1  UNL1       -0.2520
      4  O          7.3100   -2.4890   -3.3520 O.3     1  UNL1       -0.4810
      5  H          7.4600   -3.4100   -3.7350 H       1  UNL1        0.2960
      6  C          8.7580    0.1600   -1.5370 C.3     1  UNL1        0.0470
      7  C          7.7980    0.1200   -0.4320 C.2     1  UNL1       -0.0430
      8  C          7.7740   -0.9350    0.4680 C.2     1  UNL1        0.0080
      9  C          6.8650    1.1100   -0.2780 C.2     1  UNL1        0.0540
     10  C          6.8480   -0.9920    1.4870 C.2     1  UNL1        0.0510
     11  C          5.9270    1.0740    0.7370 C.2     1  UNL1        0.1660
     12  C          5.9150    0.0230    1.6220 C.2     1  UNL1        0.1650
     13  O          4.9090    1.9460    1.0790 O.2     1  UNL1       -0.4540
     14  O          4.8720    0.2620    2.5170 O.2     1  UNL1       -0.4540
     15  C          4.0430    1.2830    2.0120 C.3     1  UNL1        0.4680
@<TRIPOS>BOND
     1     5     4    1
     2     4     2    1
     3     2     3    2
     4     2     1    1
     5     1     6    1
     6     6     7    1
     7     7     9    2
     8     7     8    1
     9     9    11    1
    10     8    10    2
    11    11    13    1
    12    11    12    2
    13    13    15    1
    14    10    12    1
    15    12    14    1
    16    15    14    1
