@<TRIPOS>MOLECULE
/home/cewinharhar/GITHUB/reincatalyze/data/processed/docking_pred/2023-May-17-1006_maxeplen10_maxtrainstep1000_seadep16_gamma099_lrac9e-4_lrcr1e-3_sub6/1f3204452a604bf2b5a1468570937d609aafa137_ligand_6.pdbqt
 15 16 0 0 0
SMALL
GASTEIGER

@<TRIPOS>ATOM
      1  C          5.4770    2.8150    0.3610 C.3     1  UNL1        0.1270
      2  C          6.4020    3.6660    1.0930 C.2     1  UNL1        0.3030
      3  O          6.7620    3.4970    2.2600 O.2     1  UNL1       -0.2520
      4  O          6.9320    4.7750    0.4150 O.3     1  UNL1       -0.4810
      5  H          7.8980    4.7050    0.1340 H       1  UNL1        0.2960
      6  C          5.3830    1.4370    0.8890 C.3     1  UNL1        0.0470
      7  C          6.2220    0.4130    0.2630 C.2     1  UNL1       -0.0430
      8  C          6.4700    0.4130   -1.1010 C.2     1  UNL1        0.0080
      9  C          6.7570   -0.6050    1.0080 C.2     1  UNL1        0.0540
     10  C          7.2290   -0.5700   -1.6960 C.2     1  UNL1        0.0510
     11  C          7.5210   -1.6020    0.4320 C.2     1  UNL1        0.1660
     12  C          7.7600   -1.5880   -0.9210 C.2     1  UNL1        0.1650
     13  O          8.1520   -2.7070    0.9760 O.2     1  UNL1       -0.4540
     14  O          8.5490   -2.7040   -1.2030 O.2     1  UNL1       -0.4540
     15  C          8.5410   -3.5770   -0.0970 C.3     1  UNL1        0.4680
@<TRIPOS>BOND
     1    10     8    1
     2    10    12    2
     3    14    12    1
     4    14    15    1
     5     8     7    2
     6    12    11    1
     7    15    13    1
     8     5     4    1
     9     7     6    1
    10     7     9    1
    11     1     6    1
    12     1     2    1
    13     4     2    1
    14    11    13    1
    15    11     9    2
    16     2     3    2
