@<TRIPOS>MOLECULE
/home/cewinharhar/GITHUB/reincatalyze/data/processed/docking_pred/2023-May-17-1006_maxeplen10_maxtrainstep1000_seadep16_gamma099_lrac9e-4_lrcr1e-3_sub6/1f3204452a604bf2b5a1468570937d609aafa137_ligand_6.pdbqt
 15 16 0 0 0
SMALL
GASTEIGER

@<TRIPOS>ATOM
      1  C          6.4080    1.2950    0.6450 C.3     1  UNL1        0.1270
      2  C          5.1970    1.2740    1.4500 C.2     1  UNL1        0.3030
      3  O          4.2550    2.0610    1.3490 O.2     1  UNL1       -0.2520
      4  O          5.0900    0.2720    2.4280 O.3     1  UNL1       -0.4810
      5  H          4.4730   -0.4960    2.2130 H       1  UNL1        0.2960
      6  C          6.2170    0.8120   -0.7400 C.3     1  UNL1        0.0470
      7  C          6.9700   -0.3730   -1.1540 C.2     1  UNL1       -0.0430
      8  C          7.2540   -0.6210   -2.4880 C.2     1  UNL1        0.0080
      9  C          7.3860   -1.2960   -0.2320 C.2     1  UNL1        0.0540
     10  C          7.9310   -1.7530   -2.8830 C.2     1  UNL1        0.0510
     11  C          8.0680   -2.4390   -0.6050 C.2     1  UNL1        0.1660
     12  C          8.3430   -2.6720   -1.9310 C.2     1  UNL1        0.1650
     13  O          8.5750   -3.4900    0.1390 O.2     1  UNL1       -0.4540
     14  O          9.0290   -3.8860   -1.9930 O.2     1  UNL1       -0.4540
     15  C          8.9080   -4.5580   -0.7610 C.3     1  UNL1        0.4680
@<TRIPOS>BOND
     1    10     8    1
     2    10    12    2
     3     8     7    2
     4    14    12    1
     5    14    15    1
     6    12    11    1
     7     7     6    1
     8     7     9    1
     9    15    13    1
    10     6     1    1
    11    11     9    2
    12    11    13    1
    13     1     2    1
    14     3     2    2
    15     2     4    1
    16     5     4    1
