@<TRIPOS>MOLECULE
/home/cewinharhar/GITHUB/reincatalyze/data/processed/docking_pred/2023-May-17-1006_maxeplen10_maxtrainstep1000_seadep16_gamma099_lrac9e-4_lrcr1e-3_sub6/1f53ccdef65850680f3a99c865464637782ca6a5_ligand_6.pdbqt
 15 16 0 0 0
SMALL
GASTEIGER

@<TRIPOS>ATOM
      1  C          8.3010   -0.3240   -2.8560 C.3     1  UNL1        0.1270
      2  C          8.4700   -1.7530   -3.0730 C.2     1  UNL1        0.3030
      3  O          9.5400   -2.3630   -3.0340 O.2     1  UNL1       -0.2520
      4  O          7.3170   -2.5030   -3.3510 O.3     1  UNL1       -0.4810
      5  H          6.4940   -1.9770   -3.6040 H       1  UNL1        0.2960
      6  C          8.7560    0.1390   -1.5280 C.3     1  UNL1        0.0470
      7  C          7.7900    0.0950   -0.4280 C.2     1  UNL1       -0.0430
      8  C          7.7440   -0.9730    0.4550 C.2     1  UNL1        0.0080
      9  C          6.8710    1.0970   -0.2630 C.2     1  UNL1        0.0540
     10  C          6.8130   -1.0320    1.4670 C.2     1  UNL1        0.0510
     11  C          5.9270    1.0590    0.7460 C.2     1  UNL1        0.1660
     12  C          5.8940   -0.0050    1.6140 C.2     1  UNL1        0.1650
     13  O          4.9200    1.9420    1.0960 O.2     1  UNL1       -0.4540
     14  O          4.8500    0.2360    2.5080 O.2     1  UNL1       -0.4540
     15  C          4.0390    1.2770    2.0140 C.3     1  UNL1        0.4680
@<TRIPOS>BOND
     1     5     4    1
     2     4     2    1
     3     2     3    2
     4     2     1    1
     5     1     6    1
     6     6     7    1
     7     7     9    2
     8     7     8    1
     9     9    11    1
    10     8    10    2
    11    11    13    1
    12    11    12    2
    13    13    15    1
    14    10    12    1
    15    12    14    1
    16    15    14    1
