@<TRIPOS>MOLECULE
/home/cewinharhar/GITHUB/reincatalyze/data/processed/docking_pred/2023-May-17-1006_maxeplen10_maxtrainstep1000_seadep16_gamma099_lrac9e-4_lrcr1e-3_sub6/1f53ccdef65850680f3a99c865464637782ca6a5_ligand_6.pdbqt
 15 16 0 0 0
SMALL
GASTEIGER

@<TRIPOS>ATOM
      1  C          4.6690    1.8690    0.6720 C.3     1  UNL1        0.1270
      2  C          4.4020    1.1570    1.9130 C.2     1  UNL1        0.3030
      3  O          5.1580    0.3460    2.4500 O.2     1  UNL1       -0.2520
      4  O          3.1810    1.4150    2.5540 O.3     1  UNL1       -0.4810
      5  H          2.6730    0.6090    2.8860 H       1  UNL1        0.2960
      6  C          6.0850    2.2540    0.4940 C.3     1  UNL1        0.0470
      7  C          6.9480    1.3370   -0.2540 C.2     1  UNL1       -0.0430
      8  C          8.3150    1.5460   -0.3540 C.2     1  UNL1        0.0080
      9  C          6.4190    0.2580   -0.9120 C.2     1  UNL1        0.0540
     10  C          9.1220    0.7050   -1.0870 C.2     1  UNL1        0.0510
     11  C          7.2090   -0.6000   -1.6520 C.2     1  UNL1        0.1660
     12  C          8.5630   -0.3800   -1.7420 C.2     1  UNL1        0.1650
     13  O          6.8990   -1.7320   -2.3860 O.2     1  UNL1       -0.4540
     14  O          9.0840   -1.3960   -2.5450 O.2     1  UNL1       -0.4540
     15  C          8.0310   -2.0590   -3.2070 C.3     1  UNL1        0.4680
@<TRIPOS>BOND
     1    15    14    1
     2    15    13    1
     3    14    12    1
     4    13    11    1
     5    12    11    2
     6    12    10    1
     7    11     9    1
     8    10     8    2
     9     9     7    2
    10     8     7    1
    11     7     6    1
    12     6     1    1
    13     1     2    1
    14     2     3    2
    15     2     4    1
    16     4     5    1
