MODEL 1
REMARK VINA RESULT:      -7.7      0.000      0.000
REMARK SMILES O=C(O)CCc1ccc2c(c1)OCO2
REMARK SMILES IDX 4 1 2 2 1 3 3 4 5 6 6 7 7 8 11 9 8 10 10 11 9 12 12 13 14 14
REMARK SMILES IDX 13 15
REMARK H PARENT 3 5
REMARK Flexibility Score: inf
ROOT
ATOM      1  C   UNL     1       5.414   2.879   0.115  1.00  0.00     0.127 C 
ENDROOT
BRANCH   1   2
ATOM      2  C   UNL     1       6.239   3.858   0.806  1.00  0.00     0.303 C 
ATOM      3  O   UNL     1       6.866   4.773   0.270  1.00  0.00    -0.252 OA
BRANCH   2   4
ATOM      4  O   UNL     1       6.330   3.753   2.203  1.00  0.00    -0.481 OA
ATOM      5  H   UNL     1       6.055   4.569   2.729  1.00  0.00     0.296 HD
ENDBRANCH   2   4
ENDBRANCH   1   2
BRANCH   1   6
ATOM      6  C   UNL     1       5.346   1.567   0.794  1.00  0.00     0.047 C 
BRANCH   6   7
ATOM      7  C   UNL     1       6.128   0.468   0.224  1.00  0.00    -0.043 A 
ATOM      8  C   UNL     1       6.595  -0.574   1.011  1.00  0.00     0.008 A 
ATOM      9  C   UNL     1       6.455   0.457  -1.106  1.00  0.00     0.054 A 
ATOM     10  C   UNL     1       7.361  -1.589   0.483  1.00  0.00     0.051 A 
ATOM     11  C   UNL     1       7.222  -0.551  -1.658  1.00  0.00     0.166 A 
ATOM     12  C   UNL     1       7.677  -1.578  -0.866  1.00  0.00     0.165 A 
ATOM     13  O   UNL     1       7.667  -0.765  -2.951  1.00  0.00    -0.454 OA
ATOM     14  O   UNL     1       8.412  -2.429  -1.693  1.00  0.00    -0.454 OA
ATOM     15  C   UNL     1       8.679  -1.782  -2.916  1.00  0.00     0.468 C 
ENDBRANCH   6   7
ENDBRANCH   1   6
TORSDOF 4
ENDMDL
MODEL 2
REMARK VINA RESULT:      -7.6      2.113      2.496
REMARK SMILES O=C(O)CCc1ccc2c(c1)OCO2
REMARK SMILES IDX 4 1 2 2 1 3 3 4 5 6 6 7 7 8 11 9 8 10 10 11 9 12 12 13 14 14
REMARK SMILES IDX 13 15
REMARK H PARENT 3 5
REMARK Flexibility Score: inf
ROOT
ATOM      1  C   UNL     1       4.669   1.869   0.672  1.00  0.00     0.127 C 
ENDROOT
BRANCH   1   2
ATOM      2  C   UNL     1       4.402   1.157   1.913  1.00  0.00     0.303 C 
ATOM      3  O   UNL     1       5.158   0.346   2.450  1.00  0.00    -0.252 OA
BRANCH   2   4
ATOM      4  O   UNL     1       3.181   1.415   2.554  1.00  0.00    -0.481 OA
ATOM      5  H   UNL     1       2.673   0.609   2.886  1.00  0.00     0.296 HD
ENDBRANCH   2   4
ENDBRANCH   1   2
BRANCH   1   6
ATOM      6  C   UNL     1       6.085   2.254   0.494  1.00  0.00     0.047 C 
BRANCH   6   7
ATOM      7  C   UNL     1       6.948   1.337  -0.254  1.00  0.00    -0.043 A 
ATOM      8  C   UNL     1       8.315   1.546  -0.354  1.00  0.00     0.008 A 
ATOM      9  C   UNL     1       6.419   0.258  -0.912  1.00  0.00     0.054 A 
ATOM     10  C   UNL     1       9.122   0.705  -1.087  1.00  0.00     0.051 A 
ATOM     11  C   UNL     1       7.209  -0.600  -1.652  1.00  0.00     0.166 A 
ATOM     12  C   UNL     1       8.563  -0.380  -1.742  1.00  0.00     0.165 A 
ATOM     13  O   UNL     1       6.899  -1.732  -2.386  1.00  0.00    -0.454 OA
ATOM     14  O   UNL     1       9.084  -1.396  -2.545  1.00  0.00    -0.454 OA
ATOM     15  C   UNL     1       8.031  -2.059  -3.207  1.00  0.00     0.468 C 
ENDBRANCH   6   7
ENDBRANCH   1   6
TORSDOF 4
ENDMDL
MODEL 3
REMARK VINA RESULT:      -7.5      1.994      2.978
REMARK SMILES O=C(O)CCc1ccc2c(c1)OCO2
REMARK SMILES IDX 4 1 2 2 1 3 3 4 5 6 6 7 7 8 11 9 8 10 10 11 9 12 12 13 14 14
REMARK SMILES IDX 13 15
REMARK H PARENT 3 5
REMARK Flexibility Score: inf
ROOT
ATOM      1  C   UNL     1       6.460   1.279   0.804  1.00  0.00     0.127 C 
ENDROOT
BRANCH   1   2
ATOM      2  C   UNL     1       5.252   1.146   1.603  1.00  0.00     0.303 C 
ATOM      3  O   UNL     1       5.049   0.283   2.459  1.00  0.00    -0.252 OA
BRANCH   2   4
ATOM      4  O   UNL     1       4.228   2.081   1.383  1.00  0.00    -0.481 OA
ATOM      5  H   UNL     1       3.682   2.341   2.190  1.00  0.00     0.296 HD
ENDBRANCH   2   4
ENDBRANCH   1   2
BRANCH   1   6
ATOM      6  C   UNL     1       6.292   0.876  -0.609  1.00  0.00     0.047 C 
BRANCH   6   7
ATOM      7  C   UNL     1       7.018  -0.311  -1.065  1.00  0.00    -0.043 A 
ATOM      8  C   UNL     1       7.266  -0.535  -2.411  1.00  0.00     0.008 A 
ATOM      9  C   UNL     1       7.441  -1.259  -0.173  1.00  0.00     0.054 A 
ATOM     10  C   UNL     1       7.917  -1.669  -2.845  1.00  0.00     0.051 A 
ATOM     11  C   UNL     1       8.097  -2.404  -0.585  1.00  0.00     0.166 A 
ATOM     12  C   UNL     1       8.337  -2.613  -1.922  1.00  0.00     0.165 A 
ATOM     13  O   UNL     1       8.606  -3.478   0.124  1.00  0.00    -0.454 OA
ATOM     14  O   UNL     1       9.003  -3.835  -2.026  1.00  0.00    -0.454 OA
ATOM     15  C   UNL     1       8.902  -4.531  -0.805  1.00  0.00     0.468 C 
ENDBRANCH   6   7
ENDBRANCH   1   6
TORSDOF 4
ENDMDL
MODEL 4
REMARK VINA RESULT:      -7.4      1.798      5.289
REMARK SMILES O=C(O)CCc1ccc2c(c1)OCO2
REMARK SMILES IDX 4 1 2 2 1 3 3 4 5 6 6 7 7 8 11 9 8 10 10 11 9 12 12 13 14 14
REMARK SMILES IDX 13 15
REMARK H PARENT 3 5
REMARK Flexibility Score: inf
ROOT
ATOM      1  C   UNL     1       8.301  -0.324  -2.856  1.00  0.00     0.127 C 
ENDROOT
BRANCH   1   2
ATOM      2  C   UNL     1       8.470  -1.753  -3.073  1.00  0.00     0.303 C 
ATOM      3  O   UNL     1       9.540  -2.363  -3.034  1.00  0.00    -0.252 OA
BRANCH   2   4
ATOM      4  O   UNL     1       7.317  -2.503  -3.351  1.00  0.00    -0.481 OA
ATOM      5  H   UNL     1       6.494  -1.977  -3.604  1.00  0.00     0.296 HD
ENDBRANCH   2   4
ENDBRANCH   1   2
BRANCH   1   6
ATOM      6  C   UNL     1       8.756   0.139  -1.528  1.00  0.00     0.047 C 
BRANCH   6   7
ATOM      7  C   UNL     1       7.790   0.095  -0.428  1.00  0.00    -0.043 A 
ATOM      8  C   UNL     1       7.744  -0.973   0.455  1.00  0.00     0.008 A 
ATOM      9  C   UNL     1       6.871   1.097  -0.263  1.00  0.00     0.054 A 
ATOM     10  C   UNL     1       6.813  -1.032   1.467  1.00  0.00     0.051 A 
ATOM     11  C   UNL     1       5.927   1.059   0.746  1.00  0.00     0.166 A 
ATOM     12  C   UNL     1       5.894  -0.005   1.614  1.00  0.00     0.165 A 
ATOM     13  O   UNL     1       4.920   1.942   1.096  1.00  0.00    -0.454 OA
ATOM     14  O   UNL     1       4.850   0.236   2.508  1.00  0.00    -0.454 OA
ATOM     15  C   UNL     1       4.039   1.277   2.014  1.00  0.00     0.468 C 
ENDBRANCH   6   7
ENDBRANCH   1   6
TORSDOF 4
ENDMDL
MODEL 5
REMARK VINA RESULT:      -7.4      0.934      2.073
REMARK SMILES O=C(O)CCc1ccc2c(c1)OCO2
REMARK SMILES IDX 4 1 2 2 1 3 3 4 5 6 6 7 7 8 11 9 8 10 10 11 9 12 12 13 14 14
REMARK SMILES IDX 13 15
REMARK H PARENT 3 5
REMARK Flexibility Score: inf
ROOT
ATOM      1  C   UNL     1       5.504   2.665   0.142  1.00  0.00     0.127 C 
ENDROOT
BRANCH   1   2
ATOM      2  C   UNL     1       6.164   3.707   0.913  1.00  0.00     0.303 C 
ATOM      3  O   UNL     1       6.224   3.760   2.142  1.00  0.00    -0.252 OA
BRANCH   2   4
ATOM      4  O   UNL     1       6.788   4.741   0.197  1.00  0.00    -0.481 OA
ATOM      5  H   UNL     1       6.334   5.028  -0.657  1.00  0.00     0.296 HD
ENDBRANCH   2   4
ENDBRANCH   1   2
BRANCH   1   6
ATOM      6  C   UNL     1       5.581   1.323   0.757  1.00  0.00     0.047 C 
BRANCH   6   7
ATOM      7  C   UNL     1       6.356   0.299   0.052  1.00  0.00    -0.043 A 
ATOM      8  C   UNL     1       6.461   0.292  -1.330  1.00  0.00     0.008 A 
ATOM      9  C   UNL     1       6.973  -0.710   0.743  1.00  0.00     0.054 A 
ATOM     10  C   UNL     1       7.159  -0.690  -1.995  1.00  0.00     0.051 A 
ATOM     11  C   UNL     1       7.680  -1.706   0.096  1.00  0.00     0.166 A 
ATOM     12  C   UNL     1       7.776  -1.700  -1.274  1.00  0.00     0.165 A 
ATOM     13  O   UNL     1       8.372  -2.803   0.579  1.00  0.00    -0.454 OA
ATOM     14  O   UNL     1       8.539  -2.813  -1.630  1.00  0.00    -0.454 OA
ATOM     15  C   UNL     1       8.653  -3.678  -0.524  1.00  0.00     0.468 C 
ENDBRANCH   6   7
ENDBRANCH   1   6
TORSDOF 4
ENDMDL
