@<TRIPOS>MOLECULE
/home/cewinharhar/GITHUB/reincatalyze/data/processed/docking_pred/2023-May-17-1006_maxeplen10_maxtrainstep1000_seadep16_gamma099_lrac9e-4_lrcr1e-3_sub6/1f53ccdef65850680f3a99c865464637782ca6a5_ligand_6.pdbqt
 15 16 0 0 0
SMALL
GASTEIGER

@<TRIPOS>ATOM
      1  C          5.4140    2.8790    0.1150 C.3     1  UNL1        0.1270
      2  C          6.2390    3.8580    0.8060 C.2     1  UNL1        0.3030
      3  O          6.8660    4.7730    0.2700 O.2     1  UNL1       -0.2520
      4  O          6.3300    3.7530    2.2030 O.3     1  UNL1       -0.4810
      5  H          6.0550    4.5690    2.7290 H       1  UNL1        0.2960
      6  C          5.3460    1.5670    0.7940 C.3     1  UNL1        0.0470
      7  C          6.1280    0.4680    0.2240 C.2     1  UNL1       -0.0430
      8  C          6.5950   -0.5740    1.0110 C.2     1  UNL1        0.0080
      9  C          6.4550    0.4570   -1.1060 C.2     1  UNL1        0.0540
     10  C          7.3610   -1.5890    0.4830 C.2     1  UNL1        0.0510
     11  C          7.2220   -0.5510   -1.6580 C.2     1  UNL1        0.1660
     12  C          7.6770   -1.5780   -0.8660 C.2     1  UNL1        0.1650
     13  O          7.6670   -0.7650   -2.9510 O.2     1  UNL1       -0.4540
     14  O          8.4120   -2.4290   -1.6930 O.2     1  UNL1       -0.4540
     15  C          8.6790   -1.7820   -2.9160 C.3     1  UNL1        0.4680
@<TRIPOS>BOND
     1    13    15    1
     2    13    11    1
     3    15    14    1
     4    14    12    1
     5    11     9    1
     6    11    12    2
     7     9     7    2
     8    12    10    1
     9     1     6    1
    10     1     2    1
    11     7     6    1
    12     7     8    1
    13     3     2    2
    14    10     8    2
    15     2     4    1
    16     4     5    1
