@<TRIPOS>MOLECULE
/home/cewinharhar/GITHUB/reincatalyze/data/processed/docking_pred/2023-May-17-1006_maxeplen10_maxtrainstep1000_seadep16_gamma099_lrac9e-4_lrcr1e-3_sub6/1f53ccdef65850680f3a99c865464637782ca6a5_ligand_6.pdbqt
 15 16 0 0 0
SMALL
GASTEIGER

@<TRIPOS>ATOM
      1  C          5.5040    2.6650    0.1420 C.3     1  UNL1        0.1270
      2  C          6.1640    3.7070    0.9130 C.2     1  UNL1        0.3030
      3  O          6.2240    3.7600    2.1420 O.2     1  UNL1       -0.2520
      4  O          6.7880    4.7410    0.1970 O.3     1  UNL1       -0.4810
      5  H          6.3340    5.0280   -0.6570 H       1  UNL1        0.2960
      6  C          5.5810    1.3230    0.7570 C.3     1  UNL1        0.0470
      7  C          6.3560    0.2990    0.0520 C.2     1  UNL1       -0.0430
      8  C          6.4610    0.2920   -1.3300 C.2     1  UNL1        0.0080
      9  C          6.9730   -0.7100    0.7430 C.2     1  UNL1        0.0540
     10  C          7.1590   -0.6900   -1.9950 C.2     1  UNL1        0.0510
     11  C          7.6800   -1.7060    0.0960 C.2     1  UNL1        0.1660
     12  C          7.7760   -1.7000   -1.2740 C.2     1  UNL1        0.1650
     13  O          8.3720   -2.8030    0.5790 O.2     1  UNL1       -0.4540
     14  O          8.5390   -2.8130   -1.6300 O.2     1  UNL1       -0.4540
     15  C          8.6530   -3.6780   -0.5240 C.3     1  UNL1        0.4680
@<TRIPOS>BOND
     1    10     8    1
     2    10    12    2
     3    14    12    1
     4    14    15    1
     5     8     7    2
     6    12    11    1
     7     5     4    1
     8    15    13    1
     9     7     9    1
    10     7     6    1
    11    11    13    1
    12    11     9    2
    13     1     6    1
    14     1     2    1
    15     4     2    1
    16     2     3    2
