@<TRIPOS>MOLECULE
/home/cewinharhar/GITHUB/reincatalyze/data/processed/docking_pred/2023-May-17-1006_maxeplen10_maxtrainstep1000_seadep16_gamma099_lrac9e-4_lrcr1e-3_sub6/1f53ccdef65850680f3a99c865464637782ca6a5_ligand_6.pdbqt
 15 16 0 0 0
SMALL
GASTEIGER

@<TRIPOS>ATOM
      1  C          6.4600    1.2790    0.8040 C.3     1  UNL1        0.1270
      2  C          5.2520    1.1460    1.6030 C.2     1  UNL1        0.3030
      3  O          5.0490    0.2830    2.4590 O.2     1  UNL1       -0.2520
      4  O          4.2280    2.0810    1.3830 O.3     1  UNL1       -0.4810
      5  H          3.6820    2.3410    2.1900 H       1  UNL1        0.2960
      6  C          6.2920    0.8760   -0.6090 C.3     1  UNL1        0.0470
      7  C          7.0180   -0.3110   -1.0650 C.2     1  UNL1       -0.0430
      8  C          7.2660   -0.5350   -2.4110 C.2     1  UNL1        0.0080
      9  C          7.4410   -1.2590   -0.1730 C.2     1  UNL1        0.0540
     10  C          7.9170   -1.6690   -2.8450 C.2     1  UNL1        0.0510
     11  C          8.0970   -2.4040   -0.5850 C.2     1  UNL1        0.1660
     12  C          8.3370   -2.6130   -1.9220 C.2     1  UNL1        0.1650
     13  O          8.6060   -3.4780    0.1240 O.2     1  UNL1       -0.4540
     14  O          9.0030   -3.8350   -2.0260 O.2     1  UNL1       -0.4540
     15  C          8.9020   -4.5310   -0.8050 C.3     1  UNL1        0.4680
@<TRIPOS>BOND
     1    10     8    1
     2    10    12    2
     3     8     7    2
     4    14    12    1
     5    14    15    1
     6    12    11    1
     7     7     6    1
     8     7     9    1
     9    15    13    1
    10     6     1    1
    11    11     9    2
    12    11    13    1
    13     1     2    1
    14     4     2    1
    15     4     5    1
    16     2     3    2
