@<TRIPOS>MOLECULE
/home/cewinharhar/GITHUB/reincatalyze/data/processed/docking_pred/2023-May-17-1006_maxeplen10_maxtrainstep1000_seadep16_gamma099_lrac9e-4_lrcr1e-3_sub6/1f774135605f6656ff2aa9e322f53f2a679c664c_ligand_6.pdbqt
 15 16 0 0 0
SMALL
GASTEIGER

@<TRIPOS>ATOM
      1  C          5.3830    2.6940    0.1150 C.3     1  UNL1        0.1270
      2  C          6.1280    3.6750    0.8890 C.2     1  UNL1        0.3030
      3  O          6.2370    3.6870    2.1170 O.2     1  UNL1       -0.2520
      4  O          6.7810    4.6950    0.1790 O.3     1  UNL1       -0.4810
      5  H          6.5570    5.6400    0.4510 H       1  UNL1        0.2960
      6  C          5.3580    1.3450    0.7200 C.3     1  UNL1        0.0470
      7  C          6.2130    0.3180    0.1200 C.2     1  UNL1       -0.0430
      8  C          6.4890    0.3090   -1.2380 C.2     1  UNL1        0.0080
      9  C          6.7340   -0.6920    0.8830 C.2     1  UNL1        0.0540
     10  C          7.2630   -0.6770   -1.8100 C.2     1  UNL1        0.0510
     11  C          7.5140   -1.6920    0.3320 C.2     1  UNL1        0.1660
     12  C          7.7810   -1.6880   -1.0160 C.2     1  UNL1        0.1650
     13  O          8.1350   -2.7910    0.8980 O.2     1  UNL1       -0.4540
     14  O          8.5780   -2.8040   -1.2720 O.2     1  UNL1       -0.4540
     15  C          8.5490   -3.6680   -0.1600 C.3     1  UNL1        0.4680
@<TRIPOS>BOND
     1    10     8    1
     2    10    12    2
     3    14    12    1
     4    14    15    1
     5     8     7    2
     6    12    11    1
     7    15    13    1
     8     1     6    1
     9     1     2    1
    10     7     6    1
    11     7     9    1
    12     4     5    1
    13     4     2    1
    14    11     9    2
    15    11    13    1
    16     2     3    2
