@<TRIPOS>MOLECULE
/home/cewinharhar/GITHUB/reincatalyze/data/processed/docking_pred/2023-May-17-1006_maxeplen10_maxtrainstep1000_seadep16_gamma099_lrac9e-4_lrcr1e-3_sub6/1f774135605f6656ff2aa9e322f53f2a679c664c_ligand_6.pdbqt
 15 16 0 0 0
SMALL
GASTEIGER

@<TRIPOS>ATOM
      1  C          4.7170    1.8400    0.7090 C.3     1  UNL1        0.1270
      2  C          4.4100    1.1250    1.9370 C.2     1  UNL1        0.3030
      3  O          5.1340    0.2900    2.4820 O.2     1  UNL1       -0.2520
      4  O          3.1830    1.4080    2.5580 O.3     1  UNL1       -0.4810
      5  H          3.2310    1.8970    3.4390 H       1  UNL1        0.2960
      6  C          6.1450    2.1990    0.5650 C.3     1  UNL1        0.0470
      7  C          6.9930    1.3000   -0.2210 C.2     1  UNL1       -0.0430
      8  C          8.3520    1.5300   -0.3680 C.2     1  UNL1        0.0080
      9  C          6.4560    0.2190   -0.8690 C.2     1  UNL1        0.0540
     10  C          9.1440    0.7060   -1.1360 C.2     1  UNL1        0.0510
     11  C          7.2320   -0.6220   -1.6440 C.2     1  UNL1        0.1660
     12  C          8.5780   -0.3820   -1.7800 C.2     1  UNL1        0.1650
     13  O          6.9120   -1.7520   -2.3760 O.2     1  UNL1       -0.4540
     14  O          9.0840   -1.3840   -2.6100 O.2     1  UNL1       -0.4540
     15  C          8.0180   -2.0570   -3.2390 C.3     1  UNL1        0.4680
@<TRIPOS>BOND
     1    15    14    1
     2    15    13    1
     3    14    12    1
     4    13    11    1
     5    12    11    2
     6    12    10    1
     7    11     9    1
     8    10     8    2
     9     9     7    2
    10     8     7    1
    11     7     6    1
    12     6     1    1
    13     1     2    1
    14     2     3    2
    15     2     4    1
    16     4     5    1
