@<TRIPOS>MOLECULE
/home/cewinharhar/GITHUB/reincatalyze/data/processed/docking_pred/2023-May-17-1006_maxeplen10_maxtrainstep1000_seadep16_gamma099_lrac9e-4_lrcr1e-3_sub6/1f774135605f6656ff2aa9e322f53f2a679c664c_ligand_6.pdbqt
 15 16 0 0 0
SMALL
GASTEIGER

@<TRIPOS>ATOM
      1  C          8.3100   -0.3180   -2.8440 C.3     1  UNL1        0.1270
      2  C          8.4680   -1.7470   -3.0670 C.2     1  UNL1        0.3030
      3  O          9.5340   -2.3650   -3.0310 O.2     1  UNL1       -0.2520
      4  O          7.3090   -2.4870   -3.3480 O.3     1  UNL1       -0.4810
      5  H          6.4910   -1.9550   -3.5990 H       1  UNL1        0.2960
      6  C          8.7640    0.1350   -1.5120 C.3     1  UNL1        0.0470
      7  C          7.7930    0.0980   -0.4170 C.2     1  UNL1       -0.0430
      8  C          7.7410   -0.9660    0.4710 C.2     1  UNL1        0.0080
      9  C          6.8760    1.1030   -0.2600 C.2     1  UNL1        0.0540
     10  C          6.8040   -1.0190    1.4790 C.2     1  UNL1        0.0510
     11  C          5.9270    1.0720    0.7440 C.2     1  UNL1        0.1660
     12  C          5.8880    0.0120    1.6170 C.2     1  UNL1        0.1650
     13  O          4.9220    1.9590    1.0860 O.2     1  UNL1       -0.4540
     14  O          4.8400    0.2590    2.5050 O.2     1  UNL1       -0.4540
     15  C          4.0340    1.3000    2.0030 C.3     1  UNL1        0.4680
@<TRIPOS>BOND
     1     5     4    1
     2     4     2    1
     3     2     3    2
     4     2     1    1
     5     1     6    1
     6     6     7    1
     7     7     9    2
     8     7     8    1
     9     9    11    1
    10     8    10    2
    11    11    13    1
    12    11    12    2
    13    13    15    1
    14    10    12    1
    15    12    14    1
    16    15    14    1
