MODEL 1
REMARK VINA RESULT:      -7.7      0.000      0.000
REMARK SMILES O=C(O)CCc1ccc2c(c1)OCO2
REMARK SMILES IDX 4 1 2 2 1 3 3 4 5 6 6 7 7 8 11 9 8 10 10 11 9 12 12 13 14 14
REMARK SMILES IDX 13 15
REMARK H PARENT 3 5
REMARK Flexibility Score: inf
ROOT
ATOM      1  C   UNL     1       5.413   2.871   0.123  1.00  0.00     0.127 C 
ENDROOT
BRANCH   1   2
ATOM      2  C   UNL     1       6.238   3.857   0.803  1.00  0.00     0.303 C 
ATOM      3  O   UNL     1       6.873   4.761   0.255  1.00  0.00    -0.252 OA
BRANCH   2   4
ATOM      4  O   UNL     1       6.320   3.775   2.201  1.00  0.00    -0.481 OA
ATOM      5  H   UNL     1       5.768   3.053   2.638  1.00  0.00     0.296 HD
ENDBRANCH   2   4
ENDBRANCH   1   2
BRANCH   1   6
ATOM      6  C   UNL     1       5.349   1.565   0.813  1.00  0.00     0.047 C 
BRANCH   6   7
ATOM      7  C   UNL     1       6.132   0.462   0.250  1.00  0.00    -0.043 A 
ATOM      8  C   UNL     1       6.595  -0.576   1.043  1.00  0.00     0.008 A 
ATOM      9  C   UNL     1       6.464   0.446  -1.078  1.00  0.00     0.054 A 
ATOM     10  C   UNL     1       7.361  -1.595   0.523  1.00  0.00     0.051 A 
ATOM     11  C   UNL     1       7.232  -0.566  -1.623  1.00  0.00     0.166 A 
ATOM     12  C   UNL     1       7.683  -1.589  -0.825  1.00  0.00     0.165 A 
ATOM     13  O   UNL     1       7.681  -0.785  -2.913  1.00  0.00    -0.454 OA
ATOM     14  O   UNL     1       8.420  -2.445  -1.646  1.00  0.00    -0.454 OA
ATOM     15  C   UNL     1       8.692  -1.804  -2.870  1.00  0.00     0.468 C 
ENDBRANCH   6   7
ENDBRANCH   1   6
TORSDOF 4
ENDMDL
MODEL 2
REMARK VINA RESULT:      -7.6      2.144      2.525
REMARK SMILES O=C(O)CCc1ccc2c(c1)OCO2
REMARK SMILES IDX 4 1 2 2 1 3 3 4 5 6 6 7 7 8 11 9 8 10 10 11 9 12 12 13 14 14
REMARK SMILES IDX 13 15
REMARK H PARENT 3 5
REMARK Flexibility Score: inf
ROOT
ATOM      1  C   UNL     1       4.717   1.840   0.709  1.00  0.00     0.127 C 
ENDROOT
BRANCH   1   2
ATOM      2  C   UNL     1       4.410   1.125   1.937  1.00  0.00     0.303 C 
ATOM      3  O   UNL     1       5.134   0.290   2.482  1.00  0.00    -0.252 OA
BRANCH   2   4
ATOM      4  O   UNL     1       3.183   1.408   2.558  1.00  0.00    -0.481 OA
ATOM      5  H   UNL     1       3.231   1.897   3.439  1.00  0.00     0.296 HD
ENDBRANCH   2   4
ENDBRANCH   1   2
BRANCH   1   6
ATOM      6  C   UNL     1       6.145   2.199   0.565  1.00  0.00     0.047 C 
BRANCH   6   7
ATOM      7  C   UNL     1       6.993   1.300  -0.221  1.00  0.00    -0.043 A 
ATOM      8  C   UNL     1       8.352   1.530  -0.368  1.00  0.00     0.008 A 
ATOM      9  C   UNL     1       6.456   0.219  -0.869  1.00  0.00     0.054 A 
ATOM     10  C   UNL     1       9.144   0.706  -1.136  1.00  0.00     0.051 A 
ATOM     11  C   UNL     1       7.232  -0.622  -1.644  1.00  0.00     0.166 A 
ATOM     12  C   UNL     1       8.578  -0.382  -1.780  1.00  0.00     0.165 A 
ATOM     13  O   UNL     1       6.912  -1.752  -2.376  1.00  0.00    -0.454 OA
ATOM     14  O   UNL     1       9.084  -1.384  -2.610  1.00  0.00    -0.454 OA
ATOM     15  C   UNL     1       8.018  -2.057  -3.239  1.00  0.00     0.468 C 
ENDBRANCH   6   7
ENDBRANCH   1   6
TORSDOF 4
ENDMDL
MODEL 3
REMARK VINA RESULT:      -7.5      0.963      2.121
REMARK SMILES O=C(O)CCc1ccc2c(c1)OCO2
REMARK SMILES IDX 4 1 2 2 1 3 3 4 5 6 6 7 7 8 11 9 8 10 10 11 9 12 12 13 14 14
REMARK SMILES IDX 13 15
REMARK H PARENT 3 5
REMARK Flexibility Score: inf
ROOT
ATOM      1  C   UNL     1       5.383   2.694   0.115  1.00  0.00     0.127 C 
ENDROOT
BRANCH   1   2
ATOM      2  C   UNL     1       6.128   3.675   0.889  1.00  0.00     0.303 C 
ATOM      3  O   UNL     1       6.237   3.687   2.117  1.00  0.00    -0.252 OA
BRANCH   2   4
ATOM      4  O   UNL     1       6.781   4.695   0.179  1.00  0.00    -0.481 OA
ATOM      5  H   UNL     1       6.557   5.640   0.451  1.00  0.00     0.296 HD
ENDBRANCH   2   4
ENDBRANCH   1   2
BRANCH   1   6
ATOM      6  C   UNL     1       5.358   1.345   0.720  1.00  0.00     0.047 C 
BRANCH   6   7
ATOM      7  C   UNL     1       6.213   0.318   0.120  1.00  0.00    -0.043 A 
ATOM      8  C   UNL     1       6.489   0.309  -1.238  1.00  0.00     0.008 A 
ATOM      9  C   UNL     1       6.734  -0.692   0.883  1.00  0.00     0.054 A 
ATOM     10  C   UNL     1       7.263  -0.677  -1.810  1.00  0.00     0.051 A 
ATOM     11  C   UNL     1       7.514  -1.692   0.332  1.00  0.00     0.166 A 
ATOM     12  C   UNL     1       7.781  -1.688  -1.016  1.00  0.00     0.165 A 
ATOM     13  O   UNL     1       8.135  -2.791   0.898  1.00  0.00    -0.454 OA
ATOM     14  O   UNL     1       8.578  -2.804  -1.272  1.00  0.00    -0.454 OA
ATOM     15  C   UNL     1       8.549  -3.668  -0.160  1.00  0.00     0.468 C 
ENDBRANCH   6   7
ENDBRANCH   1   6
TORSDOF 4
ENDMDL
MODEL 4
REMARK VINA RESULT:      -7.4      1.790      5.283
REMARK SMILES O=C(O)CCc1ccc2c(c1)OCO2
REMARK SMILES IDX 4 1 2 2 1 3 3 4 5 6 6 7 7 8 11 9 8 10 10 11 9 12 12 13 14 14
REMARK SMILES IDX 13 15
REMARK H PARENT 3 5
REMARK Flexibility Score: inf
ROOT
ATOM      1  C   UNL     1       8.310  -0.318  -2.844  1.00  0.00     0.127 C 
ENDROOT
BRANCH   1   2
ATOM      2  C   UNL     1       8.468  -1.747  -3.067  1.00  0.00     0.303 C 
ATOM      3  O   UNL     1       9.534  -2.365  -3.031  1.00  0.00    -0.252 OA
BRANCH   2   4
ATOM      4  O   UNL     1       7.309  -2.487  -3.348  1.00  0.00    -0.481 OA
ATOM      5  H   UNL     1       6.491  -1.955  -3.599  1.00  0.00     0.296 HD
ENDBRANCH   2   4
ENDBRANCH   1   2
BRANCH   1   6
ATOM      6  C   UNL     1       8.764   0.135  -1.512  1.00  0.00     0.047 C 
BRANCH   6   7
ATOM      7  C   UNL     1       7.793   0.098  -0.417  1.00  0.00    -0.043 A 
ATOM      8  C   UNL     1       7.741  -0.966   0.471  1.00  0.00     0.008 A 
ATOM      9  C   UNL     1       6.876   1.103  -0.260  1.00  0.00     0.054 A 
ATOM     10  C   UNL     1       6.804  -1.019   1.479  1.00  0.00     0.051 A 
ATOM     11  C   UNL     1       5.927   1.072   0.744  1.00  0.00     0.166 A 
ATOM     12  C   UNL     1       5.888   0.012   1.617  1.00  0.00     0.165 A 
ATOM     13  O   UNL     1       4.922   1.959   1.086  1.00  0.00    -0.454 OA
ATOM     14  O   UNL     1       4.840   0.259   2.505  1.00  0.00    -0.454 OA
ATOM     15  C   UNL     1       4.034   1.300   2.003  1.00  0.00     0.468 C 
ENDBRANCH   6   7
ENDBRANCH   1   6
TORSDOF 4
ENDMDL
MODEL 5
REMARK VINA RESULT:      -7.4      1.983      2.959
REMARK SMILES O=C(O)CCc1ccc2c(c1)OCO2
REMARK SMILES IDX 4 1 2 2 1 3 3 4 5 6 6 7 7 8 11 9 8 10 10 11 9 12 12 13 14 14
REMARK SMILES IDX 13 15
REMARK H PARENT 3 5
REMARK Flexibility Score: inf
ROOT
ATOM      1  C   UNL     1       6.423   1.327   0.682  1.00  0.00     0.127 C 
ENDROOT
BRANCH   1   2
ATOM      2  C   UNL     1       5.292   1.137   1.576  1.00  0.00     0.303 C 
ATOM      3  O   UNL     1       5.197   0.259   2.436  1.00  0.00    -0.252 OA
BRANCH   2   4
ATOM      4  O   UNL     1       4.215   2.029   1.452  1.00  0.00    -0.481 OA
ATOM      5  H   UNL     1       3.398   1.676   0.977  1.00  0.00     0.296 HD
ENDBRANCH   2   4
ENDBRANCH   1   2
BRANCH   1   6
ATOM      6  C   UNL     1       6.185   0.851  -0.697  1.00  0.00     0.047 C 
BRANCH   6   7
ATOM      7  C   UNL     1       6.955  -0.308  -1.156  1.00  0.00    -0.043 A 
ATOM      8  C   UNL     1       7.266  -0.487  -2.495  1.00  0.00     0.008 A 
ATOM      9  C   UNL     1       7.360  -1.274  -0.273  1.00  0.00     0.054 A 
ATOM     10  C   UNL     1       7.958  -1.594  -2.932  1.00  0.00     0.051 A 
ATOM     11  C   UNL     1       8.056  -2.392  -0.689  1.00  0.00     0.166 A 
ATOM     12  C   UNL     1       8.358  -2.556  -2.019  1.00  0.00     0.165 A 
ATOM     13  O   UNL     1       8.557  -3.476   0.011  1.00  0.00    -0.454 OA
ATOM     14  O   UNL     1       9.054  -3.761  -2.129  1.00  0.00    -0.454 OA
ATOM     15  C   UNL     1       8.915  -4.495  -0.934  1.00  0.00     0.468 C 
ENDBRANCH   6   7
ENDBRANCH   1   6
TORSDOF 4
ENDMDL
