@<TRIPOS>MOLECULE
/home/cewinharhar/GITHUB/reincatalyze/data/processed/docking_pred/2023-May-17-1006_maxeplen10_maxtrainstep1000_seadep16_gamma099_lrac9e-4_lrcr1e-3_sub6/1f774135605f6656ff2aa9e322f53f2a679c664c_ligand_6.pdbqt
 15 16 0 0 0
SMALL
GASTEIGER

@<TRIPOS>ATOM
      1  C          6.4230    1.3270    0.6820 C.3     1  UNL1        0.1270
      2  C          5.2920    1.1370    1.5760 C.2     1  UNL1        0.3030
      3  O          5.1970    0.2590    2.4360 O.2     1  UNL1       -0.2520
      4  O          4.2150    2.0290    1.4520 O.3     1  UNL1       -0.4810
      5  H          3.3980    1.6760    0.9770 H       1  UNL1        0.2960
      6  C          6.1850    0.8510   -0.6970 C.3     1  UNL1        0.0470
      7  C          6.9550   -0.3080   -1.1560 C.2     1  UNL1       -0.0430
      8  C          7.2660   -0.4870   -2.4950 C.2     1  UNL1        0.0080
      9  C          7.3600   -1.2740   -0.2730 C.2     1  UNL1        0.0540
     10  C          7.9580   -1.5940   -2.9320 C.2     1  UNL1        0.0510
     11  C          8.0560   -2.3920   -0.6890 C.2     1  UNL1        0.1660
     12  C          8.3580   -2.5560   -2.0190 C.2     1  UNL1        0.1650
     13  O          8.5570   -3.4760    0.0110 O.2     1  UNL1       -0.4540
     14  O          9.0540   -3.7610   -2.1290 O.2     1  UNL1       -0.4540
     15  C          8.9150   -4.4950   -0.9340 C.3     1  UNL1        0.4680
@<TRIPOS>BOND
     1    10     8    1
     2    10    12    2
     3     8     7    2
     4    14    12    1
     5    14    15    1
     6    12    11    1
     7     7     6    1
     8     7     9    1
     9    15    13    1
    10     6     1    1
    11    11     9    2
    12    11    13    1
    13     1     2    1
    14     5     4    1
    15     4     2    1
    16     2     3    2
