MODEL 1
REMARK VINA RESULT:      -7.6      0.000      0.000
REMARK SMILES O=C(O)CCc1ccc2c(c1)OCO2
REMARK SMILES IDX 4 1 2 2 1 3 3 4 5 6 6 7 7 8 11 9 8 10 10 11 9 12 12 13 14 14
REMARK SMILES IDX 13 15
REMARK H PARENT 3 5
REMARK Flexibility Score: inf
ROOT
ATOM      1  C   UNL     1       5.421   2.877   0.094  1.00  0.00     0.127 C 
ENDROOT
BRANCH   1   2
ATOM      2  C   UNL     1       6.226   3.876   0.778  1.00  0.00     0.303 C 
ATOM      3  O   UNL     1       6.918   4.736   0.232  1.00  0.00    -0.252 OA
BRANCH   2   4
ATOM      4  O   UNL     1       6.214   3.862   2.182  1.00  0.00    -0.481 OA
ATOM      5  H   UNL     1       7.082   3.616   2.632  1.00  0.00     0.296 HD
ENDBRANCH   2   4
ENDBRANCH   1   2
BRANCH   1   6
ATOM      6  C   UNL     1       5.360   1.574   0.791  1.00  0.00     0.047 C 
BRANCH   6   7
ATOM      7  C   UNL     1       6.126   0.464   0.220  1.00  0.00    -0.043 A 
ATOM      8  C   UNL     1       6.529  -0.612   0.995  1.00  0.00     0.008 A 
ATOM      9  C   UNL     1       6.503   0.478  -1.097  1.00  0.00     0.054 A 
ATOM     10  C   UNL     1       7.281  -1.639   0.468  1.00  0.00     0.051 A 
ATOM     11  C   UNL     1       7.256  -0.542  -1.647  1.00  0.00     0.166 A 
ATOM     12  C   UNL     1       7.648  -1.604  -0.867  1.00  0.00     0.165 A 
ATOM     13  O   UNL     1       7.742  -0.737  -2.928  1.00  0.00    -0.454 OA
ATOM     14  O   UNL     1       8.384  -2.458  -1.689  1.00  0.00    -0.454 OA
ATOM     15  C   UNL     1       8.718  -1.789  -2.884  1.00  0.00     0.468 C 
ENDBRANCH   6   7
ENDBRANCH   1   6
TORSDOF 4
ENDMDL
MODEL 2
REMARK VINA RESULT:      -7.6      2.138      2.532
REMARK SMILES O=C(O)CCc1ccc2c(c1)OCO2
REMARK SMILES IDX 4 1 2 2 1 3 3 4 5 6 6 7 7 8 11 9 8 10 10 11 9 12 12 13 14 14
REMARK SMILES IDX 13 15
REMARK H PARENT 3 5
REMARK Flexibility Score: inf
ROOT
ATOM      1  C   UNL     1       4.711   1.855   0.689  1.00  0.00     0.127 C 
ENDROOT
BRANCH   1   2
ATOM      2  C   UNL     1       4.409   1.147   1.923  1.00  0.00     0.303 C 
ATOM      3  O   UNL     1       5.139   0.320   2.472  1.00  0.00    -0.252 OA
BRANCH   2   4
ATOM      4  O   UNL     1       3.181   1.427   2.543  1.00  0.00    -0.481 OA
ATOM      5  H   UNL     1       3.130   2.291   3.059  1.00  0.00     0.296 HD
ENDBRANCH   2   4
ENDBRANCH   1   2
BRANCH   1   6
ATOM      6  C   UNL     1       6.135   2.223   0.541  1.00  0.00     0.047 C 
BRANCH   6   7
ATOM      7  C   UNL     1       6.990   1.321  -0.234  1.00  0.00    -0.043 A 
ATOM      8  C   UNL     1       8.348   1.557  -0.380  1.00  0.00     0.008 A 
ATOM      9  C   UNL     1       6.461   0.232  -0.874  1.00  0.00     0.054 A 
ATOM     10  C   UNL     1       9.147   0.730  -1.139  1.00  0.00     0.051 A 
ATOM     11  C   UNL     1       7.243  -0.612  -1.640  1.00  0.00     0.166 A 
ATOM     12  C   UNL     1       8.588  -0.366  -1.775  1.00  0.00     0.165 A 
ATOM     13  O   UNL     1       6.930  -1.750  -2.363  1.00  0.00    -0.454 OA
ATOM     14  O   UNL     1       9.101  -1.373  -2.594  1.00  0.00    -0.454 OA
ATOM     15  C   UNL     1       8.040  -2.056  -3.220  1.00  0.00     0.468 C 
ENDBRANCH   6   7
ENDBRANCH   1   6
TORSDOF 4
ENDMDL
MODEL 3
REMARK VINA RESULT:      -7.5      1.809      5.288
REMARK SMILES O=C(O)CCc1ccc2c(c1)OCO2
REMARK SMILES IDX 4 1 2 2 1 3 3 4 5 6 6 7 7 8 11 9 8 10 10 11 9 12 12 13 14 14
REMARK SMILES IDX 13 15
REMARK H PARENT 3 5
REMARK Flexibility Score: inf
ROOT
ATOM      1  C   UNL     1       8.294  -0.314  -2.855  1.00  0.00     0.127 C 
ENDROOT
BRANCH   1   2
ATOM      2  C   UNL     1       8.459  -1.743  -3.070  1.00  0.00     0.303 C 
ATOM      3  O   UNL     1       9.527  -2.357  -3.020  1.00  0.00    -0.252 OA
BRANCH   2   4
ATOM      4  O   UNL     1       7.306  -2.489  -3.360  1.00  0.00    -0.481 OA
ATOM      5  H   UNL     1       7.358  -3.479  -3.177  1.00  0.00     0.296 HD
ENDBRANCH   2   4
ENDBRANCH   1   2
BRANCH   1   6
ATOM      6  C   UNL     1       8.757   0.151  -1.530  1.00  0.00     0.047 C 
BRANCH   6   7
ATOM      7  C   UNL     1       7.796   0.115  -0.426  1.00  0.00    -0.043 A 
ATOM      8  C   UNL     1       7.772  -0.935   0.480  1.00  0.00     0.008 A 
ATOM      9  C   UNL     1       6.862   1.105  -0.278  1.00  0.00     0.054 A 
ATOM     10  C   UNL     1       6.845  -0.988   1.497  1.00  0.00     0.051 A 
ATOM     11  C   UNL     1       5.923   1.073   0.736  1.00  0.00     0.166 A 
ATOM     12  C   UNL     1       5.911   0.027   1.626  1.00  0.00     0.165 A 
ATOM     13  O   UNL     1       4.904   1.947   1.072  1.00  0.00    -0.454 OA
ATOM     14  O   UNL     1       4.866   0.270   2.519  1.00  0.00    -0.454 OA
ATOM     15  C   UNL     1       4.037   1.288   2.008  1.00  0.00     0.468 C 
ENDBRANCH   6   7
ENDBRANCH   1   6
TORSDOF 4
ENDMDL
MODEL 4
REMARK VINA RESULT:      -7.5      1.976      2.885
REMARK SMILES O=C(O)CCc1ccc2c(c1)OCO2
REMARK SMILES IDX 4 1 2 2 1 3 3 4 5 6 6 7 7 8 11 9 8 10 10 11 9 12 12 13 14 14
REMARK SMILES IDX 13 15
REMARK H PARENT 3 5
REMARK Flexibility Score: inf
ROOT
ATOM      1  C   UNL     1       6.416   1.299   0.704  1.00  0.00     0.127 C 
ENDROOT
BRANCH   1   2
ATOM      2  C   UNL     1       5.174   1.290   1.462  1.00  0.00     0.303 C 
ATOM      3  O   UNL     1       4.253   2.099   1.337  1.00  0.00    -0.252 OA
BRANCH   2   4
ATOM      4  O   UNL     1       5.009   0.275   2.417  1.00  0.00    -0.481 OA
ATOM      5  H   UNL     1       4.530  -0.555   2.106  1.00  0.00     0.296 HD
ENDBRANCH   2   4
ENDBRANCH   1   2
BRANCH   1   6
ATOM      6  C   UNL     1       6.260   0.888  -0.708  1.00  0.00     0.047 C 
BRANCH   6   7
ATOM      7  C   UNL     1       6.987  -0.303  -1.151  1.00  0.00    -0.043 A 
ATOM      8  C   UNL     1       7.259  -0.529  -2.491  1.00  0.00     0.008 A 
ATOM      9  C   UNL     1       7.387  -1.255  -0.251  1.00  0.00     0.054 A 
ATOM     10  C   UNL     1       7.910  -1.667  -2.913  1.00  0.00     0.051 A 
ATOM     11  C   UNL     1       8.043  -2.404  -0.651  1.00  0.00     0.166 A 
ATOM     12  C   UNL     1       8.307  -2.614  -1.982  1.00  0.00     0.165 A 
ATOM     13  O   UNL     1       8.531  -3.480   0.068  1.00  0.00    -0.454 OA
ATOM     14  O   UNL     1       8.967  -3.840  -2.074  1.00  0.00    -0.454 OA
ATOM     15  C   UNL     1       8.838  -4.536  -0.855  1.00  0.00     0.468 C 
ENDBRANCH   6   7
ENDBRANCH   1   6
TORSDOF 4
ENDMDL
MODEL 5
REMARK VINA RESULT:      -7.4      0.942      2.107
REMARK SMILES O=C(O)CCc1ccc2c(c1)OCO2
REMARK SMILES IDX 4 1 2 2 1 3 3 4 5 6 6 7 7 8 11 9 8 10 10 11 9 12 12 13 14 14
REMARK SMILES IDX 13 15
REMARK H PARENT 3 5
REMARK Flexibility Score: inf
ROOT
ATOM      1  C   UNL     1       5.390   2.837   0.099  1.00  0.00     0.127 C 
ENDROOT
BRANCH   1   2
ATOM      2  C   UNL     1       6.111   3.854   0.848  1.00  0.00     0.303 C 
ATOM      3  O   UNL     1       6.110   3.977   2.075  1.00  0.00    -0.252 OA
BRANCH   2   4
ATOM      4  O   UNL     1       6.874   4.775   0.114  1.00  0.00    -0.481 OA
ATOM      5  H   UNL     1       7.623   4.391  -0.441  1.00  0.00     0.296 HD
ENDBRANCH   2   4
ENDBRANCH   1   2
BRANCH   1   6
ATOM      6  C   UNL     1       5.387   1.506   0.743  1.00  0.00     0.047 C 
BRANCH   6   7
ATOM      7  C   UNL     1       6.207   0.457   0.133  1.00  0.00    -0.043 A 
ATOM      8  C   UNL     1       6.444   0.424  -1.233  1.00  0.00     0.008 A 
ATOM      9  C   UNL     1       6.734  -0.552   0.895  1.00  0.00     0.054 A 
ATOM     10  C   UNL     1       7.184  -0.582  -1.812  1.00  0.00     0.051 A 
ATOM     11  C   UNL     1       7.481  -1.571   0.335  1.00  0.00     0.166 A 
ATOM     12  C   UNL     1       7.709  -1.590  -1.019  1.00  0.00     0.165 A 
ATOM     13  O   UNL     1       8.101  -2.672   0.899  1.00  0.00    -0.454 OA
ATOM     14  O   UNL     1       8.481  -2.722  -1.283  1.00  0.00    -0.454 OA
ATOM     15  C   UNL     1       8.470  -3.570  -0.158  1.00  0.00     0.468 C 
ENDBRANCH   6   7
ENDBRANCH   1   6
TORSDOF 4
ENDMDL
