@<TRIPOS>MOLECULE
/home/cewinharhar/GITHUB/reincatalyze/data/processed/docking_pred/2023-May-17-1006_maxeplen10_maxtrainstep1000_seadep16_gamma099_lrac9e-4_lrcr1e-3_sub6/1fd5ec6d4a6889d2560636754963a08404c0587d_ligand_6.pdbqt
 15 16 0 0 0
SMALL
GASTEIGER

@<TRIPOS>ATOM
      1  C          5.3900    2.8370    0.0990 C.3     1  UNL1        0.1270
      2  C          6.1110    3.8540    0.8480 C.2     1  UNL1        0.3030
      3  O          6.1100    3.9770    2.0750 O.2     1  UNL1       -0.2520
      4  O          6.8740    4.7750    0.1140 O.3     1  UNL1       -0.4810
      5  H          7.6230    4.3910   -0.4410 H       1  UNL1        0.2960
      6  C          5.3870    1.5060    0.7430 C.3     1  UNL1        0.0470
      7  C          6.2070    0.4570    0.1330 C.2     1  UNL1       -0.0430
      8  C          6.4440    0.4240   -1.2330 C.2     1  UNL1        0.0080
      9  C          6.7340   -0.5520    0.8950 C.2     1  UNL1        0.0540
     10  C          7.1840   -0.5820   -1.8120 C.2     1  UNL1        0.0510
     11  C          7.4810   -1.5710    0.3350 C.2     1  UNL1        0.1660
     12  C          7.7090   -1.5900   -1.0190 C.2     1  UNL1        0.1650
     13  O          8.1010   -2.6720    0.8990 O.2     1  UNL1       -0.4540
     14  O          8.4810   -2.7220   -1.2830 O.2     1  UNL1       -0.4540
     15  C          8.4700   -3.5700   -0.1580 C.3     1  UNL1        0.4680
@<TRIPOS>BOND
     1    10     8    1
     2    10    12    2
     3    14    12    1
     4    14    15    1
     5     8     7    2
     6    12    11    1
     7     5     4    1
     8    15    13    1
     9     1     6    1
    10     1     2    1
    11     4     2    1
    12     7     6    1
    13     7     9    1
    14    11     9    2
    15    11    13    1
    16     2     3    2
