@<TRIPOS>MOLECULE
/home/cewinharhar/GITHUB/reincatalyze/data/processed/docking_pred/2023-May-17-1006_maxeplen10_maxtrainstep1000_seadep16_gamma099_lrac9e-4_lrcr1e-3_sub6/1fd5ec6d4a6889d2560636754963a08404c0587d_ligand_6.pdbqt
 15 16 0 0 0
SMALL
GASTEIGER

@<TRIPOS>ATOM
      1  C          8.2940   -0.3140   -2.8550 C.3     1  UNL1        0.1270
      2  C          8.4590   -1.7430   -3.0700 C.2     1  UNL1        0.3030
      3  O          9.5270   -2.3570   -3.0200 O.2     1  UNL1       -0.2520
      4  O          7.3060   -2.4890   -3.3600 O.3     1  UNL1       -0.4810
      5  H          7.3580   -3.4790   -3.1770 H       1  UNL1        0.2960
      6  C          8.7570    0.1510   -1.5300 C.3     1  UNL1        0.0470
      7  C          7.7960    0.1150   -0.4260 C.2     1  UNL1       -0.0430
      8  C          7.7720   -0.9350    0.4800 C.2     1  UNL1        0.0080
      9  C          6.8620    1.1050   -0.2780 C.2     1  UNL1        0.0540
     10  C          6.8450   -0.9880    1.4970 C.2     1  UNL1        0.0510
     11  C          5.9230    1.0730    0.7360 C.2     1  UNL1        0.1660
     12  C          5.9110    0.0270    1.6260 C.2     1  UNL1        0.1650
     13  O          4.9040    1.9470    1.0720 O.2     1  UNL1       -0.4540
     14  O          4.8660    0.2700    2.5190 O.2     1  UNL1       -0.4540
     15  C          4.0370    1.2880    2.0080 C.3     1  UNL1        0.4680
@<TRIPOS>BOND
     1     4     5    1
     2     4     2    1
     3     2     3    2
     4     2     1    1
     5     1     6    1
     6     6     7    1
     7     7     9    2
     8     7     8    1
     9     9    11    1
    10     8    10    2
    11    11    13    1
    12    11    12    2
    13    13    15    1
    14    10    12    1
    15    12    14    1
    16    15    14    1
