@<TRIPOS>MOLECULE
/home/cewinharhar/GITHUB/reincatalyze/data/processed/docking_pred/2023-May-17-1006_maxeplen10_maxtrainstep1000_seadep16_gamma099_lrac9e-4_lrcr1e-3_sub6/1fd5ec6d4a6889d2560636754963a08404c0587d_ligand_6.pdbqt
 15 16 0 0 0
SMALL
GASTEIGER

@<TRIPOS>ATOM
      1  C          6.4160    1.2990    0.7040 C.3     1  UNL1        0.1270
      2  C          5.1740    1.2900    1.4620 C.2     1  UNL1        0.3030
      3  O          4.2530    2.0990    1.3370 O.2     1  UNL1       -0.2520
      4  O          5.0090    0.2750    2.4170 O.3     1  UNL1       -0.4810
      5  H          4.5300   -0.5550    2.1060 H       1  UNL1        0.2960
      6  C          6.2600    0.8880   -0.7080 C.3     1  UNL1        0.0470
      7  C          6.9870   -0.3030   -1.1510 C.2     1  UNL1       -0.0430
      8  C          7.2590   -0.5290   -2.4910 C.2     1  UNL1        0.0080
      9  C          7.3870   -1.2550   -0.2510 C.2     1  UNL1        0.0540
     10  C          7.9100   -1.6670   -2.9130 C.2     1  UNL1        0.0510
     11  C          8.0430   -2.4040   -0.6510 C.2     1  UNL1        0.1660
     12  C          8.3070   -2.6140   -1.9820 C.2     1  UNL1        0.1650
     13  O          8.5310   -3.4800    0.0680 O.2     1  UNL1       -0.4540
     14  O          8.9670   -3.8400   -2.0740 O.2     1  UNL1       -0.4540
     15  C          8.8380   -4.5360   -0.8550 C.3     1  UNL1        0.4680
@<TRIPOS>BOND
     1    10     8    1
     2    10    12    2
     3     8     7    2
     4    14    12    1
     5    14    15    1
     6    12    11    1
     7     7     6    1
     8     7     9    1
     9    15    13    1
    10     6     1    1
    11    11     9    2
    12    11    13    1
    13     1     2    1
    14     3     2    2
    15     2     4    1
    16     5     4    1
