@<TRIPOS>MOLECULE
/home/cewinharhar/GITHUB/reincatalyze/data/processed/docking_pred/2023-May-17-1006_maxeplen10_maxtrainstep1000_seadep16_gamma099_lrac9e-4_lrcr1e-3_sub6/2037f81c995398ea407fbfc0a5ecaefc5001139a_ligand_6.pdbqt
 15 16 0 0 0
SMALL
GASTEIGER

@<TRIPOS>ATOM
      1  C          6.3890    1.3100    0.6300 C.3     1  UNL1        0.1270
      2  C          5.1860    1.3120    1.4490 C.2     1  UNL1        0.3030
      3  O          4.2580    2.1180    1.3580 O.2     1  UNL1       -0.2520
      4  O          5.0710    0.3130    2.4280 O.3     1  UNL1       -0.4810
      5  H          5.2400    0.6000    3.3800 H       1  UNL1        0.2960
      6  C          6.1800    0.8000   -0.7420 C.3     1  UNL1        0.0470
      7  C          6.9550   -0.3720   -1.1540 C.2     1  UNL1       -0.0430
      8  C          7.2820   -0.5930   -2.4830 C.2     1  UNL1        0.0080
      9  C          7.3490   -1.3090   -0.2370 C.2     1  UNL1        0.0540
     10  C          7.9800   -1.7130   -2.8770 C.2     1  UNL1        0.0510
     11  C          8.0510   -2.4400   -0.6090 C.2     1  UNL1        0.1660
     12  C          8.3690   -2.6460   -1.9300 C.2     1  UNL1        0.1650
     13  O          8.5430   -3.5010    0.1310 O.2     1  UNL1       -0.4540
     14  O          9.0660   -3.8540   -1.9930 O.2     1  UNL1       -0.4540
     15  C          8.9120   -4.5500   -0.7770 C.3     1  UNL1        0.4680
@<TRIPOS>BOND
     1    10     8    1
     2    10    12    2
     3     8     7    2
     4    14    12    1
     5    14    15    1
     6    12    11    1
     7     7     6    1
     8     7     9    1
     9    15    13    1
    10     6     1    1
    11    11     9    2
    12    11    13    1
    13     1     2    1
    14     3     2    2
    15     2     4    1
    16     4     5    1
