@<TRIPOS>MOLECULE
/home/cewinharhar/GITHUB/reincatalyze/data/processed/docking_pred/2023-May-17-1006_maxeplen10_maxtrainstep1000_seadep16_gamma099_lrac9e-4_lrcr1e-3_sub6/2037f81c995398ea407fbfc0a5ecaefc5001139a_ligand_6.pdbqt
 15 16 0 0 0
SMALL
GASTEIGER

@<TRIPOS>ATOM
      1  C          5.4690    2.8670    0.0750 C.3     1  UNL1        0.1270
      2  C          6.2490    3.8760    0.7760 C.2     1  UNL1        0.3030
      3  O          6.9150    4.7650    0.2430 O.2     1  UNL1       -0.2520
      4  O          6.2440    3.8340    2.1790 O.3     1  UNL1       -0.4810
      5  H          5.7490    4.5790    2.6450 H       1  UNL1        0.2960
      6  C          5.4010    1.5670    0.7770 C.3     1  UNL1        0.0470
      7  C          6.1720    0.4550    0.2190 C.2     1  UNL1       -0.0430
      8  C          6.6400   -0.5760    1.0180 C.2     1  UNL1        0.0080
      9  C          6.4880    0.4210   -1.1140 C.2     1  UNL1        0.0540
     10  C          7.3960   -1.6050    0.5010 C.2     1  UNL1        0.0510
     11  C          7.2440   -0.6010   -1.6550 C.2     1  UNL1        0.1660
     12  C          7.7010   -1.6170   -0.8510 C.2     1  UNL1        0.1650
     13  O          7.6780   -0.8380   -2.9480 O.2     1  UNL1       -0.4540
     14  O          8.4240   -2.4860   -1.6690 O.2     1  UNL1       -0.4540
     15  C          8.6840   -1.8600   -2.9050 C.3     1  UNL1        0.4680
@<TRIPOS>BOND
     1    13    15    1
     2    13    11    1
     3    15    14    1
     4    14    12    1
     5    11     9    1
     6    11    12    2
     7     9     7    2
     8    12    10    1
     9     1     2    1
    10     1     6    1
    11     7     6    1
    12     7     8    1
    13     3     2    2
    14    10     8    2
    15     2     4    1
    16     4     5    1
