@<TRIPOS>MOLECULE
/home/cewinharhar/GITHUB/reincatalyze/data/processed/docking_pred/2023-May-17-1006_maxeplen10_maxtrainstep1000_seadep16_gamma099_lrac9e-4_lrcr1e-3_sub6/2037f81c995398ea407fbfc0a5ecaefc5001139a_ligand_6.pdbqt
 15 16 0 0 0
SMALL
GASTEIGER

@<TRIPOS>ATOM
      1  C          8.3070   -0.3160   -2.8360 C.3     1  UNL1        0.1270
      2  C          8.4640   -1.7450   -3.0610 C.2     1  UNL1        0.3030
      3  O          9.5290   -2.3640   -3.0210 O.2     1  UNL1       -0.2520
      4  O          7.3060   -2.4830   -3.3490 O.3     1  UNL1       -0.4810
      5  H          7.3550   -3.4750   -3.1720 H       1  UNL1        0.2960
      6  C          8.7610    0.1350   -1.5040 C.3     1  UNL1        0.0470
      7  C          7.7880    0.1040   -0.4100 C.2     1  UNL1       -0.0430
      8  C          7.7300   -0.9590    0.4790 C.2     1  UNL1        0.0080
      9  C          6.8750    1.1130   -0.2560 C.2     1  UNL1        0.0540
     10  C          6.7910   -1.0060    1.4850 C.2     1  UNL1        0.0510
     11  C          5.9250    1.0870    0.7470 C.2     1  UNL1        0.1660
     12  C          5.8800    0.0280    1.6210 C.2     1  UNL1        0.1650
     13  O          4.9220    1.9790    1.0870 O.2     1  UNL1       -0.4540
     14  O          4.8310    0.2810    2.5070 O.2     1  UNL1       -0.4540
     15  C          4.0310    1.3250    2.0030 C.3     1  UNL1        0.4680
@<TRIPOS>BOND
     1     4     5    1
     2     4     2    1
     3     2     3    2
     4     2     1    1
     5     1     6    1
     6     6     7    1
     7     7     9    2
     8     7     8    1
     9     9    11    1
    10     8    10    2
    11    11    13    1
    12    11    12    2
    13    13    15    1
    14    10    12    1
    15    12    14    1
    16    15    14    1
