MODEL 1
REMARK VINA RESULT:      -7.7      0.000      0.000
REMARK SMILES O=C(O)CCc1ccc2c(c1)OCO2
REMARK SMILES IDX 4 1 2 2 1 3 3 4 5 6 6 7 7 8 11 9 8 10 10 11 9 12 12 13 14 14
REMARK SMILES IDX 13 15
REMARK H PARENT 3 5
REMARK Flexibility Score: inf
ROOT
ATOM      1  C   UNL     1       5.469   2.867   0.075  1.00  0.00     0.127 C 
ENDROOT
BRANCH   1   2
ATOM      2  C   UNL     1       6.249   3.876   0.776  1.00  0.00     0.303 C 
ATOM      3  O   UNL     1       6.915   4.765   0.243  1.00  0.00    -0.252 OA
BRANCH   2   4
ATOM      4  O   UNL     1       6.244   3.834   2.179  1.00  0.00    -0.481 OA
ATOM      5  H   UNL     1       5.749   4.579   2.645  1.00  0.00     0.296 HD
ENDBRANCH   2   4
ENDBRANCH   1   2
BRANCH   1   6
ATOM      6  C   UNL     1       5.401   1.567   0.777  1.00  0.00     0.047 C 
BRANCH   6   7
ATOM      7  C   UNL     1       6.172   0.455   0.219  1.00  0.00    -0.043 A 
ATOM      8  C   UNL     1       6.640  -0.576   1.018  1.00  0.00     0.008 A 
ATOM      9  C   UNL     1       6.488   0.421  -1.114  1.00  0.00     0.054 A 
ATOM     10  C   UNL     1       7.396  -1.605   0.501  1.00  0.00     0.051 A 
ATOM     11  C   UNL     1       7.244  -0.601  -1.655  1.00  0.00     0.166 A 
ATOM     12  C   UNL     1       7.701  -1.617  -0.851  1.00  0.00     0.165 A 
ATOM     13  O   UNL     1       7.678  -0.838  -2.948  1.00  0.00    -0.454 OA
ATOM     14  O   UNL     1       8.424  -2.486  -1.669  1.00  0.00    -0.454 OA
ATOM     15  C   UNL     1       8.684  -1.860  -2.905  1.00  0.00     0.468 C 
ENDBRANCH   6   7
ENDBRANCH   1   6
TORSDOF 4
ENDMDL
MODEL 2
REMARK VINA RESULT:      -7.6      2.138      2.511
REMARK SMILES O=C(O)CCc1ccc2c(c1)OCO2
REMARK SMILES IDX 4 1 2 2 1 3 3 4 5 6 6 7 7 8 11 9 8 10 10 11 9 12 12 13 14 14
REMARK SMILES IDX 13 15
REMARK H PARENT 3 5
REMARK Flexibility Score: inf
ROOT
ATOM      1  C   UNL     1       4.669   1.831   0.673  1.00  0.00     0.127 C 
ENDROOT
BRANCH   1   2
ATOM      2  C   UNL     1       4.394   1.139   1.922  1.00  0.00     0.303 C 
ATOM      3  O   UNL     1       5.140   0.326   2.472  1.00  0.00    -0.252 OA
BRANCH   2   4
ATOM      4  O   UNL     1       3.174   1.419   2.559  1.00  0.00    -0.481 OA
ATOM      5  H   UNL     1       2.381   0.871   2.263  1.00  0.00     0.296 HD
ENDBRANCH   2   4
ENDBRANCH   1   2
BRANCH   1   6
ATOM      6  C   UNL     1       6.085   2.224   0.504  1.00  0.00     0.047 C 
BRANCH   6   7
ATOM      7  C   UNL     1       6.953   1.320  -0.252  1.00  0.00    -0.043 A 
ATOM      8  C   UNL     1       8.316   1.549  -0.366  1.00  0.00     0.008 A 
ATOM      9  C   UNL     1       6.434   0.234  -0.907  1.00  0.00     0.054 A 
ATOM     10  C   UNL     1       9.128   0.720  -1.107  1.00  0.00     0.051 A 
ATOM     11  C   UNL     1       7.229  -0.612  -1.656  1.00  0.00     0.166 A 
ATOM     12  C   UNL     1       8.579  -0.373  -1.758  1.00  0.00     0.165 A 
ATOM     13  O   UNL     1       6.929  -1.747  -2.388  1.00  0.00    -0.454 OA
ATOM     14  O   UNL     1       9.106  -1.380  -2.567  1.00  0.00    -0.454 OA
ATOM     15  C   UNL     1       8.057  -2.058  -3.219  1.00  0.00     0.468 C 
ENDBRANCH   6   7
ENDBRANCH   1   6
TORSDOF 4
ENDMDL
MODEL 3
REMARK VINA RESULT:      -7.5      1.965      2.876
REMARK SMILES O=C(O)CCc1ccc2c(c1)OCO2
REMARK SMILES IDX 4 1 2 2 1 3 3 4 5 6 6 7 7 8 11 9 8 10 10 11 9 12 12 13 14 14
REMARK SMILES IDX 13 15
REMARK H PARENT 3 5
REMARK Flexibility Score: inf
ROOT
ATOM      1  C   UNL     1       6.389   1.310   0.630  1.00  0.00     0.127 C 
ENDROOT
BRANCH   1   2
ATOM      2  C   UNL     1       5.186   1.312   1.449  1.00  0.00     0.303 C 
ATOM      3  O   UNL     1       4.258   2.118   1.358  1.00  0.00    -0.252 OA
BRANCH   2   4
ATOM      4  O   UNL     1       5.071   0.313   2.428  1.00  0.00    -0.481 OA
ATOM      5  H   UNL     1       5.240   0.600   3.380  1.00  0.00     0.296 HD
ENDBRANCH   2   4
ENDBRANCH   1   2
BRANCH   1   6
ATOM      6  C   UNL     1       6.180   0.800  -0.742  1.00  0.00     0.047 C 
BRANCH   6   7
ATOM      7  C   UNL     1       6.955  -0.372  -1.154  1.00  0.00    -0.043 A 
ATOM      8  C   UNL     1       7.282  -0.593  -2.483  1.00  0.00     0.008 A 
ATOM      9  C   UNL     1       7.349  -1.309  -0.237  1.00  0.00     0.054 A 
ATOM     10  C   UNL     1       7.980  -1.713  -2.877  1.00  0.00     0.051 A 
ATOM     11  C   UNL     1       8.051  -2.440  -0.609  1.00  0.00     0.166 A 
ATOM     12  C   UNL     1       8.369  -2.646  -1.930  1.00  0.00     0.165 A 
ATOM     13  O   UNL     1       8.543  -3.501   0.131  1.00  0.00    -0.454 OA
ATOM     14  O   UNL     1       9.066  -3.854  -1.993  1.00  0.00    -0.454 OA
ATOM     15  C   UNL     1       8.912  -4.550  -0.777  1.00  0.00     0.468 C 
ENDBRANCH   6   7
ENDBRANCH   1   6
TORSDOF 4
ENDMDL
MODEL 4
REMARK VINA RESULT:      -7.5      1.789      5.294
REMARK SMILES O=C(O)CCc1ccc2c(c1)OCO2
REMARK SMILES IDX 4 1 2 2 1 3 3 4 5 6 6 7 7 8 11 9 8 10 10 11 9 12 12 13 14 14
REMARK SMILES IDX 13 15
REMARK H PARENT 3 5
REMARK Flexibility Score: inf
ROOT
ATOM      1  C   UNL     1       8.307  -0.316  -2.836  1.00  0.00     0.127 C 
ENDROOT
BRANCH   1   2
ATOM      2  C   UNL     1       8.464  -1.745  -3.061  1.00  0.00     0.303 C 
ATOM      3  O   UNL     1       9.529  -2.364  -3.021  1.00  0.00    -0.252 OA
BRANCH   2   4
ATOM      4  O   UNL     1       7.306  -2.483  -3.349  1.00  0.00    -0.481 OA
ATOM      5  H   UNL     1       7.355  -3.475  -3.172  1.00  0.00     0.296 HD
ENDBRANCH   2   4
ENDBRANCH   1   2
BRANCH   1   6
ATOM      6  C   UNL     1       8.761   0.135  -1.504  1.00  0.00     0.047 C 
BRANCH   6   7
ATOM      7  C   UNL     1       7.788   0.104  -0.410  1.00  0.00    -0.043 A 
ATOM      8  C   UNL     1       7.730  -0.959   0.479  1.00  0.00     0.008 A 
ATOM      9  C   UNL     1       6.875   1.113  -0.256  1.00  0.00     0.054 A 
ATOM     10  C   UNL     1       6.791  -1.006   1.485  1.00  0.00     0.051 A 
ATOM     11  C   UNL     1       5.925   1.087   0.747  1.00  0.00     0.166 A 
ATOM     12  C   UNL     1       5.880   0.028   1.621  1.00  0.00     0.165 A 
ATOM     13  O   UNL     1       4.922   1.979   1.087  1.00  0.00    -0.454 OA
ATOM     14  O   UNL     1       4.831   0.281   2.507  1.00  0.00    -0.454 OA
ATOM     15  C   UNL     1       4.031   1.325   2.003  1.00  0.00     0.468 C 
ENDBRANCH   6   7
ENDBRANCH   1   6
TORSDOF 4
ENDMDL
MODEL 5
REMARK VINA RESULT:      -7.4      0.994      2.119
REMARK SMILES O=C(O)CCc1ccc2c(c1)OCO2
REMARK SMILES IDX 4 1 2 2 1 3 3 4 5 6 6 7 7 8 11 9 8 10 10 11 9 12 12 13 14 14
REMARK SMILES IDX 13 15
REMARK H PARENT 3 5
REMARK Flexibility Score: inf
ROOT
ATOM      1  C   UNL     1       5.470   2.507   0.088  1.00  0.00     0.127 C 
ENDROOT
BRANCH   1   2
ATOM      2  C   UNL     1       6.117   3.572   0.838  1.00  0.00     0.303 C 
ATOM      3  O   UNL     1       6.171   3.654   2.066  1.00  0.00    -0.252 OA
BRANCH   2   4
ATOM      4  O   UNL     1       6.733   4.597   0.102  1.00  0.00    -0.481 OA
ATOM      5  H   UNL     1       6.838   5.482   0.573  1.00  0.00     0.296 HD
ENDBRANCH   2   4
ENDBRANCH   1   2
BRANCH   1   6
ATOM      6  C   UNL     1       5.555   1.181   0.735  1.00  0.00     0.047 C 
BRANCH   6   7
ATOM      7  C   UNL     1       6.364   0.155   0.073  1.00  0.00    -0.043 A 
ATOM      8  C   UNL     1       6.536   0.144  -1.303  1.00  0.00     0.008 A 
ATOM      9  C   UNL     1       6.945  -0.853   0.796  1.00  0.00     0.054 A 
ATOM     10  C   UNL     1       7.266  -0.841  -1.930  1.00  0.00     0.051 A 
ATOM     11  C   UNL     1       7.682  -1.852   0.187  1.00  0.00     0.166 A 
ATOM     12  C   UNL     1       7.845  -1.849  -1.177  1.00  0.00     0.165 A 
ATOM     13  O   UNL     1       8.347  -2.948   0.706  1.00  0.00    -0.454 OA
ATOM     14  O   UNL     1       8.624  -2.964  -1.492  1.00  0.00    -0.454 OA
ATOM     15  C   UNL     1       8.682  -3.826  -0.379  1.00  0.00     0.468 C 
ENDBRANCH   6   7
ENDBRANCH   1   6
TORSDOF 4
ENDMDL
