@<TRIPOS>MOLECULE
/home/cewinharhar/GITHUB/reincatalyze/data/processed/docking_pred/2023-May-17-1006_maxeplen10_maxtrainstep1000_seadep16_gamma099_lrac9e-4_lrcr1e-3_sub6/2037f81c995398ea407fbfc0a5ecaefc5001139a_ligand_6.pdbqt
 15 16 0 0 0
SMALL
GASTEIGER

@<TRIPOS>ATOM
      1  C          5.4700    2.5070    0.0880 C.3     1  UNL1        0.1270
      2  C          6.1170    3.5720    0.8380 C.2     1  UNL1        0.3030
      3  O          6.1710    3.6540    2.0660 O.2     1  UNL1       -0.2520
      4  O          6.7330    4.5970    0.1020 O.3     1  UNL1       -0.4810
      5  H          6.8380    5.4820    0.5730 H       1  UNL1        0.2960
      6  C          5.5550    1.1810    0.7350 C.3     1  UNL1        0.0470
      7  C          6.3640    0.1550    0.0730 C.2     1  UNL1       -0.0430
      8  C          6.5360    0.1440   -1.3030 C.2     1  UNL1        0.0080
      9  C          6.9450   -0.8530    0.7960 C.2     1  UNL1        0.0540
     10  C          7.2660   -0.8410   -1.9300 C.2     1  UNL1        0.0510
     11  C          7.6820   -1.8520    0.1870 C.2     1  UNL1        0.1660
     12  C          7.8450   -1.8490   -1.1770 C.2     1  UNL1        0.1650
     13  O          8.3470   -2.9480    0.7060 O.2     1  UNL1       -0.4540
     14  O          8.6240   -2.9640   -1.4920 O.2     1  UNL1       -0.4540
     15  C          8.6820   -3.8260   -0.3790 C.3     1  UNL1        0.4680
@<TRIPOS>BOND
     1    10     8    1
     2    10    12    2
     3    14    12    1
     4    14    15    1
     5     8     7    2
     6    12    11    1
     7    15    13    1
     8     7     6    1
     9     7     9    1
    10     1     6    1
    11     1     2    1
    12     4     5    1
    13     4     2    1
    14    11    13    1
    15    11     9    2
    16     2     3    2
