MODEL 1
REMARK VINA RESULT:      -8.0      0.000      0.000
REMARK SMILES O=C(O)CCc1ccc2c(c1)OCO2
REMARK SMILES IDX 4 1 2 2 1 3 3 4 5 6 6 7 7 8 11 9 8 10 10 11 9 12 12 13 14 14
REMARK SMILES IDX 13 15
REMARK H PARENT 3 5
REMARK Flexibility Score: inf
ROOT
ATOM      1  C   UNL     1       5.296   2.158   1.364  1.00  0.00     0.127 C 
ENDROOT
BRANCH   1   2
ATOM      2  C   UNL     1       4.568   1.143   2.108  1.00  0.00     0.303 C 
ATOM      3  O   UNL     1       4.957  -0.007   2.323  1.00  0.00    -0.252 OA
BRANCH   2   4
ATOM      4  O   UNL     1       3.313   1.500   2.627  1.00  0.00    -0.481 OA
ATOM      5  H   UNL     1       2.514   1.042   2.216  1.00  0.00     0.296 HD
ENDBRANCH   2   4
ENDBRANCH   1   2
BRANCH   1   6
ATOM      6  C   UNL     1       5.330   1.924  -0.095  1.00  0.00     0.047 C 
BRANCH   6   7
ATOM      7  C   UNL     1       6.462   1.168  -0.634  1.00  0.00    -0.043 A 
ATOM      8  C   UNL     1       7.771   1.580  -0.432  1.00  0.00     0.008 A 
ATOM      9  C   UNL     1       6.258   0.045  -1.392  1.00  0.00     0.054 A 
ATOM     10  C   UNL     1       8.835   0.890  -0.969  1.00  0.00     0.051 A 
ATOM     11  C   UNL     1       7.310  -0.663  -1.940  1.00  0.00     0.166 A 
ATOM     12  C   UNL     1       8.602  -0.244  -1.730  1.00  0.00     0.165 A 
ATOM     13  O   UNL     1       7.341  -1.804  -2.722  1.00  0.00    -0.454 OA
ATOM     14  O   UNL     1       9.431  -1.146  -2.398  1.00  0.00    -0.454 OA
ATOM     15  C   UNL     1       8.660  -1.935  -3.274  1.00  0.00     0.468 C 
ENDBRANCH   6   7
ENDBRANCH   1   6
TORSDOF 4
ENDMDL
MODEL 2
REMARK VINA RESULT:      -7.8      1.340      5.635
REMARK SMILES O=C(O)CCc1ccc2c(c1)OCO2
REMARK SMILES IDX 4 1 2 2 1 3 3 4 5 6 6 7 7 8 11 9 8 10 10 11 9 12 12 13 14 14
REMARK SMILES IDX 13 15
REMARK H PARENT 3 5
REMARK Flexibility Score: inf
ROOT
ATOM      1  C   UNL     1       8.814  -0.663  -2.379  1.00  0.00     0.127 C 
ENDROOT
BRANCH   1   2
ATOM      2  C   UNL     1       8.812  -1.970  -3.015  1.00  0.00     0.303 C 
ATOM      3  O   UNL     1       9.811  -2.642  -3.278  1.00  0.00    -0.252 OA
BRANCH   2   4
ATOM      4  O   UNL     1       7.566  -2.516  -3.360  1.00  0.00    -0.481 OA
ATOM      5  H   UNL     1       7.463  -3.511  -3.227  1.00  0.00     0.296 HD
ENDBRANCH   2   4
ENDBRANCH   1   2
BRANCH   1   6
ATOM      6  C   UNL     1       7.482  -0.024  -2.313  1.00  0.00     0.047 C 
BRANCH   6   7
ATOM      7  C   UNL     1       6.815   0.018  -1.010  1.00  0.00    -0.043 A 
ATOM      8  C   UNL     1       6.898  -1.040  -0.119  1.00  0.00     0.008 A 
ATOM      9  C   UNL     1       6.053   1.097  -0.649  1.00  0.00     0.054 A 
ATOM     10  C   UNL     1       6.241  -1.017   1.092  1.00  0.00     0.051 A 
ATOM     11  C   UNL     1       5.386   1.143   0.561  1.00  0.00     0.166 A 
ATOM     12  C   UNL     1       5.478   0.087   1.435  1.00  0.00     0.165 A 
ATOM     13  O   UNL     1       4.574   2.111   1.127  1.00  0.00    -0.454 OA
ATOM     14  O   UNL     1       4.708   0.419   2.551  1.00  0.00    -0.454 OA
ATOM     15  C   UNL     1       3.892   1.527   2.247  1.00  0.00     0.468 C 
ENDBRANCH   6   7
ENDBRANCH   1   6
TORSDOF 4
ENDMDL
MODEL 3
REMARK VINA RESULT:      -7.6      1.793      2.112
REMARK SMILES O=C(O)CCc1ccc2c(c1)OCO2
REMARK SMILES IDX 4 1 2 2 1 3 3 4 5 6 6 7 7 8 11 9 8 10 10 11 9 12 12 13 14 14
REMARK SMILES IDX 13 15
REMARK H PARENT 3 5
REMARK Flexibility Score: inf
ROOT
ATOM      1  C   UNL     1       5.004   1.742   0.748  1.00  0.00     0.127 C 
ENDROOT
BRANCH   1   2
ATOM      2  C   UNL     1       4.588   1.173   2.020  1.00  0.00     0.303 C 
ATOM      3  O   UNL     1       5.211   0.327   2.665  1.00  0.00    -0.252 OA
BRANCH   2   4
ATOM      4  O   UNL     1       3.373   1.622   2.562  1.00  0.00    -0.481 OA
ATOM      5  H   UNL     1       3.203   2.615   2.510  1.00  0.00     0.296 HD
ENDBRANCH   2   4
ENDBRANCH   1   2
BRANCH   1   6
ATOM      6  C   UNL     1       6.456   1.641   0.491  1.00  0.00     0.047 C 
BRANCH   6   7
ATOM      7  C   UNL     1       6.947   0.417  -0.146  1.00  0.00    -0.043 A 
ATOM      8  C   UNL     1       6.707   0.150  -1.485  1.00  0.00     0.008 A 
ATOM      9  C   UNL     1       7.630  -0.524   0.579  1.00  0.00     0.054 A 
ATOM     10  C   UNL     1       7.137  -1.017  -2.076  1.00  0.00     0.051 A 
ATOM     11  C   UNL     1       8.071  -1.702   0.006  1.00  0.00     0.166 A 
ATOM     12  C   UNL     1       7.827  -1.952  -1.322  1.00  0.00     0.165 A 
ATOM     13  O   UNL     1       8.768  -2.775   0.534  1.00  0.00    -0.454 OA
ATOM     14  O   UNL     1       8.384  -3.200  -1.606  1.00  0.00    -0.454 OA
ATOM     15  C   UNL     1       8.695  -3.862  -0.402  1.00  0.00     0.468 C 
ENDBRANCH   6   7
ENDBRANCH   1   6
TORSDOF 4
ENDMDL
MODEL 4
REMARK VINA RESULT:      -7.4      2.007      5.644
REMARK SMILES O=C(O)CCc1ccc2c(c1)OCO2
REMARK SMILES IDX 4 1 2 2 1 3 3 4 5 6 6 7 7 8 11 9 8 10 10 11 9 12 12 13 14 14
REMARK SMILES IDX 13 15
REMARK H PARENT 3 5
REMARK Flexibility Score: inf
ROOT
ATOM      1  C   UNL     1       8.151  -0.928  -1.931  1.00  0.00     0.127 C 
ENDROOT
BRANCH   1   2
ATOM      2  C   UNL     1       8.359  -2.060  -2.820  1.00  0.00     0.303 C 
ATOM      3  O   UNL     1       9.429  -2.644  -2.999  1.00  0.00    -0.252 OA
BRANCH   2   4
ATOM      4  O   UNL     1       7.247  -2.529  -3.537  1.00  0.00    -0.481 OA
ATOM      5  H   UNL     1       6.409  -1.971  -3.475  1.00  0.00     0.296 HD
ENDBRANCH   2   4
ENDBRANCH   1   2
BRANCH   1   6
ATOM      6  C   UNL     1       6.974  -1.068  -1.046  1.00  0.00     0.047 C 
BRANCH   6   7
ATOM      7  C   UNL     1       6.701   0.022  -0.106  1.00  0.00    -0.043 A 
ATOM      8  C   UNL     1       5.993  -0.194   1.066  1.00  0.00     0.008 A 
ATOM      9  C   UNL     1       7.106   1.301  -0.380  1.00  0.00     0.054 A 
ATOM     10  C   UNL     1       5.703   0.836   1.933  1.00  0.00     0.051 A 
ATOM     11  C   UNL     1       6.827   2.350   0.476  1.00  0.00     0.166 A 
ATOM     12  C   UNL     1       6.126   2.122   1.635  1.00  0.00     0.165 A 
ATOM     13  O   UNL     1       7.131   3.698   0.406  1.00  0.00    -0.454 OA
ATOM     14  O   UNL     1       6.001   3.353   2.280  1.00  0.00    -0.454 OA
ATOM     15  C   UNL     1       6.343   4.388   1.388  1.00  0.00     0.468 C 
ENDBRANCH   6   7
ENDBRANCH   1   6
TORSDOF 4
ENDMDL
MODEL 5
REMARK VINA RESULT:      -7.4      2.196      2.493
REMARK SMILES O=C(O)CCc1ccc2c(c1)OCO2
REMARK SMILES IDX 4 1 2 2 1 3 3 4 5 6 6 7 7 8 11 9 8 10 10 11 9 12 12 13 14 14
REMARK SMILES IDX 13 15
REMARK H PARENT 3 5
REMARK Flexibility Score: inf
ROOT
ATOM      1  C   UNL     1       5.406   2.860   0.014  1.00  0.00     0.127 C 
ENDROOT
BRANCH   1   2
ATOM      2  C   UNL     1       6.195   3.829   0.758  1.00  0.00     0.303 C 
ATOM      3  O   UNL     1       6.857   4.744   0.265  1.00  0.00    -0.252 OA
BRANCH   2   4
ATOM      4  O   UNL     1       6.205   3.714   2.157  1.00  0.00    -0.481 OA
ATOM      5  H   UNL     1       5.313   3.552   2.597  1.00  0.00     0.296 HD
ENDBRANCH   2   4
ENDBRANCH   1   2
BRANCH   1   6
ATOM      6  C   UNL     1       5.295   1.542   0.675  1.00  0.00     0.047 C 
BRANCH   6   7
ATOM      7  C   UNL     1       6.092   0.442   0.128  1.00  0.00    -0.043 A 
ATOM      8  C   UNL     1       6.521  -0.608   0.926  1.00  0.00     0.008 A 
ATOM      9  C   UNL     1       6.471   0.438  -1.188  1.00  0.00     0.054 A 
ATOM     10  C   UNL     1       7.301  -1.625   0.421  1.00  0.00     0.051 A 
ATOM     11  C   UNL     1       7.253  -0.572  -1.716  1.00  0.00     0.166 A 
ATOM     12  C   UNL     1       7.670  -1.607  -0.914  1.00  0.00     0.165 A 
ATOM     13  O   UNL     1       7.747  -0.780  -2.992  1.00  0.00    -0.454 OA
ATOM     14  O   UNL     1       8.432  -2.457  -1.717  1.00  0.00    -0.454 OA
ATOM     15  C   UNL     1       8.751  -1.804  -2.924  1.00  0.00     0.468 C 
ENDBRANCH   6   7
ENDBRANCH   1   6
TORSDOF 4
ENDMDL
