@<TRIPOS>MOLECULE
/home/cewinharhar/GITHUB/reincatalyze/data/processed/docking_pred/2023-May-17-1006_maxeplen10_maxtrainstep1000_seadep16_gamma099_lrac9e-4_lrcr1e-3_sub6/21195065f8807259401ec3420f3b6dd683f2acc0_ligand_6.pdbqt
 15 16 0 0 0
SMALL
GASTEIGER

@<TRIPOS>ATOM
      1  C          8.8140   -0.6630   -2.3790 C.3     1  UNL1        0.1270
      2  C          8.8120   -1.9700   -3.0150 C.2     1  UNL1        0.3030
      3  O          9.8110   -2.6420   -3.2780 O.2     1  UNL1       -0.2520
      4  O          7.5660   -2.5160   -3.3600 O.3     1  UNL1       -0.4810
      5  H          7.4630   -3.5110   -3.2270 H       1  UNL1        0.2960
      6  C          7.4820   -0.0240   -2.3130 C.3     1  UNL1        0.0470
      7  C          6.8150    0.0180   -1.0100 C.2     1  UNL1       -0.0430
      8  C          6.8980   -1.0400   -0.1190 C.2     1  UNL1        0.0080
      9  C          6.0530    1.0970   -0.6490 C.2     1  UNL1        0.0540
     10  C          6.2410   -1.0170    1.0920 C.2     1  UNL1        0.0510
     11  C          5.3860    1.1430    0.5610 C.2     1  UNL1        0.1660
     12  C          5.4780    0.0870    1.4350 C.2     1  UNL1        0.1650
     13  O          4.5740    2.1110    1.1270 O.2     1  UNL1       -0.4540
     14  O          4.7080    0.4190    2.5510 O.2     1  UNL1       -0.4540
     15  C          3.8920    1.5270    2.2470 C.3     1  UNL1        0.4680
@<TRIPOS>BOND
     1     4     5    1
     2     4     2    1
     3     3     2    2
     4     2     1    1
     5     1     6    1
     6     6     7    1
     7     7     9    2
     8     7     8    1
     9     9    11    1
    10     8    10    2
    11    11    13    1
    12    11    12    2
    13    10    12    1
    14    13    15    1
    15    12    14    1
    16    15    14    1
