@<TRIPOS>MOLECULE
/home/cewinharhar/GITHUB/reincatalyze/data/processed/docking_pred/2023-May-17-1006_maxeplen10_maxtrainstep1000_seadep16_gamma099_lrac9e-4_lrcr1e-3_sub6/21195065f8807259401ec3420f3b6dd683f2acc0_ligand_6.pdbqt
 15 16 0 0 0
SMALL
GASTEIGER

@<TRIPOS>ATOM
      1  C          5.0040    1.7420    0.7480 C.3     1  UNL1        0.1270
      2  C          4.5880    1.1730    2.0200 C.2     1  UNL1        0.3030
      3  O          5.2110    0.3270    2.6650 O.2     1  UNL1       -0.2520
      4  O          3.3730    1.6220    2.5620 O.3     1  UNL1       -0.4810
      5  H          3.2030    2.6150    2.5100 H       1  UNL1        0.2960
      6  C          6.4560    1.6410    0.4910 C.3     1  UNL1        0.0470
      7  C          6.9470    0.4170   -0.1460 C.2     1  UNL1       -0.0430
      8  C          6.7070    0.1500   -1.4850 C.2     1  UNL1        0.0080
      9  C          7.6300   -0.5240    0.5790 C.2     1  UNL1        0.0540
     10  C          7.1370   -1.0170   -2.0760 C.2     1  UNL1        0.0510
     11  C          8.0710   -1.7020    0.0060 C.2     1  UNL1        0.1660
     12  C          7.8270   -1.9520   -1.3220 C.2     1  UNL1        0.1650
     13  O          8.7680   -2.7750    0.5340 O.2     1  UNL1       -0.4540
     14  O          8.3840   -3.2000   -1.6060 O.2     1  UNL1       -0.4540
     15  C          8.6950   -3.8620   -0.4020 C.3     1  UNL1        0.4680
@<TRIPOS>BOND
     1    10     8    1
     2    10    12    2
     3    14    12    1
     4    14    15    1
     5     8     7    2
     6    12    11    1
     7    15    13    1
     8     7     6    1
     9     7     9    1
    10    11    13    1
    11    11     9    2
    12     6     1    1
    13     1     2    1
    14     2     4    1
    15     2     3    2
    16     5     4    1
