@<TRIPOS>MOLECULE
/home/cewinharhar/GITHUB/reincatalyze/data/processed/docking_pred/2023-May-17-1006_maxeplen10_maxtrainstep1000_seadep16_gamma099_lrac9e-4_lrcr1e-3_sub6/21195065f8807259401ec3420f3b6dd683f2acc0_ligand_6.pdbqt
 15 16 0 0 0
SMALL
GASTEIGER

@<TRIPOS>ATOM
      1  C          5.2960    2.1580    1.3640 C.3     1  UNL1        0.1270
      2  C          4.5680    1.1430    2.1080 C.2     1  UNL1        0.3030
      3  O          4.9570   -0.0070    2.3230 O.2     1  UNL1       -0.2520
      4  O          3.3130    1.5000    2.6270 O.3     1  UNL1       -0.4810
      5  H          2.5140    1.0420    2.2160 H       1  UNL1        0.2960
      6  C          5.3300    1.9240   -0.0950 C.3     1  UNL1        0.0470
      7  C          6.4620    1.1680   -0.6340 C.2     1  UNL1       -0.0430
      8  C          7.7710    1.5800   -0.4320 C.2     1  UNL1        0.0080
      9  C          6.2580    0.0450   -1.3920 C.2     1  UNL1        0.0540
     10  C          8.8350    0.8900   -0.9690 C.2     1  UNL1        0.0510
     11  C          7.3100   -0.6630   -1.9400 C.2     1  UNL1        0.1660
     12  C          8.6020   -0.2440   -1.7300 C.2     1  UNL1        0.1650
     13  O          7.3410   -1.8040   -2.7220 O.2     1  UNL1       -0.4540
     14  O          9.4310   -1.1460   -2.3980 O.2     1  UNL1       -0.4540
     15  C          8.6600   -1.9350   -3.2740 C.3     1  UNL1        0.4680
@<TRIPOS>BOND
     1    15    13    1
     2    15    14    1
     3    13    11    1
     4    14    12    1
     5    11    12    2
     6    11     9    1
     7    12    10    1
     8     9     7    2
     9    10     8    2
    10     7     8    1
    11     7     6    1
    12     6     1    1
    13     1     2    1
    14     2     3    2
    15     2     4    1
    16     5     4    1
