@<TRIPOS>MOLECULE
/home/cewinharhar/GITHUB/reincatalyze/data/processed/docking_pred/2023-May-17-1006_maxeplen10_maxtrainstep1000_seadep16_gamma099_lrac9e-4_lrcr1e-3_sub6/21195065f8807259401ec3420f3b6dd683f2acc0_ligand_6.pdbqt
 15 16 0 0 0
SMALL
GASTEIGER

@<TRIPOS>ATOM
      1  C          8.1510   -0.9280   -1.9310 C.3     1  UNL1        0.1270
      2  C          8.3590   -2.0600   -2.8200 C.2     1  UNL1        0.3030
      3  O          9.4290   -2.6440   -2.9990 O.2     1  UNL1       -0.2520
      4  O          7.2470   -2.5290   -3.5370 O.3     1  UNL1       -0.4810
      5  H          6.4090   -1.9710   -3.4750 H       1  UNL1        0.2960
      6  C          6.9740   -1.0680   -1.0460 C.3     1  UNL1        0.0470
      7  C          6.7010    0.0220   -0.1060 C.2     1  UNL1       -0.0430
      8  C          5.9930   -0.1940    1.0660 C.2     1  UNL1        0.0080
      9  C          7.1060    1.3010   -0.3800 C.2     1  UNL1        0.0540
     10  C          5.7030    0.8360    1.9330 C.2     1  UNL1        0.0510
     11  C          6.8270    2.3500    0.4760 C.2     1  UNL1        0.1660
     12  C          6.1260    2.1220    1.6350 C.2     1  UNL1        0.1650
     13  O          7.1310    3.6980    0.4060 O.2     1  UNL1       -0.4540
     14  O          6.0010    3.3530    2.2800 O.2     1  UNL1       -0.4540
     15  C          6.3430    4.3880    1.3880 C.3     1  UNL1        0.4680
@<TRIPOS>BOND
     1     4     5    1
     2     4     2    1
     3     3     2    2
     4     2     1    1
     5     1     6    1
     6     6     7    1
     7     9     7    2
     8     9    11    1
     9     7     8    1
    10    13    11    1
    11    13    15    1
    12    11    12    2
    13     8    10    2
    14    15    14    1
    15    12    10    1
    16    12    14    1
