@<TRIPOS>MOLECULE
/home/cewinharhar/GITHUB/reincatalyze/data/processed/docking_pred/2023-May-17-1006_maxeplen10_maxtrainstep1000_seadep16_gamma099_lrac9e-4_lrcr1e-3_sub6/21195065f8807259401ec3420f3b6dd683f2acc0_ligand_6.pdbqt
 15 16 0 0 0
SMALL
GASTEIGER

@<TRIPOS>ATOM
      1  C          5.4060    2.8600    0.0140 C.3     1  UNL1        0.1270
      2  C          6.1950    3.8290    0.7580 C.2     1  UNL1        0.3030
      3  O          6.8570    4.7440    0.2650 O.2     1  UNL1       -0.2520
      4  O          6.2050    3.7140    2.1570 O.3     1  UNL1       -0.4810
      5  H          5.3130    3.5520    2.5970 H       1  UNL1        0.2960
      6  C          5.2950    1.5420    0.6750 C.3     1  UNL1        0.0470
      7  C          6.0920    0.4420    0.1280 C.2     1  UNL1       -0.0430
      8  C          6.5210   -0.6080    0.9260 C.2     1  UNL1        0.0080
      9  C          6.4710    0.4380   -1.1880 C.2     1  UNL1        0.0540
     10  C          7.3010   -1.6250    0.4210 C.2     1  UNL1        0.0510
     11  C          7.2530   -0.5720   -1.7160 C.2     1  UNL1        0.1660
     12  C          7.6700   -1.6070   -0.9140 C.2     1  UNL1        0.1650
     13  O          7.7470   -0.7800   -2.9920 O.2     1  UNL1       -0.4540
     14  O          8.4320   -2.4570   -1.7170 O.2     1  UNL1       -0.4540
     15  C          8.7510   -1.8040   -2.9240 C.3     1  UNL1        0.4680
@<TRIPOS>BOND
     1    13    15    1
     2    13    11    1
     3    15    14    1
     4    14    12    1
     5    11     9    1
     6    11    12    2
     7     9     7    2
     8    12    10    1
     9     1     6    1
    10     1     2    1
    11     7     6    1
    12     7     8    1
    13     3     2    2
    14    10     8    2
    15     2     4    1
    16     4     5    1
