@<TRIPOS>MOLECULE
/home/cewinharhar/GITHUB/reincatalyze/data/processed/docking_pred/2023-May-17-1006_maxeplen10_maxtrainstep1000_seadep16_gamma099_lrac9e-4_lrcr1e-3_sub6/22478e644e92021fed45641255b53d2cc77f0790_ligand_6.pdbqt
 15 16 0 0 0
SMALL
GASTEIGER

@<TRIPOS>ATOM
      1  C          8.3040   -0.3150   -2.8750 C.3     1  UNL1        0.1270
      2  C          8.4710   -1.7460   -3.0800 C.2     1  UNL1        0.3030
      3  O          9.5400   -2.3570   -3.0330 O.2     1  UNL1       -0.2520
      4  O          7.3170   -2.4960   -3.3530 O.3     1  UNL1       -0.4810
      5  H          7.4650   -3.4190   -3.7330 H       1  UNL1        0.2960
      6  C          8.7550    0.1580   -1.5490 C.3     1  UNL1        0.0470
      7  C          7.7890    0.1110   -0.4490 C.2     1  UNL1       -0.0430
      8  C          7.7400   -0.9640    0.4260 C.2     1  UNL1        0.0080
      9  C          6.8750    1.1160   -0.2750 C.2     1  UNL1        0.0540
     10  C          6.8090   -1.0260    1.4390 C.2     1  UNL1        0.0510
     11  C          5.9330    1.0750    0.7340 C.2     1  UNL1        0.1660
     12  C          5.8960    0.0040    1.5950 C.2     1  UNL1        0.1650
     13  O          4.9310    1.9600    1.0930 O.2     1  UNL1       -0.4540
     14  O          4.8530    0.2430    2.4910 O.2     1  UNL1       -0.4540
     15  C          4.0470    1.2920    2.0070 C.3     1  UNL1        0.4680
@<TRIPOS>BOND
     1     5     4    1
     2     4     2    1
     3     2     3    2
     4     2     1    1
     5     1     6    1
     6     6     7    1
     7     7     9    2
     8     7     8    1
     9     9    11    1
    10     8    10    2
    11    11    13    1
    12    11    12    2
    13    13    15    1
    14    10    12    1
    15    12    14    1
    16    15    14    1
