@<TRIPOS>MOLECULE
/home/cewinharhar/GITHUB/reincatalyze/data/processed/docking_pred/2023-May-17-1006_maxeplen10_maxtrainstep1000_seadep16_gamma099_lrac9e-4_lrcr1e-3_sub6/22478e644e92021fed45641255b53d2cc77f0790_ligand_6.pdbqt
 15 16 0 0 0
SMALL
GASTEIGER

@<TRIPOS>ATOM
      1  C          5.3520    2.8530    0.2220 C.3     1  UNL1        0.1270
      2  C          6.1160    3.8680    0.9310 C.2     1  UNL1        0.3030
      3  O          6.1550    4.0110    2.1540 O.2     1  UNL1       -0.2520
      4  O          6.8740    4.7610    0.1580 O.3     1  UNL1       -0.4810
      5  H          6.5670    4.8980   -0.7930 H       1  UNL1        0.2960
      6  C          5.3760    1.5240    0.8680 C.3     1  UNL1        0.0470
      7  C          6.2060    0.4860    0.2510 C.2     1  UNL1       -0.0430
      8  C          6.4740    0.4860   -1.1090 C.2     1  UNL1        0.0080
      9  C          6.7120   -0.5430    1.0000 C.2     1  UNL1        0.0540
     10  C          7.2240   -0.5080   -1.6960 C.2     1  UNL1        0.0510
     11  C          7.4680   -1.5510    0.4330 C.2     1  UNL1        0.1660
     12  C          7.7260   -1.5370   -0.9170 C.2     1  UNL1        0.1650
     13  O          8.0710   -2.6680    0.9830 O.2     1  UNL1       -0.4540
     14  O          8.5000   -2.6670   -1.1900 O.2     1  UNL1       -0.4540
     15  C          8.4610   -3.5420   -0.0870 C.3     1  UNL1        0.4680
@<TRIPOS>BOND
     1    10     8    1
     2    10    12    2
     3    14    12    1
     4    14    15    1
     5     8     7    2
     6    12    11    1
     7     5     4    1
     8    15    13    1
     9     4     2    1
    10     1     6    1
    11     1     2    1
    12     7     6    1
    13     7     9    1
    14    11    13    1
    15    11     9    2
    16     2     3    2
