@<TRIPOS>MOLECULE
/home/cewinharhar/GITHUB/reincatalyze/data/processed/docking_pred/2023-May-17-1006_maxeplen10_maxtrainstep1000_seadep16_gamma099_lrac9e-4_lrcr1e-3_sub6/22478e644e92021fed45641255b53d2cc77f0790_ligand_6.pdbqt
 15 16 0 0 0
SMALL
GASTEIGER

@<TRIPOS>ATOM
      1  C          5.4280    2.8680    0.1170 C.3     1  UNL1        0.1270
      2  C          6.2620    3.8550    0.7860 C.2     1  UNL1        0.3030
      3  O          6.9160    4.7380    0.2270 O.2     1  UNL1       -0.2520
      4  O          6.3280    3.8000    2.1870 O.3     1  UNL1       -0.4810
      5  H          5.8720    4.5490    2.6840 H       1  UNL1        0.2960
      6  C          5.3580    1.5680    0.8180 C.3     1  UNL1        0.0470
      7  C          6.1270    0.4550    0.2570 C.2     1  UNL1       -0.0430
      8  C          6.5640   -0.5960    1.0500 C.2     1  UNL1        0.0080
      9  C          6.4710    0.4390   -1.0680 C.2     1  UNL1        0.0540
     10  C          7.3170   -1.6250    0.5320 C.2     1  UNL1        0.0510
     11  C          7.2260   -0.5840   -1.6100 C.2     1  UNL1        0.1660
     12  C          7.6510   -1.6190   -0.8130 C.2     1  UNL1        0.1650
     13  O          7.6830   -0.8060   -2.8970 O.2     1  UNL1       -0.4540
     14  O          8.3800   -2.4840   -1.6310 O.2     1  UNL1       -0.4540
     15  C          8.6750   -1.8420   -2.8500 C.3     1  UNL1        0.4680
@<TRIPOS>BOND
     1    13    15    1
     2    13    11    1
     3    15    14    1
     4    14    12    1
     5    11     9    1
     6    11    12    2
     7     9     7    2
     8    12    10    1
     9     1     2    1
    10     1     6    1
    11     3     2    2
    12     7     6    1
    13     7     8    1
    14    10     8    2
    15     2     4    1
    16     4     5    1
