@<TRIPOS>MOLECULE
/home/cewinharhar/GITHUB/reincatalyze/data/processed/docking_pred/2023-May-17-1006_maxeplen10_maxtrainstep1000_seadep16_gamma099_lrac9e-4_lrcr1e-3_sub6/22478e644e92021fed45641255b53d2cc77f0790_ligand_6.pdbqt
 15 16 0 0 0
SMALL
GASTEIGER

@<TRIPOS>ATOM
      1  C          4.6710    1.8560    0.6650 C.3     1  UNL1        0.1270
      2  C          4.4040    1.1530    1.9100 C.2     1  UNL1        0.3030
      3  O          5.1580    0.3440    2.4540 O.2     1  UNL1       -0.2520
      4  O          3.1820    1.4160    2.5500 O.3     1  UNL1       -0.4810
      5  H          3.1930    1.3910    3.5580 H       1  UNL1        0.2960
      6  C          6.0850    2.2470    0.4890 C.3     1  UNL1        0.0470
      7  C          6.9530    1.3340   -0.2580 C.2     1  UNL1       -0.0430
      8  C          8.3190    1.5470   -0.3540 C.2     1  UNL1        0.0080
      9  C          6.4280    0.2560   -0.9210 C.2     1  UNL1        0.0540
     10  C          9.1300    0.7090   -1.0860 C.2     1  UNL1        0.0510
     11  C          7.2230   -0.5990   -1.6610 C.2     1  UNL1        0.1660
     12  C          8.5760   -0.3750   -1.7460 C.2     1  UNL1        0.1650
     13  O          6.9190   -1.7290   -2.3990 O.2     1  UNL1       -0.4540
     14  O          9.1020   -1.3880   -2.5500 O.2     1  UNL1       -0.4540
     15  C          8.0540   -2.0520   -3.2170 C.3     1  UNL1        0.4680
@<TRIPOS>BOND
     1    15    14    1
     2    15    13    1
     3    14    12    1
     4    13    11    1
     5    12    11    2
     6    12    10    1
     7    11     9    1
     8    10     8    2
     9     9     7    2
    10     8     7    1
    11     7     6    1
    12     6     1    1
    13     1     2    1
    14     2     3    2
    15     2     4    1
    16     4     5    1
