MODEL 1
REMARK VINA RESULT:      -7.6      0.000      0.000
REMARK SMILES O=C(O)CCc1ccc2c(c1)OCO2
REMARK SMILES IDX 4 1 2 2 1 3 3 4 5 6 6 7 7 8 11 9 8 10 10 11 9 12 12 13 14 14
REMARK SMILES IDX 13 15
REMARK H PARENT 3 5
REMARK Flexibility Score: inf
ROOT
ATOM      1  C   UNL     1       5.428   2.868   0.117  1.00  0.00     0.127 C 
ENDROOT
BRANCH   1   2
ATOM      2  C   UNL     1       6.262   3.855   0.786  1.00  0.00     0.303 C 
ATOM      3  O   UNL     1       6.916   4.738   0.227  1.00  0.00    -0.252 OA
BRANCH   2   4
ATOM      4  O   UNL     1       6.328   3.800   2.187  1.00  0.00    -0.481 OA
ATOM      5  H   UNL     1       5.872   4.549   2.684  1.00  0.00     0.296 HD
ENDBRANCH   2   4
ENDBRANCH   1   2
BRANCH   1   6
ATOM      6  C   UNL     1       5.358   1.568   0.818  1.00  0.00     0.047 C 
BRANCH   6   7
ATOM      7  C   UNL     1       6.127   0.455   0.257  1.00  0.00    -0.043 A 
ATOM      8  C   UNL     1       6.564  -0.596   1.050  1.00  0.00     0.008 A 
ATOM      9  C   UNL     1       6.471   0.439  -1.068  1.00  0.00     0.054 A 
ATOM     10  C   UNL     1       7.317  -1.625   0.532  1.00  0.00     0.051 A 
ATOM     11  C   UNL     1       7.226  -0.584  -1.610  1.00  0.00     0.166 A 
ATOM     12  C   UNL     1       7.651  -1.619  -0.813  1.00  0.00     0.165 A 
ATOM     13  O   UNL     1       7.683  -0.806  -2.897  1.00  0.00    -0.454 OA
ATOM     14  O   UNL     1       8.380  -2.484  -1.631  1.00  0.00    -0.454 OA
ATOM     15  C   UNL     1       8.675  -1.842  -2.850  1.00  0.00     0.468 C 
ENDBRANCH   6   7
ENDBRANCH   1   6
TORSDOF 4
ENDMDL
MODEL 2
REMARK VINA RESULT:      -7.6      2.135      2.521
REMARK SMILES O=C(O)CCc1ccc2c(c1)OCO2
REMARK SMILES IDX 4 1 2 2 1 3 3 4 5 6 6 7 7 8 11 9 8 10 10 11 9 12 12 13 14 14
REMARK SMILES IDX 13 15
REMARK H PARENT 3 5
REMARK Flexibility Score: inf
ROOT
ATOM      1  C   UNL     1       4.671   1.856   0.665  1.00  0.00     0.127 C 
ENDROOT
BRANCH   1   2
ATOM      2  C   UNL     1       4.404   1.153   1.910  1.00  0.00     0.303 C 
ATOM      3  O   UNL     1       5.158   0.344   2.454  1.00  0.00    -0.252 OA
BRANCH   2   4
ATOM      4  O   UNL     1       3.182   1.416   2.550  1.00  0.00    -0.481 OA
ATOM      5  H   UNL     1       3.193   1.391   3.558  1.00  0.00     0.296 HD
ENDBRANCH   2   4
ENDBRANCH   1   2
BRANCH   1   6
ATOM      6  C   UNL     1       6.085   2.247   0.489  1.00  0.00     0.047 C 
BRANCH   6   7
ATOM      7  C   UNL     1       6.953   1.334  -0.258  1.00  0.00    -0.043 A 
ATOM      8  C   UNL     1       8.319   1.547  -0.354  1.00  0.00     0.008 A 
ATOM      9  C   UNL     1       6.428   0.256  -0.921  1.00  0.00     0.054 A 
ATOM     10  C   UNL     1       9.130   0.709  -1.086  1.00  0.00     0.051 A 
ATOM     11  C   UNL     1       7.223  -0.599  -1.661  1.00  0.00     0.166 A 
ATOM     12  C   UNL     1       8.576  -0.375  -1.746  1.00  0.00     0.165 A 
ATOM     13  O   UNL     1       6.919  -1.729  -2.399  1.00  0.00    -0.454 OA
ATOM     14  O   UNL     1       9.102  -1.388  -2.550  1.00  0.00    -0.454 OA
ATOM     15  C   UNL     1       8.054  -2.052  -3.217  1.00  0.00     0.468 C 
ENDBRANCH   6   7
ENDBRANCH   1   6
TORSDOF 4
ENDMDL
MODEL 3
REMARK VINA RESULT:      -7.5      1.959      2.865
REMARK SMILES O=C(O)CCc1ccc2c(c1)OCO2
REMARK SMILES IDX 4 1 2 2 1 3 3 4 5 6 6 7 7 8 11 9 8 10 10 11 9 12 12 13 14 14
REMARK SMILES IDX 13 15
REMARK H PARENT 3 5
REMARK Flexibility Score: inf
ROOT
ATOM      1  C   UNL     1       6.399   1.341   0.639  1.00  0.00     0.127 C 
ENDROOT
BRANCH   1   2
ATOM      2  C   UNL     1       5.197   1.319   1.459  1.00  0.00     0.303 C 
ATOM      3  O   UNL     1       4.253   2.105   1.368  1.00  0.00    -0.252 OA
BRANCH   2   4
ATOM      4  O   UNL     1       5.103   0.317   2.437  1.00  0.00    -0.481 OA
ATOM      5  H   UNL     1       5.563  -0.556   2.226  1.00  0.00     0.296 HD
ENDBRANCH   2   4
ENDBRANCH   1   2
BRANCH   1   6
ATOM      6  C   UNL     1       6.191   0.861  -0.744  1.00  0.00     0.047 C 
BRANCH   6   7
ATOM      7  C   UNL     1       6.958  -0.308  -1.177  1.00  0.00    -0.043 A 
ATOM      8  C   UNL     1       7.269  -0.517  -2.512  1.00  0.00     0.008 A 
ATOM      9  C   UNL     1       7.360  -1.256  -0.274  1.00  0.00     0.054 A 
ATOM     10  C   UNL     1       7.959  -1.635  -2.926  1.00  0.00     0.051 A 
ATOM     11  C   UNL     1       8.055  -2.385  -0.666  1.00  0.00     0.166 A 
ATOM     12  C   UNL     1       8.356  -2.578  -1.992  1.00  0.00     0.165 A 
ATOM     13  O   UNL     1       8.553  -3.455   0.057  1.00  0.00    -0.454 OA
ATOM     14  O   UNL     1       9.050  -3.787  -2.076  1.00  0.00    -0.454 OA
ATOM     15  C   UNL     1       8.909  -4.495  -0.866  1.00  0.00     0.468 C 
ENDBRANCH   6   7
ENDBRANCH   1   6
TORSDOF 4
ENDMDL
MODEL 4
REMARK VINA RESULT:      -7.4      1.791      5.272
REMARK SMILES O=C(O)CCc1ccc2c(c1)OCO2
REMARK SMILES IDX 4 1 2 2 1 3 3 4 5 6 6 7 7 8 11 9 8 10 10 11 9 12 12 13 14 14
REMARK SMILES IDX 13 15
REMARK H PARENT 3 5
REMARK Flexibility Score: inf
ROOT
ATOM      1  C   UNL     1       8.304  -0.315  -2.875  1.00  0.00     0.127 C 
ENDROOT
BRANCH   1   2
ATOM      2  C   UNL     1       8.471  -1.746  -3.080  1.00  0.00     0.303 C 
ATOM      3  O   UNL     1       9.540  -2.357  -3.033  1.00  0.00    -0.252 OA
BRANCH   2   4
ATOM      4  O   UNL     1       7.317  -2.496  -3.353  1.00  0.00    -0.481 OA
ATOM      5  H   UNL     1       7.465  -3.419  -3.733  1.00  0.00     0.296 HD
ENDBRANCH   2   4
ENDBRANCH   1   2
BRANCH   1   6
ATOM      6  C   UNL     1       8.755   0.158  -1.549  1.00  0.00     0.047 C 
BRANCH   6   7
ATOM      7  C   UNL     1       7.789   0.111  -0.449  1.00  0.00    -0.043 A 
ATOM      8  C   UNL     1       7.740  -0.964   0.426  1.00  0.00     0.008 A 
ATOM      9  C   UNL     1       6.875   1.116  -0.275  1.00  0.00     0.054 A 
ATOM     10  C   UNL     1       6.809  -1.026   1.439  1.00  0.00     0.051 A 
ATOM     11  C   UNL     1       5.933   1.075   0.734  1.00  0.00     0.166 A 
ATOM     12  C   UNL     1       5.896   0.004   1.595  1.00  0.00     0.165 A 
ATOM     13  O   UNL     1       4.931   1.960   1.093  1.00  0.00    -0.454 OA
ATOM     14  O   UNL     1       4.853   0.243   2.491  1.00  0.00    -0.454 OA
ATOM     15  C   UNL     1       4.047   1.292   2.007  1.00  0.00     0.468 C 
ENDBRANCH   6   7
ENDBRANCH   1   6
TORSDOF 4
ENDMDL
MODEL 5
REMARK VINA RESULT:      -7.4      0.939      2.109
REMARK SMILES O=C(O)CCc1ccc2c(c1)OCO2
REMARK SMILES IDX 4 1 2 2 1 3 3 4 5 6 6 7 7 8 11 9 8 10 10 11 9 12 12 13 14 14
REMARK SMILES IDX 13 15
REMARK H PARENT 3 5
REMARK Flexibility Score: inf
ROOT
ATOM      1  C   UNL     1       5.352   2.853   0.222  1.00  0.00     0.127 C 
ENDROOT
BRANCH   1   2
ATOM      2  C   UNL     1       6.116   3.868   0.931  1.00  0.00     0.303 C 
ATOM      3  O   UNL     1       6.155   4.011   2.154  1.00  0.00    -0.252 OA
BRANCH   2   4
ATOM      4  O   UNL     1       6.874   4.761   0.158  1.00  0.00    -0.481 OA
ATOM      5  H   UNL     1       6.567   4.898  -0.793  1.00  0.00     0.296 HD
ENDBRANCH   2   4
ENDBRANCH   1   2
BRANCH   1   6
ATOM      6  C   UNL     1       5.376   1.524   0.868  1.00  0.00     0.047 C 
BRANCH   6   7
ATOM      7  C   UNL     1       6.206   0.486   0.251  1.00  0.00    -0.043 A 
ATOM      8  C   UNL     1       6.474   0.486  -1.109  1.00  0.00     0.008 A 
ATOM      9  C   UNL     1       6.712  -0.543   1.000  1.00  0.00     0.054 A 
ATOM     10  C   UNL     1       7.224  -0.508  -1.696  1.00  0.00     0.051 A 
ATOM     11  C   UNL     1       7.468  -1.551   0.433  1.00  0.00     0.166 A 
ATOM     12  C   UNL     1       7.726  -1.537  -0.917  1.00  0.00     0.165 A 
ATOM     13  O   UNL     1       8.071  -2.668   0.983  1.00  0.00    -0.454 OA
ATOM     14  O   UNL     1       8.500  -2.667  -1.190  1.00  0.00    -0.454 OA
ATOM     15  C   UNL     1       8.461  -3.542  -0.087  1.00  0.00     0.468 C 
ENDBRANCH   6   7
ENDBRANCH   1   6
TORSDOF 4
ENDMDL
