@<TRIPOS>MOLECULE
/home/cewinharhar/GITHUB/reincatalyze/data/processed/docking_pred/2023-May-17-1006_maxeplen10_maxtrainstep1000_seadep16_gamma099_lrac9e-4_lrcr1e-3_sub6/22478e644e92021fed45641255b53d2cc77f0790_ligand_6.pdbqt
 15 16 0 0 0
SMALL
GASTEIGER

@<TRIPOS>ATOM
      1  C          6.3990    1.3410    0.6390 C.3     1  UNL1        0.1270
      2  C          5.1970    1.3190    1.4590 C.2     1  UNL1        0.3030
      3  O          4.2530    2.1050    1.3680 O.2     1  UNL1       -0.2520
      4  O          5.1030    0.3170    2.4370 O.3     1  UNL1       -0.4810
      5  H          5.5630   -0.5560    2.2260 H       1  UNL1        0.2960
      6  C          6.1910    0.8610   -0.7440 C.3     1  UNL1        0.0470
      7  C          6.9580   -0.3080   -1.1770 C.2     1  UNL1       -0.0430
      8  C          7.2690   -0.5170   -2.5120 C.2     1  UNL1        0.0080
      9  C          7.3600   -1.2560   -0.2740 C.2     1  UNL1        0.0540
     10  C          7.9590   -1.6350   -2.9260 C.2     1  UNL1        0.0510
     11  C          8.0550   -2.3850   -0.6660 C.2     1  UNL1        0.1660
     12  C          8.3560   -2.5780   -1.9920 C.2     1  UNL1        0.1650
     13  O          8.5530   -3.4550    0.0570 O.2     1  UNL1       -0.4540
     14  O          9.0500   -3.7870   -2.0760 O.2     1  UNL1       -0.4540
     15  C          8.9090   -4.4950   -0.8660 C.3     1  UNL1        0.4680
@<TRIPOS>BOND
     1    10     8    1
     2    10    12    2
     3     8     7    2
     4    14    12    1
     5    14    15    1
     6    12    11    1
     7     7     6    1
     8     7     9    1
     9    15    13    1
    10     6     1    1
    11    11     9    2
    12    11    13    1
    13     1     2    1
    14     3     2    2
    15     2     4    1
    16     5     4    1
