@<TRIPOS>MOLECULE
/home/cewinharhar/GITHUB/reincatalyze/data/processed/docking_pred/2023-May-17-1006_maxeplen10_maxtrainstep1000_seadep16_gamma099_lrac9e-4_lrcr1e-3_sub6/225d7738cc918e3754e3779366d54ccb252183f1_ligand_6.pdbqt
 15 16 0 0 0
SMALL
GASTEIGER

@<TRIPOS>ATOM
      1  C          6.4220    1.2310    0.6830 C.3     1  UNL1        0.1270
      2  C          5.2360    1.1620    1.5210 C.2     1  UNL1        0.3030
      3  O          5.0190    0.3140    2.3890 O.2     1  UNL1       -0.2520
      4  O          4.2510    2.1430    1.3260 O.3     1  UNL1       -0.4810
      5  H          3.4570    2.1070    1.9470 H       1  UNL1        0.2960
      6  C          6.2110    0.7480   -0.6990 C.3     1  UNL1        0.0470
      7  C          6.9780   -0.4220   -1.1320 C.2     1  UNL1       -0.0430
      8  C          7.2860   -0.6320   -2.4670 C.2     1  UNL1        0.0080
      9  C          7.3830   -1.3680   -0.2280 C.2     1  UNL1        0.0540
     10  C          7.9760   -1.7500   -2.8810 C.2     1  UNL1        0.0510
     11  C          8.0770   -2.4970   -0.6200 C.2     1  UNL1        0.1660
     12  C          8.3760   -2.6920   -1.9470 C.2     1  UNL1        0.1650
     13  O          8.5770   -3.5650    0.1040 O.2     1  UNL1       -0.4540
     14  O          9.0700   -3.9000   -2.0300 O.2     1  UNL1       -0.4540
     15  C          8.9320   -4.6060   -0.8190 C.3     1  UNL1        0.4680
@<TRIPOS>BOND
     1    10     8    1
     2    10    12    2
     3     8     7    2
     4    14    12    1
     5    14    15    1
     6    12    11    1
     7     7     6    1
     8     7     9    1
     9    15    13    1
    10     6     1    1
    11    11     9    2
    12    11    13    1
    13     1     2    1
    14     4     2    1
    15     4     5    1
    16     2     3    2
