@<TRIPOS>MOLECULE
/home/cewinharhar/GITHUB/reincatalyze/data/processed/docking_pred/2023-May-17-1006_maxeplen10_maxtrainstep1000_seadep16_gamma099_lrac9e-4_lrcr1e-3_sub6/225d7738cc918e3754e3779366d54ccb252183f1_ligand_6.pdbqt
 15 16 0 0 0
SMALL
GASTEIGER

@<TRIPOS>ATOM
      1  C          5.4230    2.8690    0.1220 C.3     1  UNL1        0.1270
      2  C          6.2590    3.8460    0.8020 C.2     1  UNL1        0.3030
      3  O          6.8840    4.7570    0.2580 O.2     1  UNL1       -0.2520
      4  O          6.3630    3.7440    2.1990 O.3     1  UNL1       -0.4810
      5  H          6.1740    4.5850    2.7220 H       1  UNL1        0.2960
      6  C          5.3550    1.5590    0.8050 C.3     1  UNL1        0.0470
      7  C          6.1360    0.4580    0.2380 C.2     1  UNL1       -0.0430
      8  C          6.6010   -0.5830    1.0270 C.2     1  UNL1        0.0080
      9  C          6.4660    0.4450   -1.0920 C.2     1  UNL1        0.0540
     10  C          7.3670   -1.6000    0.5020 C.2     1  UNL1        0.0510
     11  C          7.2320   -0.5660   -1.6400 C.2     1  UNL1        0.1660
     12  C          7.6850   -1.5910   -0.8460 C.2     1  UNL1        0.1650
     13  O          7.6790   -0.7810   -2.9320 O.2     1  UNL1       -0.4540
     14  O          8.4200   -2.4450   -1.6700 O.2     1  UNL1       -0.4540
     15  C          8.6900   -1.8000   -2.8940 C.3     1  UNL1        0.4680
@<TRIPOS>BOND
     1    13    15    1
     2    13    11    1
     3    15    14    1
     4    14    12    1
     5    11     9    1
     6    11    12    2
     7     9     7    2
     8    12    10    1
     9     1     2    1
    10     1     6    1
    11     7     6    1
    12     7     8    1
    13     3     2    2
    14    10     8    2
    15     2     4    1
    16     4     5    1
