@<TRIPOS>MOLECULE
/home/cewinharhar/GITHUB/reincatalyze/data/processed/docking_pred/2023-May-17-1006_maxeplen10_maxtrainstep1000_seadep16_gamma099_lrac9e-4_lrcr1e-3_sub6/225d7738cc918e3754e3779366d54ccb252183f1_ligand_6.pdbqt
 15 16 0 0 0
SMALL
GASTEIGER

@<TRIPOS>ATOM
      1  C          4.7340    1.8770    0.6980 C.3     1  UNL1        0.1270
      2  C          4.4030    1.1520    1.9140 C.2     1  UNL1        0.3030
      3  O          5.1070    0.2960    2.4530 O.2     1  UNL1       -0.2520
      4  O          3.1770    1.4500    2.5290 O.3     1  UNL1       -0.4810
      5  H          2.7860    2.3570    2.3260 H       1  UNL1        0.2960
      6  C          6.1680    2.2140    0.5710 C.3     1  UNL1        0.0470
      7  C          7.0080    1.3110   -0.2190 C.2     1  UNL1       -0.0430
      8  C          8.3670    1.5370   -0.3750 C.2     1  UNL1        0.0080
      9  C          6.4630    0.2320   -0.8630 C.2     1  UNL1        0.0540
     10  C          9.1510    0.7100   -1.1480 C.2     1  UNL1        0.0510
     11  C          7.2310   -0.6120   -1.6430 C.2     1  UNL1        0.1660
     12  C          8.5770   -0.3770   -1.7880 C.2     1  UNL1        0.1650
     13  O          6.9030   -1.7420   -2.3720 O.2     1  UNL1       -0.4540
     14  O          9.0750   -1.3810   -2.6190 O.2     1  UNL1       -0.4540
     15  C          8.0020   -2.0510   -3.2410 C.3     1  UNL1        0.4680
@<TRIPOS>BOND
     1    15    14    1
     2    15    13    1
     3    14    12    1
     4    13    11    1
     5    12    11    2
     6    12    10    1
     7    11     9    1
     8    10     8    2
     9     9     7    2
    10     8     7    1
    11     7     6    1
    12     6     1    1
    13     1     2    1
    14     2     3    2
    15     2     4    1
    16     5     4    1
