MODEL 1
REMARK VINA RESULT:      -7.6      0.000      0.000
REMARK SMILES O=C(O)CCc1ccc2c(c1)OCO2
REMARK SMILES IDX 4 1 2 2 1 3 3 4 5 6 6 7 7 8 11 9 8 10 10 11 9 12 12 13 14 14
REMARK SMILES IDX 13 15
REMARK H PARENT 3 5
REMARK Flexibility Score: inf
ROOT
ATOM      1  C   UNL     1       5.423   2.869   0.122  1.00  0.00     0.127 C 
ENDROOT
BRANCH   1   2
ATOM      2  C   UNL     1       6.259   3.846   0.802  1.00  0.00     0.303 C 
ATOM      3  O   UNL     1       6.884   4.757   0.258  1.00  0.00    -0.252 OA
BRANCH   2   4
ATOM      4  O   UNL     1       6.363   3.744   2.199  1.00  0.00    -0.481 OA
ATOM      5  H   UNL     1       6.174   4.585   2.722  1.00  0.00     0.296 HD
ENDBRANCH   2   4
ENDBRANCH   1   2
BRANCH   1   6
ATOM      6  C   UNL     1       5.355   1.559   0.805  1.00  0.00     0.047 C 
BRANCH   6   7
ATOM      7  C   UNL     1       6.136   0.458   0.238  1.00  0.00    -0.043 A 
ATOM      8  C   UNL     1       6.601  -0.583   1.027  1.00  0.00     0.008 A 
ATOM      9  C   UNL     1       6.466   0.445  -1.092  1.00  0.00     0.054 A 
ATOM     10  C   UNL     1       7.367  -1.600   0.502  1.00  0.00     0.051 A 
ATOM     11  C   UNL     1       7.232  -0.566  -1.640  1.00  0.00     0.166 A 
ATOM     12  C   UNL     1       7.685  -1.591  -0.846  1.00  0.00     0.165 A 
ATOM     13  O   UNL     1       7.679  -0.781  -2.932  1.00  0.00    -0.454 OA
ATOM     14  O   UNL     1       8.420  -2.445  -1.670  1.00  0.00    -0.454 OA
ATOM     15  C   UNL     1       8.690  -1.800  -2.894  1.00  0.00     0.468 C 
ENDBRANCH   6   7
ENDBRANCH   1   6
TORSDOF 4
ENDMDL
MODEL 2
REMARK VINA RESULT:      -7.6      2.136      2.521
REMARK SMILES O=C(O)CCc1ccc2c(c1)OCO2
REMARK SMILES IDX 4 1 2 2 1 3 3 4 5 6 6 7 7 8 11 9 8 10 10 11 9 12 12 13 14 14
REMARK SMILES IDX 13 15
REMARK H PARENT 3 5
REMARK Flexibility Score: inf
ROOT
ATOM      1  C   UNL     1       4.734   1.877   0.698  1.00  0.00     0.127 C 
ENDROOT
BRANCH   1   2
ATOM      2  C   UNL     1       4.403   1.152   1.914  1.00  0.00     0.303 C 
ATOM      3  O   UNL     1       5.107   0.296   2.453  1.00  0.00    -0.252 OA
BRANCH   2   4
ATOM      4  O   UNL     1       3.177   1.450   2.529  1.00  0.00    -0.481 OA
ATOM      5  H   UNL     1       2.786   2.357   2.326  1.00  0.00     0.296 HD
ENDBRANCH   2   4
ENDBRANCH   1   2
BRANCH   1   6
ATOM      6  C   UNL     1       6.168   2.214   0.571  1.00  0.00     0.047 C 
BRANCH   6   7
ATOM      7  C   UNL     1       7.008   1.311  -0.219  1.00  0.00    -0.043 A 
ATOM      8  C   UNL     1       8.367   1.537  -0.375  1.00  0.00     0.008 A 
ATOM      9  C   UNL     1       6.463   0.232  -0.863  1.00  0.00     0.054 A 
ATOM     10  C   UNL     1       9.151   0.710  -1.148  1.00  0.00     0.051 A 
ATOM     11  C   UNL     1       7.231  -0.612  -1.643  1.00  0.00     0.166 A 
ATOM     12  C   UNL     1       8.577  -0.377  -1.788  1.00  0.00     0.165 A 
ATOM     13  O   UNL     1       6.903  -1.742  -2.372  1.00  0.00    -0.454 OA
ATOM     14  O   UNL     1       9.075  -1.381  -2.619  1.00  0.00    -0.454 OA
ATOM     15  C   UNL     1       8.002  -2.051  -3.241  1.00  0.00     0.468 C 
ENDBRANCH   6   7
ENDBRANCH   1   6
TORSDOF 4
ENDMDL
MODEL 3
REMARK VINA RESULT:      -7.5      1.988      2.997
REMARK SMILES O=C(O)CCc1ccc2c(c1)OCO2
REMARK SMILES IDX 4 1 2 2 1 3 3 4 5 6 6 7 7 8 11 9 8 10 10 11 9 12 12 13 14 14
REMARK SMILES IDX 13 15
REMARK H PARENT 3 5
REMARK Flexibility Score: inf
ROOT
ATOM      1  C   UNL     1       6.422   1.231   0.683  1.00  0.00     0.127 C 
ENDROOT
BRANCH   1   2
ATOM      2  C   UNL     1       5.236   1.162   1.521  1.00  0.00     0.303 C 
ATOM      3  O   UNL     1       5.019   0.314   2.389  1.00  0.00    -0.252 OA
BRANCH   2   4
ATOM      4  O   UNL     1       4.251   2.143   1.326  1.00  0.00    -0.481 OA
ATOM      5  H   UNL     1       3.457   2.107   1.947  1.00  0.00     0.296 HD
ENDBRANCH   2   4
ENDBRANCH   1   2
BRANCH   1   6
ATOM      6  C   UNL     1       6.211   0.748  -0.699  1.00  0.00     0.047 C 
BRANCH   6   7
ATOM      7  C   UNL     1       6.978  -0.422  -1.132  1.00  0.00    -0.043 A 
ATOM      8  C   UNL     1       7.286  -0.632  -2.467  1.00  0.00     0.008 A 
ATOM      9  C   UNL     1       7.383  -1.368  -0.228  1.00  0.00     0.054 A 
ATOM     10  C   UNL     1       7.976  -1.750  -2.881  1.00  0.00     0.051 A 
ATOM     11  C   UNL     1       8.077  -2.497  -0.620  1.00  0.00     0.166 A 
ATOM     12  C   UNL     1       8.376  -2.692  -1.947  1.00  0.00     0.165 A 
ATOM     13  O   UNL     1       8.577  -3.565   0.104  1.00  0.00    -0.454 OA
ATOM     14  O   UNL     1       9.070  -3.900  -2.030  1.00  0.00    -0.454 OA
ATOM     15  C   UNL     1       8.932  -4.606  -0.819  1.00  0.00     0.468 C 
ENDBRANCH   6   7
ENDBRANCH   1   6
TORSDOF 4
ENDMDL
MODEL 4
REMARK VINA RESULT:      -7.5      1.806      5.282
REMARK SMILES O=C(O)CCc1ccc2c(c1)OCO2
REMARK SMILES IDX 4 1 2 2 1 3 3 4 5 6 6 7 7 8 11 9 8 10 10 11 9 12 12 13 14 14
REMARK SMILES IDX 13 15
REMARK H PARENT 3 5
REMARK Flexibility Score: inf
ROOT
ATOM      1  C   UNL     1       8.307  -0.315  -2.812  1.00  0.00     0.127 C 
ENDROOT
BRANCH   1   2
ATOM      2  C   UNL     1       8.474  -1.739  -3.057  1.00  0.00     0.303 C 
ATOM      3  O   UNL     1       9.543  -2.351  -3.030  1.00  0.00    -0.252 OA
BRANCH   2   4
ATOM      4  O   UNL     1       7.319  -2.481  -3.351  1.00  0.00    -0.481 OA
ATOM      5  H   UNL     1       7.308  -3.435  -3.023  1.00  0.00     0.296 HD
ENDBRANCH   2   4
ENDBRANCH   1   2
BRANCH   1   6
ATOM      6  C   UNL     1       8.766   0.121  -1.475  1.00  0.00     0.047 C 
BRANCH   6   7
ATOM      7  C   UNL     1       7.793   0.090  -0.381  1.00  0.00    -0.043 A 
ATOM      8  C   UNL     1       7.754  -0.960   0.523  1.00  0.00     0.008 A 
ATOM      9  C   UNL     1       6.862   1.085  -0.243  1.00  0.00     0.054 A 
ATOM     10  C   UNL     1       6.816  -1.009   1.531  1.00  0.00     0.051 A 
ATOM     11  C   UNL     1       5.912   1.057   0.760  1.00  0.00     0.166 A 
ATOM     12  C   UNL     1       5.886   0.011   1.651  1.00  0.00     0.165 A 
ATOM     13  O   UNL     1       4.894   1.935   1.086  1.00  0.00    -0.454 OA
ATOM     14  O   UNL     1       4.833   0.258   2.532  1.00  0.00    -0.454 OA
ATOM     15  C   UNL     1       4.014   1.280   2.012  1.00  0.00     0.468 C 
ENDBRANCH   6   7
ENDBRANCH   1   6
TORSDOF 4
ENDMDL
