@<TRIPOS>MOLECULE
/home/cewinharhar/GITHUB/reincatalyze/data/processed/docking_pred/2023-May-17-1006_maxeplen10_maxtrainstep1000_seadep16_gamma099_lrac9e-4_lrcr1e-3_sub6/225d7738cc918e3754e3779366d54ccb252183f1_ligand_6.pdbqt
 15 16 0 0 0
SMALL
GASTEIGER

@<TRIPOS>ATOM
      1  C          8.3070   -0.3150   -2.8120 C.3     1  UNL1        0.1270
      2  C          8.4740   -1.7390   -3.0570 C.2     1  UNL1        0.3030
      3  O          9.5430   -2.3510   -3.0300 O.2     1  UNL1       -0.2520
      4  O          7.3190   -2.4810   -3.3510 O.3     1  UNL1       -0.4810
      5  H          7.3080   -3.4350   -3.0230 H       1  UNL1        0.2960
      6  C          8.7660    0.1210   -1.4750 C.3     1  UNL1        0.0470
      7  C          7.7930    0.0900   -0.3810 C.2     1  UNL1       -0.0430
      8  C          7.7540   -0.9600    0.5230 C.2     1  UNL1        0.0080
      9  C          6.8620    1.0850   -0.2430 C.2     1  UNL1        0.0540
     10  C          6.8160   -1.0090    1.5310 C.2     1  UNL1        0.0510
     11  C          5.9120    1.0570    0.7600 C.2     1  UNL1        0.1660
     12  C          5.8860    0.0110    1.6510 C.2     1  UNL1        0.1650
     13  O          4.8940    1.9350    1.0860 O.2     1  UNL1       -0.4540
     14  O          4.8330    0.2580    2.5320 O.2     1  UNL1       -0.4540
     15  C          4.0140    1.2800    2.0120 C.3     1  UNL1        0.4680
@<TRIPOS>BOND
     1     4     2    1
     2     4     5    1
     3     2     3    2
     4     2     1    1
     5     1     6    1
     6     6     7    1
     7     7     9    2
     8     7     8    1
     9     9    11    1
    10     8    10    2
    11    11    13    1
    12    11    12    2
    13    13    15    1
    14    10    12    1
    15    12    14    1
    16    15    14    1
