@<TRIPOS>MOLECULE
/home/cewinharhar/GITHUB/reincatalyze/data/processed/docking_pred/2023-May-17-1006_maxeplen10_maxtrainstep1000_seadep16_gamma099_lrac9e-4_lrcr1e-3_sub6/225d7738cc918e3754e3779366d54ccb252183f1_ligand_6.pdbqt
 15 16 0 0 0
SMALL
GASTEIGER

@<TRIPOS>ATOM
      1  C          6.3250    2.5400    1.2560 C.3     1  UNL1        0.1270
      2  C          6.4130    3.9910    1.2020 C.2     1  UNL1        0.3030
      3  O          6.7780    4.6510    0.2270 O.2     1  UNL1       -0.2520
      4  O          6.0520    4.7020    2.3570 O.3     1  UNL1       -0.4810
      5  H          5.6120    4.1680    3.0900 H       1  UNL1        0.2960
      6  C          5.8700    1.9190   -0.0060 C.3     1  UNL1        0.0470
      7  C          6.5390    0.6890   -0.4350 C.2     1  UNL1       -0.0430
      8  C          6.5270    0.2810   -1.7600 C.2     1  UNL1        0.0080
      9  C          7.1680   -0.1200    0.4740 C.2     1  UNL1        0.0540
     10  C          7.1240   -0.8940   -2.1590 C.2     1  UNL1        0.0510
     11  C          7.7750   -1.3030    0.0970 C.2     1  UNL1        0.1660
     12  C          7.7560   -1.6940   -1.2200 C.2     1  UNL1        0.1650
     13  O          8.4570   -2.2600    0.8280 O.2     1  UNL1       -0.4540
     14  O          8.4380   -2.9100   -1.2890 O.2     1  UNL1       -0.4540
     15  C          8.6060   -3.4290    0.0090 C.3     1  UNL1        0.4680
@<TRIPOS>BOND
     1    10     8    1
     2    10    12    2
     3     8     7    2
     4    14    12    1
     5    14    15    1
     6    12    11    1
     7     7     6    1
     8     7     9    1
     9     6     1    1
    10    15    13    1
    11    11     9    2
    12    11    13    1
    13     3     2    2
    14     2     1    1
    15     2     4    1
    16     4     5    1
