@<TRIPOS>MOLECULE
/home/cewinharhar/GITHUB/reincatalyze/data/processed/docking_pred/2023-May-17-1006_maxeplen10_maxtrainstep1000_seadep16_gamma099_lrac9e-4_lrcr1e-3_sub6/2368d29bb7bbfa5e31d33bb3936e2ea89938fe66_ligand_6.pdbqt
 15 16 0 0 0
SMALL
GASTEIGER

@<TRIPOS>ATOM
      1  C          5.8180    1.7040    1.1230 C.3     1  UNL1        0.1270
      2  C          5.0270    0.7930    1.9360 C.2     1  UNL1        0.3030
      3  O          5.3860   -0.3220    2.3190 O.2     1  UNL1       -0.2520
      4  O          3.7440    1.2160    2.3170 O.3     1  UNL1       -0.4810
      5  H          3.4240    0.9080    3.2220 H       1  UNL1        0.2960
      6  C          5.7290    1.4430   -0.3290 C.3     1  UNL1        0.0470
      7  C          6.7890    0.6360   -0.9380 C.2     1  UNL1       -0.0430
      8  C          8.1220    1.0080   -0.8550 C.2     1  UNL1        0.0080
      9  C          6.4870   -0.4970   -1.6460 C.2     1  UNL1        0.0540
     10  C          9.1160    0.2700   -1.4580 C.2     1  UNL1        0.0510
     11  C          7.4670   -1.2540   -2.2580 C.2     1  UNL1        0.1660
     12  C          8.7850   -0.8740   -2.1670 C.2     1  UNL1        0.1650
     13  O          7.3970   -2.4140   -3.0100 O.2     1  UNL1       -0.4540
     14  O          9.5270   -1.8190   -2.8750 O.2     1  UNL1       -0.4540
     15  C          8.6610   -2.6030   -3.6640 C.3     1  UNL1        0.4680
@<TRIPOS>BOND
     1    15    13    1
     2    15    14    1
     3    13    11    1
     4    14    12    1
     5    11    12    2
     6    11     9    1
     7    12    10    1
     8     9     7    2
     9    10     8    2
    10     7     8    1
    11     7     6    1
    12     6     1    1
    13     1     2    1
    14     2     4    1
    15     2     3    2
    16     4     5    1
