@<TRIPOS>MOLECULE
/home/cewinharhar/GITHUB/reincatalyze/data/processed/docking_pred/2023-May-17-1006_maxeplen10_maxtrainstep1000_seadep16_gamma099_lrac9e-4_lrcr1e-3_sub6/2368d29bb7bbfa5e31d33bb3936e2ea89938fe66_ligand_6.pdbqt
 15 16 0 0 0
SMALL
GASTEIGER

@<TRIPOS>ATOM
      1  C          5.6390    2.6320    0.1080 C.3     1  UNL1        0.1270
      2  C          6.2430    3.6830    0.9130 C.2     1  UNL1        0.3030
      3  O          6.2740    3.7140    2.1450 O.2     1  UNL1       -0.2520
      4  O          6.8430    4.7530    0.2320 O.3     1  UNL1       -0.4810
      5  H          7.1040    5.5490    0.7940 H       1  UNL1        0.2960
      6  C          5.6630    1.2990    0.7460 C.3     1  UNL1        0.0470
      7  C          6.4250    0.2420    0.0760 C.2     1  UNL1       -0.0430
      8  C          6.5450    0.1990   -1.3040 C.2     1  UNL1        0.0080
      9  C          7.0110   -0.7640    0.7990 C.2     1  UNL1        0.0540
     10  C          7.2300   -0.8150   -1.9370 C.2     1  UNL1        0.0510
     11  C          7.7040   -1.7900    0.1850 C.2     1  UNL1        0.1660
     12  C          7.8160   -1.8190   -1.1840 C.2     1  UNL1        0.1650
     13  O          8.3650   -2.8900    0.7030 O.2     1  UNL1       -0.4540
     14  O          8.5590   -2.9570   -1.5030 O.2     1  UNL1       -0.4540
     15  C          8.6400   -3.7980   -0.3750 C.3     1  UNL1        0.4680
@<TRIPOS>BOND
     1    10     8    1
     2    10    12    2
     3    14    12    1
     4    14    15    1
     5     8     7    2
     6    12    11    1
     7    15    13    1
     8     7     6    1
     9     7     9    1
    10     1     6    1
    11     1     2    1
    12    11    13    1
    13    11     9    2
    14     4     5    1
    15     4     2    1
    16     2     3    2
