@<TRIPOS>MOLECULE
/home/cewinharhar/GITHUB/reincatalyze/data/processed/docking_pred/2023-May-17-1006_maxeplen10_maxtrainstep1000_seadep16_gamma099_lrac9e-4_lrcr1e-3_sub6/2368d29bb7bbfa5e31d33bb3936e2ea89938fe66_ligand_6.pdbqt
 15 16 0 0 0
SMALL
GASTEIGER

@<TRIPOS>ATOM
      1  C          4.9930    1.6270    0.6800 C.3     1  UNL1        0.1270
      2  C          4.5110    1.0420    1.9210 C.2     1  UNL1        0.3030
      3  O          5.0930    0.1790    2.5810 O.2     1  UNL1       -0.2520
      4  O          3.2770    1.4980    2.4120 O.3     1  UNL1       -0.4810
      5  H          3.2070    1.6010    3.4130 H       1  UNL1        0.2960
      6  C          6.4550    1.5170    0.4930 C.3     1  UNL1        0.0470
      7  C          6.9660    0.3090   -0.1580 C.2     1  UNL1       -0.0430
      8  C          6.7730    0.0780   -1.5120 C.2     1  UNL1        0.0080
      9  C          7.6190   -0.6540    0.5650 C.2     1  UNL1        0.0540
     10  C          7.2210   -1.0750   -2.1180 C.2     1  UNL1        0.0510
     11  C          8.0780   -1.8180   -0.0220 C.2     1  UNL1        0.1660
     12  C          7.8810   -2.0320   -1.3650 C.2     1  UNL1        0.1650
     13  O          8.7510   -2.9070    0.5020 O.2     1  UNL1       -0.4540
     14  O          8.4450   -3.2740   -1.6610 O.2     1  UNL1       -0.4540
     15  C          8.7100   -3.9680   -0.4640 C.3     1  UNL1        0.4680
@<TRIPOS>BOND
     1    10     8    1
     2    10    12    2
     3    14    12    1
     4    14    15    1
     5     8     7    2
     6    12    11    1
     7    15    13    1
     8     7     6    1
     9     7     9    1
    10    11    13    1
    11    11     9    2
    12     6     1    1
    13     1     2    1
    14     2     4    1
    15     2     3    2
    16     4     5    1
