@<TRIPOS>MOLECULE
/home/cewinharhar/GITHUB/reincatalyze/data/processed/docking_pred/2023-May-17-1006_maxeplen10_maxtrainstep1000_seadep16_gamma099_lrac9e-4_lrcr1e-3_sub6/2368d29bb7bbfa5e31d33bb3936e2ea89938fe66_ligand_6.pdbqt
 15 16 0 0 0
SMALL
GASTEIGER

@<TRIPOS>ATOM
      1  C          8.2390   -2.7350   -3.6550 C.3     1  UNL1        0.1270
      2  C          9.3400   -3.6790   -3.5450 C.2     1  UNL1        0.3030
      3  O         10.5220   -3.3850   -3.3550 O.2     1  UNL1       -0.2520
      4  O          9.0330   -5.0440   -3.6640 O.3     1  UNL1       -0.4810
      5  H          8.2130   -5.3610   -3.1700 H       1  UNL1        0.2960
      6  C          8.5320   -1.4030   -3.0850 C.3     1  UNL1        0.0470
      7  C          7.7350   -0.9680   -1.9360 C.2     1  UNL1       -0.0430
      8  C          6.9720    0.1890   -1.9790 C.2     1  UNL1        0.0080
      9  C          7.7510   -1.6780   -0.7640 C.2     1  UNL1        0.0540
     10  C          6.2510    0.6180   -0.8870 C.2     1  UNL1        0.0510
     11  C          7.0340   -1.2670    0.3440 C.2     1  UNL1        0.1660
     12  C          6.2820   -0.1180    0.2860 C.2     1  UNL1        0.1650
     13  O          6.9030   -1.8140    1.6080 O.2     1  UNL1       -0.4540
     14  O          5.6830    0.0340    1.5380 O.2     1  UNL1       -0.4540
     15  C          6.3010   -0.8310    2.4630 C.3     1  UNL1        0.4680
@<TRIPOS>BOND
     1     4     2    1
     2     4     5    1
     3     1     2    1
     4     1     6    1
     5     2     3    2
     6     6     7    1
     7     8     7    2
     8     8    10    1
     9     7     9    1
    10    10    12    2
    11     9    11    2
    12    12    11    1
    13    12    14    1
    14    11    13    1
    15    14    15    1
    16    13    15    1
