@<TRIPOS>MOLECULE
/home/cewinharhar/GITHUB/reincatalyze/data/processed/docking_pred/2023-May-17-1006_maxeplen10_maxtrainstep1000_seadep16_gamma099_lrac9e-4_lrcr1e-3_sub6/2368d29bb7bbfa5e31d33bb3936e2ea89938fe66_ligand_6.pdbqt
 15 16 0 0 0
SMALL
GASTEIGER

@<TRIPOS>ATOM
      1  C          5.4350    2.7820   -0.0770 C.3     1  UNL1        0.1270
      2  C          6.1760    3.7730    0.6870 C.2     1  UNL1        0.3030
      3  O          6.7600    4.7510    0.2180 O.2     1  UNL1       -0.2520
      4  O          6.2320    3.6030    2.0800 O.3     1  UNL1       -0.4810
      5  H          6.5130    2.6910    2.4060 H       1  UNL1        0.2960
      6  C          5.7410    1.3850    0.2950 C.3     1  UNL1        0.0470
      7  C          6.7850    0.6940   -0.4660 C.2     1  UNL1       -0.0430
      8  C          8.0800    1.1830   -0.5280 C.2     1  UNL1        0.0080
      9  C          6.4980   -0.4420   -1.1750 C.2     1  UNL1        0.0540
     10  C          9.0540    0.5550   -1.2730 C.2     1  UNL1        0.0510
     11  C          7.4590   -1.0900   -1.9290 C.2     1  UNL1        0.1660
     12  C          8.7390   -0.5940   -1.9800 C.2     1  UNL1        0.1650
     13  O          7.3990   -2.2300   -2.7110 O.2     1  UNL1       -0.4540
     14  O          9.4690   -1.4480   -2.8080 O.2     1  UNL1       -0.4540
     15  C          8.5850   -2.2850   -3.5170 C.3     1  UNL1        0.4680
@<TRIPOS>BOND
     1    15    14    1
     2    15    13    1
     3    14    12    1
     4    13    11    1
     5    12    11    2
     6    12    10    1
     7    11     9    1
     8    10     8    2
     9     9     7    2
    10     8     7    1
    11     7     6    1
    12     1     6    1
    13     1     2    1
    14     3     2    2
    15     2     4    1
    16     4     5    1
