MODEL 1
REMARK VINA RESULT:      -7.9      0.000      0.000
REMARK SMILES O=C(O)CCc1ccc2c(c1)OCO2
REMARK SMILES IDX 4 1 2 2 1 3 3 4 5 6 6 7 7 8 11 9 8 10 10 11 9 12 12 13 14 14
REMARK SMILES IDX 13 15
REMARK H PARENT 3 5
REMARK Flexibility Score: inf
ROOT
ATOM      1  C   UNL     1       5.435   2.782  -0.077  1.00  0.00     0.127 C 
ENDROOT
BRANCH   1   2
ATOM      2  C   UNL     1       6.176   3.773   0.687  1.00  0.00     0.303 C 
ATOM      3  O   UNL     1       6.760   4.751   0.218  1.00  0.00    -0.252 OA
BRANCH   2   4
ATOM      4  O   UNL     1       6.232   3.603   2.080  1.00  0.00    -0.481 OA
ATOM      5  H   UNL     1       6.513   2.691   2.406  1.00  0.00     0.296 HD
ENDBRANCH   2   4
ENDBRANCH   1   2
BRANCH   1   6
ATOM      6  C   UNL     1       5.741   1.385   0.295  1.00  0.00     0.047 C 
BRANCH   6   7
ATOM      7  C   UNL     1       6.785   0.694  -0.466  1.00  0.00    -0.043 A 
ATOM      8  C   UNL     1       8.080   1.183  -0.528  1.00  0.00     0.008 A 
ATOM      9  C   UNL     1       6.498  -0.442  -1.175  1.00  0.00     0.054 A 
ATOM     10  C   UNL     1       9.054   0.555  -1.273  1.00  0.00     0.051 A 
ATOM     11  C   UNL     1       7.459  -1.090  -1.929  1.00  0.00     0.166 A 
ATOM     12  C   UNL     1       8.739  -0.594  -1.980  1.00  0.00     0.165 A 
ATOM     13  O   UNL     1       7.399  -2.230  -2.711  1.00  0.00    -0.454 OA
ATOM     14  O   UNL     1       9.469  -1.448  -2.808  1.00  0.00    -0.454 OA
ATOM     15  C   UNL     1       8.585  -2.285  -3.517  1.00  0.00     0.468 C 
ENDBRANCH   6   7
ENDBRANCH   1   6
TORSDOF 4
ENDMDL
MODEL 2
REMARK VINA RESULT:      -7.8      1.817      2.074
REMARK SMILES O=C(O)CCc1ccc2c(c1)OCO2
REMARK SMILES IDX 4 1 2 2 1 3 3 4 5 6 6 7 7 8 11 9 8 10 10 11 9 12 12 13 14 14
REMARK SMILES IDX 13 15
REMARK H PARENT 3 5
REMARK Flexibility Score: inf
ROOT
ATOM      1  C   UNL     1       5.818   1.704   1.123  1.00  0.00     0.127 C 
ENDROOT
BRANCH   1   2
ATOM      2  C   UNL     1       5.027   0.793   1.936  1.00  0.00     0.303 C 
ATOM      3  O   UNL     1       5.386  -0.322   2.319  1.00  0.00    -0.252 OA
BRANCH   2   4
ATOM      4  O   UNL     1       3.744   1.216   2.317  1.00  0.00    -0.481 OA
ATOM      5  H   UNL     1       3.424   0.908   3.222  1.00  0.00     0.296 HD
ENDBRANCH   2   4
ENDBRANCH   1   2
BRANCH   1   6
ATOM      6  C   UNL     1       5.729   1.443  -0.329  1.00  0.00     0.047 C 
BRANCH   6   7
ATOM      7  C   UNL     1       6.789   0.636  -0.938  1.00  0.00    -0.043 A 
ATOM      8  C   UNL     1       8.122   1.008  -0.855  1.00  0.00     0.008 A 
ATOM      9  C   UNL     1       6.487  -0.497  -1.646  1.00  0.00     0.054 A 
ATOM     10  C   UNL     1       9.116   0.270  -1.458  1.00  0.00     0.051 A 
ATOM     11  C   UNL     1       7.467  -1.254  -2.258  1.00  0.00     0.166 A 
ATOM     12  C   UNL     1       8.785  -0.874  -2.167  1.00  0.00     0.165 A 
ATOM     13  O   UNL     1       7.397  -2.414  -3.010  1.00  0.00    -0.454 OA
ATOM     14  O   UNL     1       9.527  -1.819  -2.875  1.00  0.00    -0.454 OA
ATOM     15  C   UNL     1       8.661  -2.603  -3.664  1.00  0.00     0.468 C 
ENDBRANCH   6   7
ENDBRANCH   1   6
TORSDOF 4
ENDMDL
MODEL 3
REMARK VINA RESULT:      -7.5      2.297      2.808
REMARK SMILES O=C(O)CCc1ccc2c(c1)OCO2
REMARK SMILES IDX 4 1 2 2 1 3 3 4 5 6 6 7 7 8 11 9 8 10 10 11 9 12 12 13 14 14
REMARK SMILES IDX 13 15
REMARK H PARENT 3 5
REMARK Flexibility Score: inf
ROOT
ATOM      1  C   UNL     1       4.993   1.627   0.680  1.00  0.00     0.127 C 
ENDROOT
BRANCH   1   2
ATOM      2  C   UNL     1       4.511   1.042   1.921  1.00  0.00     0.303 C 
ATOM      3  O   UNL     1       5.093   0.179   2.581  1.00  0.00    -0.252 OA
BRANCH   2   4
ATOM      4  O   UNL     1       3.277   1.498   2.412  1.00  0.00    -0.481 OA
ATOM      5  H   UNL     1       3.207   1.601   3.413  1.00  0.00     0.296 HD
ENDBRANCH   2   4
ENDBRANCH   1   2
BRANCH   1   6
ATOM      6  C   UNL     1       6.455   1.517   0.493  1.00  0.00     0.047 C 
BRANCH   6   7
ATOM      7  C   UNL     1       6.966   0.309  -0.158  1.00  0.00    -0.043 A 
ATOM      8  C   UNL     1       6.773   0.078  -1.512  1.00  0.00     0.008 A 
ATOM      9  C   UNL     1       7.619  -0.654   0.565  1.00  0.00     0.054 A 
ATOM     10  C   UNL     1       7.221  -1.075  -2.118  1.00  0.00     0.051 A 
ATOM     11  C   UNL     1       8.078  -1.818  -0.022  1.00  0.00     0.166 A 
ATOM     12  C   UNL     1       7.881  -2.032  -1.365  1.00  0.00     0.165 A 
ATOM     13  O   UNL     1       8.751  -2.907   0.502  1.00  0.00    -0.454 OA
ATOM     14  O   UNL     1       8.445  -3.274  -1.661  1.00  0.00    -0.454 OA
ATOM     15  C   UNL     1       8.710  -3.968  -0.464  1.00  0.00     0.468 C 
ENDBRANCH   6   7
ENDBRANCH   1   6
TORSDOF 4
ENDMDL
MODEL 4
REMARK VINA RESULT:      -7.4      1.671      2.121
REMARK SMILES O=C(O)CCc1ccc2c(c1)OCO2
REMARK SMILES IDX 4 1 2 2 1 3 3 4 5 6 6 7 7 8 11 9 8 10 10 11 9 12 12 13 14 14
REMARK SMILES IDX 13 15
REMARK H PARENT 3 5
REMARK Flexibility Score: inf
ROOT
ATOM      1  C   UNL     1       5.639   2.632   0.108  1.00  0.00     0.127 C 
ENDROOT
BRANCH   1   2
ATOM      2  C   UNL     1       6.243   3.683   0.913  1.00  0.00     0.303 C 
ATOM      3  O   UNL     1       6.274   3.714   2.145  1.00  0.00    -0.252 OA
BRANCH   2   4
ATOM      4  O   UNL     1       6.843   4.753   0.232  1.00  0.00    -0.481 OA
ATOM      5  H   UNL     1       7.104   5.549   0.794  1.00  0.00     0.296 HD
ENDBRANCH   2   4
ENDBRANCH   1   2
BRANCH   1   6
ATOM      6  C   UNL     1       5.663   1.299   0.746  1.00  0.00     0.047 C 
BRANCH   6   7
ATOM      7  C   UNL     1       6.425   0.242   0.076  1.00  0.00    -0.043 A 
ATOM      8  C   UNL     1       6.545   0.199  -1.304  1.00  0.00     0.008 A 
ATOM      9  C   UNL     1       7.011  -0.764   0.799  1.00  0.00     0.054 A 
ATOM     10  C   UNL     1       7.230  -0.815  -1.937  1.00  0.00     0.051 A 
ATOM     11  C   UNL     1       7.704  -1.790   0.185  1.00  0.00     0.166 A 
ATOM     12  C   UNL     1       7.816  -1.819  -1.184  1.00  0.00     0.165 A 
ATOM     13  O   UNL     1       8.365  -2.890   0.703  1.00  0.00    -0.454 OA
ATOM     14  O   UNL     1       8.559  -2.957  -1.503  1.00  0.00    -0.454 OA
ATOM     15  C   UNL     1       8.640  -3.798  -0.375  1.00  0.00     0.468 C 
ENDBRANCH   6   7
ENDBRANCH   1   6
TORSDOF 4
ENDMDL
MODEL 5
REMARK VINA RESULT:      -7.3      2.499      6.012
REMARK SMILES O=C(O)CCc1ccc2c(c1)OCO2
REMARK SMILES IDX 4 1 2 2 1 3 3 4 5 6 6 7 7 8 11 9 8 10 10 11 9 12 12 13 14 14
REMARK SMILES IDX 13 15
REMARK H PARENT 3 5
REMARK Flexibility Score: inf
ROOT
ATOM      1  C   UNL     1       8.239  -2.735  -3.655  1.00  0.00     0.127 C 
ENDROOT
BRANCH   1   2
ATOM      2  C   UNL     1       9.340  -3.679  -3.545  1.00  0.00     0.303 C 
ATOM      3  O   UNL     1      10.522  -3.385  -3.355  1.00  0.00    -0.252 OA
BRANCH   2   4
ATOM      4  O   UNL     1       9.033  -5.044  -3.664  1.00  0.00    -0.481 OA
ATOM      5  H   UNL     1       8.213  -5.361  -3.170  1.00  0.00     0.296 HD
ENDBRANCH   2   4
ENDBRANCH   1   2
BRANCH   1   6
ATOM      6  C   UNL     1       8.532  -1.403  -3.085  1.00  0.00     0.047 C 
BRANCH   6   7
ATOM      7  C   UNL     1       7.735  -0.968  -1.936  1.00  0.00    -0.043 A 
ATOM      8  C   UNL     1       6.972   0.189  -1.979  1.00  0.00     0.008 A 
ATOM      9  C   UNL     1       7.751  -1.678  -0.764  1.00  0.00     0.054 A 
ATOM     10  C   UNL     1       6.251   0.618  -0.887  1.00  0.00     0.051 A 
ATOM     11  C   UNL     1       7.034  -1.267   0.344  1.00  0.00     0.166 A 
ATOM     12  C   UNL     1       6.282  -0.118   0.286  1.00  0.00     0.165 A 
ATOM     13  O   UNL     1       6.903  -1.814   1.608  1.00  0.00    -0.454 OA
ATOM     14  O   UNL     1       5.683   0.034   1.538  1.00  0.00    -0.454 OA
ATOM     15  C   UNL     1       6.301  -0.831   2.463  1.00  0.00     0.468 C 
ENDBRANCH   6   7
ENDBRANCH   1   6
TORSDOF 4
ENDMDL
