@<TRIPOS>MOLECULE
/home/cewinharhar/GITHUB/reincatalyze/data/processed/docking_pred/2023-May-17-1006_maxeplen10_maxtrainstep1000_seadep16_gamma099_lrac9e-4_lrcr1e-3_sub6/24731d809f1a519c36ca3c9a2574e1987901b3bd_ligand_6.pdbqt
 15 16 0 0 0
SMALL
GASTEIGER

@<TRIPOS>ATOM
      1  C          5.6790    2.5670   -0.0490 C.3     1  UNL1        0.1270
      2  C          6.1870    3.6290    0.8050 C.2     1  UNL1        0.3030
      3  O          6.1230    3.6520    2.0360 O.2     1  UNL1       -0.2520
      4  O          6.8020    4.7230    0.1770 O.3     1  UNL1       -0.4810
      5  H          7.7680    4.5990   -0.0870 H       1  UNL1        0.2960
      6  C          5.6590    1.2360    0.5960 C.3     1  UNL1        0.0470
      7  C          6.4420    0.1690   -0.0300 C.2     1  UNL1       -0.0430
      8  C          6.5810    0.0840   -1.4070 C.2     1  UNL1        0.0080
      9  C          7.0330   -0.8050    0.7310 C.2     1  UNL1        0.0540
     10  C          7.2870   -0.9400   -1.9990 C.2     1  UNL1        0.0510
     11  C          7.7470   -1.8410    0.1590 C.2     1  UNL1        0.1660
     12  C          7.8770   -1.9120   -1.2070 C.2     1  UNL1        0.1650
     13  O          8.4160   -2.9150    0.7190 O.2     1  UNL1       -0.4540
     14  O          8.6380   -3.0490   -1.4810 O.2     1  UNL1       -0.4540
     15  C          8.7160   -3.8520   -0.3260 C.3     1  UNL1        0.4680
@<TRIPOS>BOND
     1    10     8    1
     2    10    12    2
     3    14    12    1
     4    14    15    1
     5     8     7    2
     6    12    11    1
     7    15    13    1
     8     5     4    1
     9     1     6    1
    10     1     2    1
    11     7     6    1
    12     7     9    1
    13    11    13    1
    14    11     9    2
    15     4     2    1
    16     2     3    2
