@<TRIPOS>MOLECULE
/home/cewinharhar/GITHUB/reincatalyze/data/processed/docking_pred/2023-May-17-1006_maxeplen10_maxtrainstep1000_seadep16_gamma099_lrac9e-4_lrcr1e-3_sub6/24731d809f1a519c36ca3c9a2574e1987901b3bd_ligand_6.pdbqt
 15 16 0 0 0
SMALL
GASTEIGER

@<TRIPOS>ATOM
      1  C          8.3210   -0.3260   -2.8270 C.3     1  UNL1        0.1270
      2  C          8.4750   -1.7530   -3.0630 C.2     1  UNL1        0.3030
      3  O          9.5390   -2.3730   -3.0370 O.2     1  UNL1       -0.2520
      4  O          7.3130   -2.4880   -3.3430 O.3     1  UNL1       -0.4810
      5  H          7.2620   -2.9080   -4.2590 H       1  UNL1        0.2960
      6  C          8.7710    0.1140   -1.4890 C.3     1  UNL1        0.0470
      7  C          7.7900    0.0820   -0.4010 C.2     1  UNL1       -0.0430
      8  C          7.7210   -0.9850    0.4810 C.2     1  UNL1        0.0080
      9  C          6.8820    1.0960   -0.2480 C.2     1  UNL1        0.0540
     10  C          6.7760   -1.0330    1.4820 C.2     1  UNL1        0.0510
     11  C          5.9260    1.0700    0.7490 C.2     1  UNL1        0.1660
     12  C          5.8690    0.0060    1.6170 C.2     1  UNL1        0.1650
     13  O          4.9260    1.9650    1.0880 O.2     1  UNL1       -0.4540
     14  O          4.8160    0.2600    2.4980 O.2     1  UNL1       -0.4540
     15  C          4.0250    1.3110    1.9950 C.3     1  UNL1        0.4680
@<TRIPOS>BOND
     1     5     4    1
     2     4     2    1
     3     2     3    2
     4     2     1    1
     5     1     6    1
     6     6     7    1
     7     7     9    2
     8     7     8    1
     9     9    11    1
    10     8    10    2
    11    11    13    1
    12    11    12    2
    13    13    15    1
    14    10    12    1
    15    12    14    1
    16    15    14    1
