@<TRIPOS>MOLECULE
/home/cewinharhar/GITHUB/reincatalyze/data/processed/docking_pred/2023-May-17-1006_maxeplen10_maxtrainstep1000_seadep16_gamma099_lrac9e-4_lrcr1e-3_sub6/24731d809f1a519c36ca3c9a2574e1987901b3bd_ligand_6.pdbqt
 15 16 0 0 0
SMALL
GASTEIGER

@<TRIPOS>ATOM
      1  C          5.4060    2.8670    0.1500 C.3     1  UNL1        0.1270
      2  C          6.2410    3.8520    0.8190 C.2     1  UNL1        0.3030
      3  O          6.8610    4.7620    0.2650 O.2     1  UNL1       -0.2520
      4  O          6.3530    3.7610    2.2150 O.3     1  UNL1       -0.4810
      5  H          5.5790    4.1260    2.7490 H       1  UNL1        0.2960
      6  C          5.3350    1.5660    0.8480 C.3     1  UNL1        0.0470
      7  C          6.1090    0.4550    0.2900 C.2     1  UNL1       -0.0430
      8  C          6.5840   -0.5720    1.0920 C.2     1  UNL1        0.0080
      9  C          6.4220    0.4190   -1.0430 C.2     1  UNL1        0.0540
     10  C          7.3430   -1.5980    0.5740 C.2     1  UNL1        0.0510
     11  C          7.1810   -0.6010   -1.5840 C.2     1  UNL1        0.1660
     12  C          7.6440   -1.6130   -0.7780 C.2     1  UNL1        0.1650
     13  O          7.6110   -0.8390   -2.8780 O.2     1  UNL1       -0.4540
     14  O          8.3680   -2.4810   -1.5970 O.2     1  UNL1       -0.4540
     15  C          8.6220   -1.8580   -2.8350 C.3     1  UNL1        0.4680
@<TRIPOS>BOND
     1    13    15    1
     2    13    11    1
     3    15    14    1
     4    14    12    1
     5    11     9    1
     6    11    12    2
     7     9     7    2
     8    12    10    1
     9     1     2    1
    10     1     6    1
    11     3     2    2
    12     7     6    1
    13     7     8    1
    14    10     8    2
    15     2     4    1
    16     4     5    1
