@<TRIPOS>MOLECULE
/home/cewinharhar/GITHUB/reincatalyze/data/processed/docking_pred/2023-May-17-1006_maxeplen10_maxtrainstep1000_seadep16_gamma099_lrac9e-4_lrcr1e-3_sub6/2481e5cfc04dcfc4c7035fb6b8b96c3a7d203934_ligand_6.pdbqt
 15 16 0 0 0
SMALL
GASTEIGER

@<TRIPOS>ATOM
      1  C          5.6390    2.5610    0.0330 C.3     1  UNL1        0.1270
      2  C          6.1750    3.6450    0.8410 C.2     1  UNL1        0.3030
      3  O          6.1350    3.7100    2.0710 O.2     1  UNL1       -0.2520
      4  O          6.7920    4.7090    0.1650 O.3     1  UNL1       -0.4810
      5  H          6.3910    4.9630   -0.7250 H       1  UNL1        0.2960
      6  C          5.6790    1.2410    0.6960 C.3     1  UNL1        0.0470
      7  C          6.4400    0.1750    0.0400 C.2     1  UNL1       -0.0430
      8  C          6.5370    0.0990   -1.3410 C.2     1  UNL1        0.0080
      9  C          7.0510   -0.8050    0.7760 C.2     1  UNL1        0.0540
     10  C          7.2210   -0.9220   -1.9610 C.2     1  UNL1        0.0510
     11  C          7.7440   -1.8390    0.1760 C.2     1  UNL1        0.1660
     12  C          7.8320   -1.9010   -1.1940 C.2     1  UNL1        0.1650
     13  O          8.4270   -2.9180    0.7080 O.2     1  UNL1       -0.4540
     14  O          8.5820   -3.0390   -1.4980 O.2     1  UNL1       -0.4540
     15  C          8.6930   -3.8500   -0.3520 C.3     1  UNL1        0.4680
@<TRIPOS>BOND
     1    10     8    1
     2    10    12    2
     3    14    12    1
     4    14    15    1
     5     8     7    2
     6    12    11    1
     7     5     4    1
     8    15    13    1
     9     1     6    1
    10     1     2    1
    11     7     6    1
    12     7     9    1
    13     4     2    1
    14    11    13    1
    15    11     9    2
    16     2     3    2
