@<TRIPOS>MOLECULE
/home/cewinharhar/GITHUB/reincatalyze/data/processed/docking_pred/2023-May-17-1006_maxeplen10_maxtrainstep1000_seadep16_gamma099_lrac9e-4_lrcr1e-3_sub6/2481e5cfc04dcfc4c7035fb6b8b96c3a7d203934_ligand_6.pdbqt
 15 16 0 0 0
SMALL
GASTEIGER

@<TRIPOS>ATOM
      1  C          5.4320    2.8730    0.1110 C.3     1  UNL1        0.1270
      2  C          6.2590    3.8580    0.7920 C.2     1  UNL1        0.3030
      3  O          6.9130    4.7470    0.2430 O.2     1  UNL1       -0.2520
      4  O          6.3170    3.7920    2.1920 O.3     1  UNL1       -0.4810
      5  H          6.8570    4.5110    2.6500 H       1  UNL1        0.2960
      6  C          5.3720    1.5640    0.7960 C.3     1  UNL1        0.0470
      7  C          6.1470    0.4620    0.2200 C.2     1  UNL1       -0.0430
      8  C          6.5870   -0.5980    0.9970 C.2     1  UNL1        0.0080
      9  C          6.4940    0.4680   -1.1050 C.2     1  UNL1        0.0540
     10  C          7.3460   -1.6160    0.4650 C.2     1  UNL1        0.0510
     11  C          7.2540   -0.5430   -1.6610 C.2     1  UNL1        0.1660
     12  C          7.6830   -1.5880   -0.8790 C.2     1  UNL1        0.1650
     13  O          7.7150   -0.7430   -2.9510 O.2     1  UNL1       -0.4540
     14  O          8.4170   -2.4370   -1.7080 O.2     1  UNL1       -0.4540
     15  C          8.7120   -1.7760   -2.9170 C.3     1  UNL1        0.4680
@<TRIPOS>BOND
     1    13    15    1
     2    13    11    1
     3    15    14    1
     4    14    12    1
     5    11     9    1
     6    11    12    2
     7     9     7    2
     8    12    10    1
     9     1     2    1
    10     1     6    1
    11     7     6    1
    12     7     8    1
    13     3     2    2
    14    10     8    2
    15     2     4    1
    16     4     5    1
