@<TRIPOS>MOLECULE
/home/cewinharhar/GITHUB/reincatalyze/data/processed/docking_pred/2023-May-17-1006_maxeplen10_maxtrainstep1000_seadep16_gamma099_lrac9e-4_lrcr1e-3_sub6/2481e5cfc04dcfc4c7035fb6b8b96c3a7d203934_ligand_6.pdbqt
 15 16 0 0 0
SMALL
GASTEIGER

@<TRIPOS>ATOM
      1  C          8.3150   -0.3230   -2.8660 C.3     1  UNL1        0.1270
      2  C          8.4840   -1.7530   -3.0750 C.2     1  UNL1        0.3030
      3  O          9.5560   -2.3600   -3.0500 O.2     1  UNL1       -0.2520
      4  O          7.3280   -2.5080   -3.3260 O.3     1  UNL1       -0.4810
      5  H          6.4700   -1.9880   -3.4280 H       1  UNL1        0.2960
      6  C          8.7670    0.1470   -1.5390 C.3     1  UNL1        0.0470
      7  C          7.7970    0.1110   -0.4420 C.2     1  UNL1       -0.0430
      8  C          7.7450   -0.9540    0.4450 C.2     1  UNL1        0.0080
      9  C          6.8820    1.1180   -0.2830 C.2     1  UNL1        0.0540
     10  C          6.8100   -1.0060    1.4550 C.2     1  UNL1        0.0510
     11  C          5.9360    1.0870    0.7240 C.2     1  UNL1        0.1660
     12  C          5.8960    0.0260    1.5960 C.2     1  UNL1        0.1650
     13  O          4.9320    1.9750    1.0690 O.2     1  UNL1       -0.4540
     14  O          4.8500    0.2740    2.4860 O.2     1  UNL1       -0.4540
     15  C          4.0460    1.3170    1.9860 C.3     1  UNL1        0.4680
@<TRIPOS>BOND
     1     5     4    1
     2     4     2    1
     3     2     3    2
     4     2     1    1
     5     1     6    1
     6     6     7    1
     7     7     9    2
     8     7     8    1
     9     9    11    1
    10     8    10    2
    11    11    13    1
    12    11    12    2
    13    13    15    1
    14    10    12    1
    15    12    14    1
    16    15    14    1
