@<TRIPOS>MOLECULE
/home/cewinharhar/GITHUB/reincatalyze/data/processed/docking_pred/2023-May-17-1006_maxeplen10_maxtrainstep1000_seadep16_gamma099_lrac9e-4_lrcr1e-3_sub6/2481e5cfc04dcfc4c7035fb6b8b96c3a7d203934_ligand_6.pdbqt
 15 16 0 0 0
SMALL
GASTEIGER

@<TRIPOS>ATOM
      1  C          6.4170    1.2870    0.7150 C.3     1  UNL1        0.1270
      2  C          5.1730    1.3190    1.4690 C.2     1  UNL1        0.3030
      3  O          4.2670    2.1400    1.3220 O.2     1  UNL1       -0.2520
      4  O          4.9880    0.3310    2.4480 O.3     1  UNL1       -0.4810
      5  H          4.9440    0.6530    3.4030 H       1  UNL1        0.2960
      6  C          6.2550    0.8650   -0.6920 C.3     1  UNL1        0.0470
      7  C          6.9950   -0.3200   -1.1340 C.2     1  UNL1       -0.0430
      8  C          7.2620   -0.5490   -2.4740 C.2     1  UNL1        0.0080
      9  C          7.4120   -1.2610   -0.2310 C.2     1  UNL1        0.0540
     10  C          7.9260   -1.6810   -2.8940 C.2     1  UNL1        0.0510
     11  C          8.0800   -2.4040   -0.6290 C.2     1  UNL1        0.1660
     12  C          8.3390   -2.6170   -1.9610 C.2     1  UNL1        0.1650
     13  O          8.5860   -3.4710    0.0930 O.2     1  UNL1       -0.4540
     14  O          9.0140   -3.8360   -2.0500 O.2     1  UNL1       -0.4540
     15  C          8.9010   -4.5270   -0.8270 C.3     1  UNL1        0.4680
@<TRIPOS>BOND
     1    10     8    1
     2    10    12    2
     3     8     7    2
     4    14    12    1
     5    14    15    1
     6    12    11    1
     7     7     6    1
     8     7     9    1
     9    15    13    1
    10     6     1    1
    11    11     9    2
    12    11    13    1
    13     1     2    1
    14     3     2    2
    15     2     4    1
    16     4     5    1
