MODEL 1
REMARK VINA RESULT:      -7.6      0.000      0.000
REMARK SMILES O=C(O)CCc1ccc2c(c1)OCO2
REMARK SMILES IDX 4 1 2 2 1 3 3 4 5 6 6 7 7 8 11 9 8 10 10 11 9 12 12 13 14 14
REMARK SMILES IDX 13 15
REMARK H PARENT 3 5
REMARK Flexibility Score: inf
ROOT
ATOM      1  C   UNL     1       5.432   2.873   0.111  1.00  0.00     0.127 C 
ENDROOT
BRANCH   1   2
ATOM      2  C   UNL     1       6.259   3.858   0.792  1.00  0.00     0.303 C 
ATOM      3  O   UNL     1       6.913   4.747   0.243  1.00  0.00    -0.252 OA
BRANCH   2   4
ATOM      4  O   UNL     1       6.317   3.792   2.192  1.00  0.00    -0.481 OA
ATOM      5  H   UNL     1       6.857   4.511   2.650  1.00  0.00     0.296 HD
ENDBRANCH   2   4
ENDBRANCH   1   2
BRANCH   1   6
ATOM      6  C   UNL     1       5.372   1.564   0.796  1.00  0.00     0.047 C 
BRANCH   6   7
ATOM      7  C   UNL     1       6.147   0.462   0.220  1.00  0.00    -0.043 A 
ATOM      8  C   UNL     1       6.587  -0.598   0.997  1.00  0.00     0.008 A 
ATOM      9  C   UNL     1       6.494   0.468  -1.105  1.00  0.00     0.054 A 
ATOM     10  C   UNL     1       7.346  -1.616   0.465  1.00  0.00     0.051 A 
ATOM     11  C   UNL     1       7.254  -0.543  -1.661  1.00  0.00     0.166 A 
ATOM     12  C   UNL     1       7.683  -1.588  -0.879  1.00  0.00     0.165 A 
ATOM     13  O   UNL     1       7.715  -0.743  -2.951  1.00  0.00    -0.454 OA
ATOM     14  O   UNL     1       8.417  -2.437  -1.708  1.00  0.00    -0.454 OA
ATOM     15  C   UNL     1       8.712  -1.776  -2.917  1.00  0.00     0.468 C 
ENDBRANCH   6   7
ENDBRANCH   1   6
TORSDOF 4
ENDMDL
MODEL 2
REMARK VINA RESULT:      -7.6      2.129      2.520
REMARK SMILES O=C(O)CCc1ccc2c(c1)OCO2
REMARK SMILES IDX 4 1 2 2 1 3 3 4 5 6 6 7 7 8 11 9 8 10 10 11 9 12 12 13 14 14
REMARK SMILES IDX 13 15
REMARK H PARENT 3 5
REMARK Flexibility Score: inf
ROOT
ATOM      1  C   UNL     1       4.714   1.877   0.686  1.00  0.00     0.127 C 
ENDROOT
BRANCH   1   2
ATOM      2  C   UNL     1       4.399   1.165   1.915  1.00  0.00     0.303 C 
ATOM      3  O   UNL     1       5.118   0.327   2.463  1.00  0.00    -0.252 OA
BRANCH   2   4
ATOM      4  O   UNL     1       3.172   1.455   2.531  1.00  0.00    -0.481 OA
ATOM      5  H   UNL     1       3.220   1.945   3.411  1.00  0.00     0.296 HD
ENDBRANCH   2   4
ENDBRANCH   1   2
BRANCH   1   6
ATOM      6  C   UNL     1       6.143   2.232   0.548  1.00  0.00     0.047 C 
BRANCH   6   7
ATOM      7  C   UNL     1       6.993   1.329  -0.230  1.00  0.00    -0.043 A 
ATOM      8  C   UNL     1       8.352   1.560  -0.377  1.00  0.00     0.008 A 
ATOM      9  C   UNL     1       6.459   0.243  -0.871  1.00  0.00     0.054 A 
ATOM     10  C   UNL     1       9.146   0.731  -1.139  1.00  0.00     0.051 A 
ATOM     11  C   UNL     1       7.236  -0.603  -1.640  1.00  0.00     0.166 A 
ATOM     12  C   UNL     1       8.582  -0.362  -1.776  1.00  0.00     0.165 A 
ATOM     13  O   UNL     1       6.919  -1.739  -2.364  1.00  0.00    -0.454 OA
ATOM     14  O   UNL     1       9.091  -1.369  -2.598  1.00  0.00    -0.454 OA
ATOM     15  C   UNL     1       8.026  -2.048  -3.223  1.00  0.00     0.468 C 
ENDBRANCH   6   7
ENDBRANCH   1   6
TORSDOF 4
ENDMDL
MODEL 3
REMARK VINA RESULT:      -7.5      1.972      2.876
REMARK SMILES O=C(O)CCc1ccc2c(c1)OCO2
REMARK SMILES IDX 4 1 2 2 1 3 3 4 5 6 6 7 7 8 11 9 8 10 10 11 9 12 12 13 14 14
REMARK SMILES IDX 13 15
REMARK H PARENT 3 5
REMARK Flexibility Score: inf
ROOT
ATOM      1  C   UNL     1       6.417   1.287   0.715  1.00  0.00     0.127 C 
ENDROOT
BRANCH   1   2
ATOM      2  C   UNL     1       5.173   1.319   1.469  1.00  0.00     0.303 C 
ATOM      3  O   UNL     1       4.267   2.140   1.322  1.00  0.00    -0.252 OA
BRANCH   2   4
ATOM      4  O   UNL     1       4.988   0.331   2.448  1.00  0.00    -0.481 OA
ATOM      5  H   UNL     1       4.944   0.653   3.403  1.00  0.00     0.296 HD
ENDBRANCH   2   4
ENDBRANCH   1   2
BRANCH   1   6
ATOM      6  C   UNL     1       6.255   0.865  -0.692  1.00  0.00     0.047 C 
BRANCH   6   7
ATOM      7  C   UNL     1       6.995  -0.320  -1.134  1.00  0.00    -0.043 A 
ATOM      8  C   UNL     1       7.262  -0.549  -2.474  1.00  0.00     0.008 A 
ATOM      9  C   UNL     1       7.412  -1.261  -0.231  1.00  0.00     0.054 A 
ATOM     10  C   UNL     1       7.926  -1.681  -2.894  1.00  0.00     0.051 A 
ATOM     11  C   UNL     1       8.080  -2.404  -0.629  1.00  0.00     0.166 A 
ATOM     12  C   UNL     1       8.339  -2.617  -1.961  1.00  0.00     0.165 A 
ATOM     13  O   UNL     1       8.586  -3.471   0.093  1.00  0.00    -0.454 OA
ATOM     14  O   UNL     1       9.014  -3.836  -2.050  1.00  0.00    -0.454 OA
ATOM     15  C   UNL     1       8.901  -4.527  -0.827  1.00  0.00     0.468 C 
ENDBRANCH   6   7
ENDBRANCH   1   6
TORSDOF 4
ENDMDL
MODEL 4
REMARK VINA RESULT:      -7.4      1.030      2.139
REMARK SMILES O=C(O)CCc1ccc2c(c1)OCO2
REMARK SMILES IDX 4 1 2 2 1 3 3 4 5 6 6 7 7 8 11 9 8 10 10 11 9 12 12 13 14 14
REMARK SMILES IDX 13 15
REMARK H PARENT 3 5
REMARK Flexibility Score: inf
ROOT
ATOM      1  C   UNL     1       5.639   2.561   0.033  1.00  0.00     0.127 C 
ENDROOT
BRANCH   1   2
ATOM      2  C   UNL     1       6.175   3.645   0.841  1.00  0.00     0.303 C 
ATOM      3  O   UNL     1       6.135   3.710   2.071  1.00  0.00    -0.252 OA
BRANCH   2   4
ATOM      4  O   UNL     1       6.792   4.709   0.165  1.00  0.00    -0.481 OA
ATOM      5  H   UNL     1       6.391   4.963  -0.725  1.00  0.00     0.296 HD
ENDBRANCH   2   4
ENDBRANCH   1   2
BRANCH   1   6
ATOM      6  C   UNL     1       5.679   1.241   0.696  1.00  0.00     0.047 C 
BRANCH   6   7
ATOM      7  C   UNL     1       6.440   0.175   0.040  1.00  0.00    -0.043 A 
ATOM      8  C   UNL     1       6.537   0.099  -1.341  1.00  0.00     0.008 A 
ATOM      9  C   UNL     1       7.051  -0.805   0.776  1.00  0.00     0.054 A 
ATOM     10  C   UNL     1       7.221  -0.922  -1.961  1.00  0.00     0.051 A 
ATOM     11  C   UNL     1       7.744  -1.839   0.176  1.00  0.00     0.166 A 
ATOM     12  C   UNL     1       7.832  -1.901  -1.194  1.00  0.00     0.165 A 
ATOM     13  O   UNL     1       8.427  -2.918   0.708  1.00  0.00    -0.454 OA
ATOM     14  O   UNL     1       8.582  -3.039  -1.498  1.00  0.00    -0.454 OA
ATOM     15  C   UNL     1       8.693  -3.850  -0.352  1.00  0.00     0.468 C 
ENDBRANCH   6   7
ENDBRANCH   1   6
TORSDOF 4
ENDMDL
MODEL 5
REMARK VINA RESULT:      -7.4      1.790      5.288
REMARK SMILES O=C(O)CCc1ccc2c(c1)OCO2
REMARK SMILES IDX 4 1 2 2 1 3 3 4 5 6 6 7 7 8 11 9 8 10 10 11 9 12 12 13 14 14
REMARK SMILES IDX 13 15
REMARK H PARENT 3 5
REMARK Flexibility Score: inf
ROOT
ATOM      1  C   UNL     1       8.315  -0.323  -2.866  1.00  0.00     0.127 C 
ENDROOT
BRANCH   1   2
ATOM      2  C   UNL     1       8.484  -1.753  -3.075  1.00  0.00     0.303 C 
ATOM      3  O   UNL     1       9.556  -2.360  -3.050  1.00  0.00    -0.252 OA
BRANCH   2   4
ATOM      4  O   UNL     1       7.328  -2.508  -3.326  1.00  0.00    -0.481 OA
ATOM      5  H   UNL     1       6.470  -1.988  -3.428  1.00  0.00     0.296 HD
ENDBRANCH   2   4
ENDBRANCH   1   2
BRANCH   1   6
ATOM      6  C   UNL     1       8.767   0.147  -1.539  1.00  0.00     0.047 C 
BRANCH   6   7
ATOM      7  C   UNL     1       7.797   0.111  -0.442  1.00  0.00    -0.043 A 
ATOM      8  C   UNL     1       7.745  -0.954   0.445  1.00  0.00     0.008 A 
ATOM      9  C   UNL     1       6.882   1.118  -0.283  1.00  0.00     0.054 A 
ATOM     10  C   UNL     1       6.810  -1.006   1.455  1.00  0.00     0.051 A 
ATOM     11  C   UNL     1       5.936   1.087   0.724  1.00  0.00     0.166 A 
ATOM     12  C   UNL     1       5.896   0.026   1.596  1.00  0.00     0.165 A 
ATOM     13  O   UNL     1       4.932   1.975   1.069  1.00  0.00    -0.454 OA
ATOM     14  O   UNL     1       4.850   0.274   2.486  1.00  0.00    -0.454 OA
ATOM     15  C   UNL     1       4.046   1.317   1.986  1.00  0.00     0.468 C 
ENDBRANCH   6   7
ENDBRANCH   1   6
TORSDOF 4
ENDMDL
