MODEL 1
REMARK VINA RESULT:      -7.7      0.000      0.000
REMARK SMILES O=C(O)CCc1ccc2c(c1)OCO2
REMARK SMILES IDX 4 1 2 2 1 3 3 4 5 6 6 7 7 8 11 9 8 10 10 11 9 12 12 13 14 14
REMARK SMILES IDX 13 15
REMARK H PARENT 3 5
REMARK Flexibility Score: inf
ROOT
ATOM      1  C   UNL     1       5.414   2.873   0.128  1.00  0.00     0.127 C 
ENDROOT
BRANCH   1   2
ATOM      2  C   UNL     1       6.239   3.853   0.818  1.00  0.00     0.303 C 
ATOM      3  O   UNL     1       6.875   4.761   0.279  1.00  0.00    -0.252 OA
BRANCH   2   4
ATOM      4  O   UNL     1       6.318   3.759   2.216  1.00  0.00    -0.481 OA
ATOM      5  H   UNL     1       7.246   3.750   2.609  1.00  0.00     0.296 HD
ENDBRANCH   2   4
ENDBRANCH   1   2
BRANCH   1   6
ATOM      6  C   UNL     1       5.332   1.567   0.815  1.00  0.00     0.047 C 
BRANCH   6   7
ATOM      7  C   UNL     1       6.119   0.461   0.264  1.00  0.00    -0.043 A 
ATOM      8  C   UNL     1       6.576  -0.573   1.066  1.00  0.00     0.008 A 
ATOM      9  C   UNL     1       6.460   0.438  -1.062  1.00  0.00     0.054 A 
ATOM     10  C   UNL     1       7.346  -1.595   0.556  1.00  0.00     0.051 A 
ATOM     11  C   UNL     1       7.232  -0.577  -1.596  1.00  0.00     0.166 A 
ATOM     12  C   UNL     1       7.677  -1.596  -0.790  1.00  0.00     0.165 A 
ATOM     13  O   UNL     1       7.690  -0.803  -2.882  1.00  0.00    -0.454 OA
ATOM     14  O   UNL     1       8.419  -2.457  -1.600  1.00  0.00    -0.454 OA
ATOM     15  C   UNL     1       8.700  -1.822  -2.826  1.00  0.00     0.468 C 
ENDBRANCH   6   7
ENDBRANCH   1   6
TORSDOF 4
ENDMDL
MODEL 2
REMARK VINA RESULT:      -7.6      2.133      2.522
REMARK SMILES O=C(O)CCc1ccc2c(c1)OCO2
REMARK SMILES IDX 4 1 2 2 1 3 3 4 5 6 6 7 7 8 11 9 8 10 10 11 9 12 12 13 14 14
REMARK SMILES IDX 13 15
REMARK H PARENT 3 5
REMARK Flexibility Score: inf
ROOT
ATOM      1  C   UNL     1       4.714   1.864   0.686  1.00  0.00     0.127 C 
ENDROOT
BRANCH   1   2
ATOM      2  C   UNL     1       4.408   1.156   1.920  1.00  0.00     0.303 C 
ATOM      3  O   UNL     1       5.135   0.327   2.470  1.00  0.00    -0.252 OA
BRANCH   2   4
ATOM      4  O   UNL     1       3.180   1.440   2.538  1.00  0.00    -0.481 OA
ATOM      5  H   UNL     1       3.072   2.373   2.905  1.00  0.00     0.296 HD
ENDBRANCH   2   4
ENDBRANCH   1   2
BRANCH   1   6
ATOM      6  C   UNL     1       6.140   2.225   0.539  1.00  0.00     0.047 C 
BRANCH   6   7
ATOM      7  C   UNL     1       6.992   1.320  -0.235  1.00  0.00    -0.043 A 
ATOM      8  C   UNL     1       8.351   1.552  -0.381  1.00  0.00     0.008 A 
ATOM      9  C   UNL     1       6.459   0.232  -0.874  1.00  0.00     0.054 A 
ATOM     10  C   UNL     1       9.146   0.722  -1.139  1.00  0.00     0.051 A 
ATOM     11  C   UNL     1       7.238  -0.615  -1.639  1.00  0.00     0.166 A 
ATOM     12  C   UNL     1       8.584  -0.373  -1.774  1.00  0.00     0.165 A 
ATOM     13  O   UNL     1       6.922  -1.753  -2.360  1.00  0.00    -0.454 OA
ATOM     14  O   UNL     1       9.094  -1.382  -2.592  1.00  0.00    -0.454 OA
ATOM     15  C   UNL     1       8.031  -2.064  -3.217  1.00  0.00     0.468 C 
ENDBRANCH   6   7
ENDBRANCH   1   6
TORSDOF 4
ENDMDL
MODEL 3
REMARK VINA RESULT:      -7.4      1.961      2.867
REMARK SMILES O=C(O)CCc1ccc2c(c1)OCO2
REMARK SMILES IDX 4 1 2 2 1 3 3 4 5 6 6 7 7 8 11 9 8 10 10 11 9 12 12 13 14 14
REMARK SMILES IDX 13 15
REMARK H PARENT 3 5
REMARK Flexibility Score: inf
ROOT
ATOM      1  C   UNL     1       6.388   1.340   0.634  1.00  0.00     0.127 C 
ENDROOT
BRANCH   1   2
ATOM      2  C   UNL     1       5.200   1.293   1.472  1.00  0.00     0.303 C 
ATOM      3  O   UNL     1       4.246   2.071   1.408  1.00  0.00    -0.252 OA
BRANCH   2   4
ATOM      4  O   UNL     1       5.132   0.277   2.437  1.00  0.00    -0.481 OA
ATOM      5  H   UNL     1       5.970   0.116   2.975  1.00  0.00     0.296 HD
ENDBRANCH   2   4
ENDBRANCH   1   2
BRANCH   1   6
ATOM      6  C   UNL     1       6.170   0.850  -0.744  1.00  0.00     0.047 C 
BRANCH   6   7
ATOM      7  C   UNL     1       6.946  -0.312  -1.180  1.00  0.00    -0.043 A 
ATOM      8  C   UNL     1       7.264  -0.512  -2.515  1.00  0.00     0.008 A 
ATOM      9  C   UNL     1       7.350  -1.262  -0.280  1.00  0.00     0.054 A 
ATOM     10  C   UNL     1       7.963  -1.623  -2.931  1.00  0.00     0.051 A 
ATOM     11  C   UNL     1       8.053  -2.385  -0.675  1.00  0.00     0.166 A 
ATOM     12  C   UNL     1       8.362  -2.569  -2.001  1.00  0.00     0.165 A 
ATOM     13  O   UNL     1       8.554  -3.456   0.045  1.00  0.00    -0.454 OA
ATOM     14  O   UNL     1       9.063  -3.773  -2.088  1.00  0.00    -0.454 OA
ATOM     15  C   UNL     1       8.921  -4.488  -0.883  1.00  0.00     0.468 C 
ENDBRANCH   6   7
ENDBRANCH   1   6
TORSDOF 4
ENDMDL
MODEL 4
REMARK VINA RESULT:      -7.4      0.934      2.104
REMARK SMILES O=C(O)CCc1ccc2c(c1)OCO2
REMARK SMILES IDX 4 1 2 2 1 3 3 4 5 6 6 7 7 8 11 9 8 10 10 11 9 12 12 13 14 14
REMARK SMILES IDX 13 15
REMARK H PARENT 3 5
REMARK Flexibility Score: inf
ROOT
ATOM      1  C   UNL     1       5.406   2.820   0.193  1.00  0.00     0.127 C 
ENDROOT
BRANCH   1   2
ATOM      2  C   UNL     1       6.242   3.759   0.924  1.00  0.00     0.303 C 
ATOM      3  O   UNL     1       6.448   3.739   2.139  1.00  0.00    -0.252 OA
BRANCH   2   4
ATOM      4  O   UNL     1       6.868   4.775   0.186  1.00  0.00    -0.481 OA
ATOM      5  H   UNL     1       6.272   5.316  -0.422  1.00  0.00     0.296 HD
ENDBRANCH   2   4
ENDBRANCH   1   2
BRANCH   1   6
ATOM      6  C   UNL     1       5.365   1.465   0.784  1.00  0.00     0.047 C 
BRANCH   6   7
ATOM      7  C   UNL     1       6.220   0.439   0.184  1.00  0.00    -0.043 A 
ATOM      8  C   UNL     1       6.526   0.450  -1.168  1.00  0.00     0.008 A 
ATOM      9  C   UNL     1       6.714  -0.591   0.941  1.00  0.00     0.054 A 
ATOM     10  C   UNL     1       7.301  -0.535  -1.740  1.00  0.00     0.051 A 
ATOM     11  C   UNL     1       7.493  -1.589   0.389  1.00  0.00     0.166 A 
ATOM     12  C   UNL     1       7.790  -1.565  -0.952  1.00  0.00     0.165 A 
ATOM     13  O   UNL     1       8.090  -2.705   0.950  1.00  0.00    -0.454 OA
ATOM     14  O   UNL     1       8.580  -2.686  -1.211  1.00  0.00    -0.454 OA
ATOM     15  C   UNL     1       8.517  -3.569  -0.114  1.00  0.00     0.468 C 
ENDBRANCH   6   7
ENDBRANCH   1   6
TORSDOF 4
ENDMDL
MODEL 5
REMARK VINA RESULT:      -7.4      1.789      5.279
REMARK SMILES O=C(O)CCc1ccc2c(c1)OCO2
REMARK SMILES IDX 4 1 2 2 1 3 3 4 5 6 6 7 7 8 11 9 8 10 10 11 9 12 12 13 14 14
REMARK SMILES IDX 13 15
REMARK H PARENT 3 5
REMARK Flexibility Score: inf
ROOT
ATOM      1  C   UNL     1       8.303  -0.317  -2.849  1.00  0.00     0.127 C 
ENDROOT
BRANCH   1   2
ATOM      2  C   UNL     1       8.462  -1.746  -3.071  1.00  0.00     0.303 C 
ATOM      3  O   UNL     1       9.528  -2.363  -3.031  1.00  0.00    -0.252 OA
BRANCH   2   4
ATOM      4  O   UNL     1       7.305  -2.487  -3.355  1.00  0.00    -0.481 OA
ATOM      5  H   UNL     1       6.487  -1.954  -3.609  1.00  0.00     0.296 HD
ENDBRANCH   2   4
ENDBRANCH   1   2
BRANCH   1   6
ATOM      6  C   UNL     1       8.759   0.137  -1.517  1.00  0.00     0.047 C 
BRANCH   6   7
ATOM      7  C   UNL     1       7.789   0.099  -0.421  1.00  0.00    -0.043 A 
ATOM      8  C   UNL     1       7.740  -0.965   0.467  1.00  0.00     0.008 A 
ATOM      9  C   UNL     1       6.871   1.104  -0.262  1.00  0.00     0.054 A 
ATOM     10  C   UNL     1       6.805  -1.019   1.477  1.00  0.00     0.051 A 
ATOM     11  C   UNL     1       5.924   1.071   0.744  1.00  0.00     0.166 A 
ATOM     12  C   UNL     1       5.888   0.010   1.617  1.00  0.00     0.165 A 
ATOM     13  O   UNL     1       4.918   1.956   1.088  1.00  0.00    -0.454 OA
ATOM     14  O   UNL     1       4.841   0.256   2.506  1.00  0.00    -0.454 OA
ATOM     15  C   UNL     1       4.033   1.296   2.006  1.00  0.00     0.468 C 
ENDBRANCH   6   7
ENDBRANCH   1   6
TORSDOF 4
ENDMDL
