@<TRIPOS>MOLECULE
/home/cewinharhar/GITHUB/reincatalyze/data/processed/docking_pred/2023-May-17-1006_maxeplen10_maxtrainstep1000_seadep16_gamma099_lrac9e-4_lrcr1e-3_sub6/25ea22f039de2039e6eb222be1b9c38742a73e8b_ligand_6.pdbqt
 15 16 0 0 0
SMALL
GASTEIGER

@<TRIPOS>ATOM
      1  C          6.3880    1.3400    0.6340 C.3     1  UNL1        0.1270
      2  C          5.2000    1.2930    1.4720 C.2     1  UNL1        0.3030
      3  O          4.2460    2.0710    1.4080 O.2     1  UNL1       -0.2520
      4  O          5.1320    0.2770    2.4370 O.3     1  UNL1       -0.4810
      5  H          5.9700    0.1160    2.9750 H       1  UNL1        0.2960
      6  C          6.1700    0.8500   -0.7440 C.3     1  UNL1        0.0470
      7  C          6.9460   -0.3120   -1.1800 C.2     1  UNL1       -0.0430
      8  C          7.2640   -0.5120   -2.5150 C.2     1  UNL1        0.0080
      9  C          7.3500   -1.2620   -0.2800 C.2     1  UNL1        0.0540
     10  C          7.9630   -1.6230   -2.9310 C.2     1  UNL1        0.0510
     11  C          8.0530   -2.3850   -0.6750 C.2     1  UNL1        0.1660
     12  C          8.3620   -2.5690   -2.0010 C.2     1  UNL1        0.1650
     13  O          8.5540   -3.4560    0.0450 O.2     1  UNL1       -0.4540
     14  O          9.0630   -3.7730   -2.0880 O.2     1  UNL1       -0.4540
     15  C          8.9210   -4.4880   -0.8830 C.3     1  UNL1        0.4680
@<TRIPOS>BOND
     1    10     8    1
     2    10    12    2
     3     8     7    2
     4    14    12    1
     5    14    15    1
     6    12    11    1
     7     7     6    1
     8     7     9    1
     9    15    13    1
    10     6     1    1
    11    11     9    2
    12    11    13    1
    13     1     2    1
    14     3     2    2
    15     2     4    1
    16     4     5    1
