@<TRIPOS>MOLECULE
/home/cewinharhar/GITHUB/reincatalyze/data/processed/docking_pred/2023-May-17-1006_maxeplen10_maxtrainstep1000_seadep16_gamma099_lrac9e-4_lrcr1e-3_sub6/25ea22f039de2039e6eb222be1b9c38742a73e8b_ligand_6.pdbqt
 15 16 0 0 0
SMALL
GASTEIGER

@<TRIPOS>ATOM
      1  C          5.4060    2.8200    0.1930 C.3     1  UNL1        0.1270
      2  C          6.2420    3.7590    0.9240 C.2     1  UNL1        0.3030
      3  O          6.4480    3.7390    2.1390 O.2     1  UNL1       -0.2520
      4  O          6.8680    4.7750    0.1860 O.3     1  UNL1       -0.4810
      5  H          6.2720    5.3160   -0.4220 H       1  UNL1        0.2960
      6  C          5.3650    1.4650    0.7840 C.3     1  UNL1        0.0470
      7  C          6.2200    0.4390    0.1840 C.2     1  UNL1       -0.0430
      8  C          6.5260    0.4500   -1.1680 C.2     1  UNL1        0.0080
      9  C          6.7140   -0.5910    0.9410 C.2     1  UNL1        0.0540
     10  C          7.3010   -0.5350   -1.7400 C.2     1  UNL1        0.0510
     11  C          7.4930   -1.5890    0.3890 C.2     1  UNL1        0.1660
     12  C          7.7900   -1.5650   -0.9520 C.2     1  UNL1        0.1650
     13  O          8.0900   -2.7050    0.9500 O.2     1  UNL1       -0.4540
     14  O          8.5800   -2.6860   -1.2110 O.2     1  UNL1       -0.4540
     15  C          8.5170   -3.5690   -0.1140 C.3     1  UNL1        0.4680
@<TRIPOS>BOND
     1    10     8    1
     2    10    12    2
     3    14    12    1
     4    14    15    1
     5     8     7    2
     6    12    11    1
     7     5     4    1
     8    15    13    1
     9     7     6    1
    10     7     9    1
    11     4     2    1
    12     1     6    1
    13     1     2    1
    14    11     9    2
    15    11    13    1
    16     2     3    2
