@<TRIPOS>MOLECULE
/home/cewinharhar/GITHUB/reincatalyze/data/processed/docking_pred/2023-May-17-1006_maxeplen10_maxtrainstep1000_seadep16_gamma099_lrac9e-4_lrcr1e-3_sub6/25ea22f039de2039e6eb222be1b9c38742a73e8b_ligand_6.pdbqt
 15 16 0 0 0
SMALL
GASTEIGER

@<TRIPOS>ATOM
      1  C          8.3030   -0.3170   -2.8490 C.3     1  UNL1        0.1270
      2  C          8.4620   -1.7460   -3.0710 C.2     1  UNL1        0.3030
      3  O          9.5280   -2.3630   -3.0310 O.2     1  UNL1       -0.2520
      4  O          7.3050   -2.4870   -3.3550 O.3     1  UNL1       -0.4810
      5  H          6.4870   -1.9540   -3.6090 H       1  UNL1        0.2960
      6  C          8.7590    0.1370   -1.5170 C.3     1  UNL1        0.0470
      7  C          7.7890    0.0990   -0.4210 C.2     1  UNL1       -0.0430
      8  C          7.7400   -0.9650    0.4670 C.2     1  UNL1        0.0080
      9  C          6.8710    1.1040   -0.2620 C.2     1  UNL1        0.0540
     10  C          6.8050   -1.0190    1.4770 C.2     1  UNL1        0.0510
     11  C          5.9240    1.0710    0.7440 C.2     1  UNL1        0.1660
     12  C          5.8880    0.0100    1.6170 C.2     1  UNL1        0.1650
     13  O          4.9180    1.9560    1.0880 O.2     1  UNL1       -0.4540
     14  O          4.8410    0.2560    2.5060 O.2     1  UNL1       -0.4540
     15  C          4.0330    1.2960    2.0060 C.3     1  UNL1        0.4680
@<TRIPOS>BOND
     1     5     4    1
     2     4     2    1
     3     2     3    2
     4     2     1    1
     5     1     6    1
     6     6     7    1
     7     7     9    2
     8     7     8    1
     9     9    11    1
    10     8    10    2
    11    11    13    1
    12    11    12    2
    13    13    15    1
    14    10    12    1
    15    12    14    1
    16    15    14    1
