@<TRIPOS>MOLECULE
/home/cewinharhar/GITHUB/reincatalyze/data/processed/docking_pred/2023-May-17-1006_maxeplen10_maxtrainstep1000_seadep16_gamma099_lrac9e-4_lrcr1e-3_sub6/25ea22f039de2039e6eb222be1b9c38742a73e8b_ligand_6.pdbqt
 15 16 0 0 0
SMALL
GASTEIGER

@<TRIPOS>ATOM
      1  C          5.4140    2.8730    0.1280 C.3     1  UNL1        0.1270
      2  C          6.2390    3.8530    0.8180 C.2     1  UNL1        0.3030
      3  O          6.8750    4.7610    0.2790 O.2     1  UNL1       -0.2520
      4  O          6.3180    3.7590    2.2160 O.3     1  UNL1       -0.4810
      5  H          7.2460    3.7500    2.6090 H       1  UNL1        0.2960
      6  C          5.3320    1.5670    0.8150 C.3     1  UNL1        0.0470
      7  C          6.1190    0.4610    0.2640 C.2     1  UNL1       -0.0430
      8  C          6.5760   -0.5730    1.0660 C.2     1  UNL1        0.0080
      9  C          6.4600    0.4380   -1.0620 C.2     1  UNL1        0.0540
     10  C          7.3460   -1.5950    0.5560 C.2     1  UNL1        0.0510
     11  C          7.2320   -0.5770   -1.5960 C.2     1  UNL1        0.1660
     12  C          7.6770   -1.5960   -0.7900 C.2     1  UNL1        0.1650
     13  O          7.6900   -0.8030   -2.8820 O.2     1  UNL1       -0.4540
     14  O          8.4190   -2.4570   -1.6000 O.2     1  UNL1       -0.4540
     15  C          8.7000   -1.8220   -2.8260 C.3     1  UNL1        0.4680
@<TRIPOS>BOND
     1    13    15    1
     2    13    11    1
     3    15    14    1
     4    14    12    1
     5    11     9    1
     6    11    12    2
     7     9     7    2
     8    12    10    1
     9     1     6    1
    10     1     2    1
    11     7     6    1
    12     7     8    1
    13     3     2    2
    14    10     8    2
    15     2     4    1
    16     4     5    1
