@<TRIPOS>MOLECULE
/home/cewinharhar/GITHUB/reincatalyze/data/processed/docking_pred/2023-May-17-1006_maxeplen10_maxtrainstep1000_seadep16_gamma099_lrac9e-4_lrcr1e-3_sub6/25f547df8c587039729a955c6f4cb3c83005f49c_ligand_6.pdbqt
 15 16 0 0 0
SMALL
GASTEIGER

@<TRIPOS>ATOM
      1  C          6.4390    1.2730    0.7720 C.3     1  UNL1        0.1270
      2  C          5.2360    1.1430    1.5790 C.2     1  UNL1        0.3030
      3  O          5.0280    0.2650    2.4190 O.2     1  UNL1       -0.2520
      4  O          4.2250    2.0970    1.3870 O.3     1  UNL1       -0.4810
      5  H          3.4190    2.0180    1.9870 H       1  UNL1        0.2960
      6  C          6.2670    0.8490   -0.6350 C.3     1  UNL1        0.0470
      7  C          7.0110   -0.3300   -1.0830 C.2     1  UNL1       -0.0430
      8  C          7.2910   -0.5430   -2.4240 C.2     1  UNL1        0.0080
      9  C          7.4210   -1.2810   -0.1870 C.2     1  UNL1        0.0540
     10  C          7.9590   -1.6690   -2.8510 C.2     1  UNL1        0.0510
     11  C          8.0940   -2.4190   -0.5920 C.2     1  UNL1        0.1660
     12  C          8.3650   -2.6170   -1.9250 C.2     1  UNL1        0.1650
     13  O          8.5940   -3.4930    0.1210 O.2     1  UNL1       -0.4540
     14  O          9.0420   -3.8330   -2.0210 O.2     1  UNL1       -0.4540
     15  C          8.9180   -4.5380   -0.8080 C.3     1  UNL1        0.4680
@<TRIPOS>BOND
     1    10     8    1
     2    10    12    2
     3     8     7    2
     4    14    12    1
     5    14    15    1
     6    12    11    1
     7     7     6    1
     8     7     9    1
     9    15    13    1
    10     6     1    1
    11    11     9    2
    12    11    13    1
    13     1     2    1
    14     4     2    1
    15     4     5    1
    16     2     3    2
