@<TRIPOS>MOLECULE
/home/cewinharhar/GITHUB/reincatalyze/data/processed/docking_pred/2023-May-17-1006_maxeplen10_maxtrainstep1000_seadep16_gamma099_lrac9e-4_lrcr1e-3_sub6/25f547df8c587039729a955c6f4cb3c83005f49c_ligand_6.pdbqt
 15 16 0 0 0
SMALL
GASTEIGER

@<TRIPOS>ATOM
      1  C          5.4270    2.8720    0.1060 C.3     1  UNL1        0.1270
      2  C          6.2510    3.8530    0.7940 C.2     1  UNL1        0.3030
      3  O          6.9240    4.7310    0.2520 O.2     1  UNL1       -0.2520
      4  O          6.2840    3.7970    2.1970 O.3     1  UNL1       -0.4810
      5  H          7.1990    3.7800    2.6200 H       1  UNL1        0.2960
      6  C          5.3560    1.5630    0.7890 C.3     1  UNL1        0.0470
      7  C          6.1280    0.4580    0.2160 C.2     1  UNL1       -0.0430
      8  C          6.5500   -0.6110    0.9920 C.2     1  UNL1        0.0080
      9  C          6.4900    0.4680   -1.1050 C.2     1  UNL1        0.0540
     10  C          7.3070   -1.6320    0.4630 C.2     1  UNL1        0.0510
     11  C          7.2480   -0.5470   -1.6580 C.2     1  UNL1        0.1660
     12  C          7.6590   -1.6000   -0.8770 C.2     1  UNL1        0.1650
     13  O          7.7230   -0.7430   -2.9430 O.2     1  UNL1       -0.4540
     14  O          8.3960   -2.4510   -1.7020 O.2     1  UNL1       -0.4540
     15  C          8.7100   -1.7850   -2.9030 C.3     1  UNL1        0.4680
@<TRIPOS>BOND
     1    13    15    1
     2    13    11    1
     3    15    14    1
     4    14    12    1
     5    11     9    1
     6    11    12    2
     7     9     7    2
     8    12    10    1
     9     1     6    1
    10     1     2    1
    11     7     6    1
    12     7     8    1
    13     3     2    2
    14    10     8    2
    15     2     4    1
    16     4     5    1
