MODEL 1
REMARK VINA RESULT:      -7.6      0.000      0.000
REMARK SMILES O=C(O)CCc1ccc2c(c1)OCO2
REMARK SMILES IDX 4 1 2 2 1 3 3 4 5 6 6 7 7 8 11 9 8 10 10 11 9 12 12 13 14 14
REMARK SMILES IDX 13 15
REMARK H PARENT 3 5
REMARK Flexibility Score: inf
ROOT
ATOM      1  C   UNL     1       5.427   2.872   0.106  1.00  0.00     0.127 C 
ENDROOT
BRANCH   1   2
ATOM      2  C   UNL     1       6.251   3.853   0.794  1.00  0.00     0.303 C 
ATOM      3  O   UNL     1       6.924   4.731   0.252  1.00  0.00    -0.252 OA
BRANCH   2   4
ATOM      4  O   UNL     1       6.284   3.797   2.197  1.00  0.00    -0.481 OA
ATOM      5  H   UNL     1       7.199   3.780   2.620  1.00  0.00     0.296 HD
ENDBRANCH   2   4
ENDBRANCH   1   2
BRANCH   1   6
ATOM      6  C   UNL     1       5.356   1.563   0.789  1.00  0.00     0.047 C 
BRANCH   6   7
ATOM      7  C   UNL     1       6.128   0.458   0.216  1.00  0.00    -0.043 A 
ATOM      8  C   UNL     1       6.550  -0.611   0.992  1.00  0.00     0.008 A 
ATOM      9  C   UNL     1       6.490   0.468  -1.105  1.00  0.00     0.054 A 
ATOM     10  C   UNL     1       7.307  -1.632   0.463  1.00  0.00     0.051 A 
ATOM     11  C   UNL     1       7.248  -0.547  -1.658  1.00  0.00     0.166 A 
ATOM     12  C   UNL     1       7.659  -1.600  -0.877  1.00  0.00     0.165 A 
ATOM     13  O   UNL     1       7.723  -0.743  -2.943  1.00  0.00    -0.454 OA
ATOM     14  O   UNL     1       8.396  -2.451  -1.702  1.00  0.00    -0.454 OA
ATOM     15  C   UNL     1       8.710  -1.785  -2.903  1.00  0.00     0.468 C 
ENDBRANCH   6   7
ENDBRANCH   1   6
TORSDOF 4
ENDMDL
MODEL 2
REMARK VINA RESULT:      -7.6      2.121      2.505
REMARK SMILES O=C(O)CCc1ccc2c(c1)OCO2
REMARK SMILES IDX 4 1 2 2 1 3 3 4 5 6 6 7 7 8 11 9 8 10 10 11 9 12 12 13 14 14
REMARK SMILES IDX 13 15
REMARK H PARENT 3 5
REMARK Flexibility Score: inf
ROOT
ATOM      1  C   UNL     1       4.703   1.893   0.683  1.00  0.00     0.127 C 
ENDROOT
BRANCH   1   2
ATOM      2  C   UNL     1       4.424   1.159   1.907  1.00  0.00     0.303 C 
ATOM      3  O   UNL     1       5.172   0.335   2.435  1.00  0.00    -0.252 OA
BRANCH   2   4
ATOM      4  O   UNL     1       3.197   1.409   2.542  1.00  0.00    -0.481 OA
ATOM      5  H   UNL     1       2.368   1.211   2.004  1.00  0.00     0.296 HD
ENDBRANCH   2   4
ENDBRANCH   1   2
BRANCH   1   6
ATOM      6  C   UNL     1       6.126   2.257   0.512  1.00  0.00     0.047 C 
BRANCH   6   7
ATOM      7  C   UNL     1       6.974   1.336  -0.247  1.00  0.00    -0.043 A 
ATOM      8  C   UNL     1       8.343   1.529  -0.351  1.00  0.00     0.008 A 
ATOM      9  C   UNL     1       6.429   0.271  -0.914  1.00  0.00     0.054 A 
ATOM     10  C   UNL     1       9.136   0.684  -1.095  1.00  0.00     0.051 A 
ATOM     11  C   UNL     1       7.205  -0.591  -1.666  1.00  0.00     0.166 A 
ATOM     12  C   UNL     1       8.561  -0.387  -1.759  1.00  0.00     0.165 A 
ATOM     13  O   UNL     1       6.878  -1.711  -2.409  1.00  0.00    -0.454 OA
ATOM     14  O   UNL     1       9.066  -1.402  -2.573  1.00  0.00    -0.454 OA
ATOM     15  C   UNL     1       8.003  -2.045  -3.237  1.00  0.00     0.468 C 
ENDBRANCH   6   7
ENDBRANCH   1   6
TORSDOF 4
ENDMDL
MODEL 3
REMARK VINA RESULT:      -7.5      1.808      5.264
REMARK SMILES O=C(O)CCc1ccc2c(c1)OCO2
REMARK SMILES IDX 4 1 2 2 1 3 3 4 5 6 6 7 7 8 11 9 8 10 10 11 9 12 12 13 14 14
REMARK SMILES IDX 13 15
REMARK H PARENT 3 5
REMARK Flexibility Score: inf
ROOT
ATOM      1  C   UNL     1       8.230  -0.203  -2.856  1.00  0.00     0.127 C 
ENDROOT
BRANCH   1   2
ATOM      2  C   UNL     1       8.473  -1.624  -3.043  1.00  0.00     0.303 C 
ATOM      3  O   UNL     1       9.560  -2.190  -2.910  1.00  0.00    -0.252 OA
BRANCH   2   4
ATOM      4  O   UNL     1       7.377  -2.423  -3.406  1.00  0.00    -0.481 OA
ATOM      5  H   UNL     1       7.428  -2.863  -4.312  1.00  0.00     0.296 HD
ENDBRANCH   2   4
ENDBRANCH   1   2
BRANCH   1   6
ATOM      6  C   UNL     1       8.681   0.316  -1.547  1.00  0.00     0.047 C 
BRANCH   6   7
ATOM      7  C   UNL     1       7.735   0.251  -0.430  1.00  0.00    -0.043 A 
ATOM      8  C   UNL     1       7.768  -0.789   0.487  1.00  0.00     0.008 A 
ATOM      9  C   UNL     1       6.760   1.201  -0.282  1.00  0.00     0.054 A 
ATOM     10  C   UNL     1       6.857  -0.871   1.516  1.00  0.00     0.051 A 
ATOM     11  C   UNL     1       5.835   1.139   0.744  1.00  0.00     0.166 A 
ATOM     12  C   UNL     1       5.880   0.103   1.646  1.00  0.00     0.165 A 
ATOM     13  O   UNL     1       4.782   1.970   1.083  1.00  0.00    -0.454 OA
ATOM     14  O   UNL     1       4.836   0.310   2.549  1.00  0.00    -0.454 OA
ATOM     15  C   UNL     1       3.957   1.284   2.036  1.00  0.00     0.468 C 
ENDBRANCH   6   7
ENDBRANCH   1   6
TORSDOF 4
ENDMDL
MODEL 4
REMARK VINA RESULT:      -7.5      1.992      2.977
REMARK SMILES O=C(O)CCc1ccc2c(c1)OCO2
REMARK SMILES IDX 4 1 2 2 1 3 3 4 5 6 6 7 7 8 11 9 8 10 10 11 9 12 12 13 14 14
REMARK SMILES IDX 13 15
REMARK H PARENT 3 5
REMARK Flexibility Score: inf
ROOT
ATOM      1  C   UNL     1       6.439   1.273   0.772  1.00  0.00     0.127 C 
ENDROOT
BRANCH   1   2
ATOM      2  C   UNL     1       5.236   1.143   1.579  1.00  0.00     0.303 C 
ATOM      3  O   UNL     1       5.028   0.265   2.419  1.00  0.00    -0.252 OA
BRANCH   2   4
ATOM      4  O   UNL     1       4.225   2.097   1.387  1.00  0.00    -0.481 OA
ATOM      5  H   UNL     1       3.419   2.018   1.987  1.00  0.00     0.296 HD
ENDBRANCH   2   4
ENDBRANCH   1   2
BRANCH   1   6
ATOM      6  C   UNL     1       6.267   0.849  -0.635  1.00  0.00     0.047 C 
BRANCH   6   7
ATOM      7  C   UNL     1       7.011  -0.330  -1.083  1.00  0.00    -0.043 A 
ATOM      8  C   UNL     1       7.291  -0.543  -2.424  1.00  0.00     0.008 A 
ATOM      9  C   UNL     1       7.421  -1.281  -0.187  1.00  0.00     0.054 A 
ATOM     10  C   UNL     1       7.959  -1.669  -2.851  1.00  0.00     0.051 A 
ATOM     11  C   UNL     1       8.094  -2.419  -0.592  1.00  0.00     0.166 A 
ATOM     12  C   UNL     1       8.365  -2.617  -1.925  1.00  0.00     0.165 A 
ATOM     13  O   UNL     1       8.594  -3.493   0.121  1.00  0.00    -0.454 OA
ATOM     14  O   UNL     1       9.042  -3.833  -2.021  1.00  0.00    -0.454 OA
ATOM     15  C   UNL     1       8.918  -4.538  -0.808  1.00  0.00     0.468 C 
ENDBRANCH   6   7
ENDBRANCH   1   6
TORSDOF 4
ENDMDL
MODEL 5
REMARK VINA RESULT:      -7.5      0.991      2.139
REMARK SMILES O=C(O)CCc1ccc2c(c1)OCO2
REMARK SMILES IDX 4 1 2 2 1 3 3 4 5 6 6 7 7 8 11 9 8 10 10 11 9 12 12 13 14 14
REMARK SMILES IDX 13 15
REMARK H PARENT 3 5
REMARK Flexibility Score: inf
ROOT
ATOM      1  C   UNL     1       5.494   2.771  -0.010  1.00  0.00     0.127 C 
ENDROOT
BRANCH   1   2
ATOM      2  C   UNL     1       6.211   3.666   0.884  1.00  0.00     0.303 C 
ATOM      3  O   UNL     1       6.305   3.535   2.106  1.00  0.00    -0.252 OA
BRANCH   2   4
ATOM      4  O   UNL     1       6.851   4.775   0.309  1.00  0.00    -0.481 OA
ATOM      5  H   UNL     1       7.860   4.761   0.317  1.00  0.00     0.296 HD
ENDBRANCH   2   4
ENDBRANCH   1   2
BRANCH   1   6
ATOM      6  C   UNL     1       5.324   1.401   0.521  1.00  0.00     0.047 C 
BRANCH   6   7
ATOM      7  C   UNL     1       6.195   0.354  -0.015  1.00  0.00    -0.043 A 
ATOM      8  C   UNL     1       6.517   0.297  -1.362  1.00  0.00     0.008 A 
ATOM      9  C   UNL     1       6.690  -0.630   0.800  1.00  0.00     0.054 A 
ATOM     10  C   UNL     1       7.307  -0.708  -1.874  1.00  0.00     0.051 A 
ATOM     11  C   UNL     1       7.485  -1.649   0.309  1.00  0.00     0.166 A 
ATOM     12  C   UNL     1       7.796  -1.691  -1.029  1.00  0.00     0.165 A 
ATOM     13  O   UNL     1       8.085  -2.728   0.933  1.00  0.00    -0.454 OA
ATOM     14  O   UNL     1       8.600  -2.816  -1.220  1.00  0.00    -0.454 OA
ATOM     15  C   UNL     1       8.532  -3.642  -0.080  1.00  0.00     0.468 C 
ENDBRANCH   6   7
ENDBRANCH   1   6
TORSDOF 4
ENDMDL
