@<TRIPOS>MOLECULE
/home/cewinharhar/GITHUB/reincatalyze/data/processed/docking_pred/2023-May-17-1006_maxeplen10_maxtrainstep1000_seadep16_gamma099_lrac9e-4_lrcr1e-3_sub6/25f547df8c587039729a955c6f4cb3c83005f49c_ligand_6.pdbqt
 15 16 0 0 0
SMALL
GASTEIGER

@<TRIPOS>ATOM
      1  C          8.2300   -0.2030   -2.8560 C.3     1  UNL1        0.1270
      2  C          8.4730   -1.6240   -3.0430 C.2     1  UNL1        0.3030
      3  O          9.5600   -2.1900   -2.9100 O.2     1  UNL1       -0.2520
      4  O          7.3770   -2.4230   -3.4060 O.3     1  UNL1       -0.4810
      5  H          7.4280   -2.8630   -4.3120 H       1  UNL1        0.2960
      6  C          8.6810    0.3160   -1.5470 C.3     1  UNL1        0.0470
      7  C          7.7350    0.2510   -0.4300 C.2     1  UNL1       -0.0430
      8  C          7.7680   -0.7890    0.4870 C.2     1  UNL1        0.0080
      9  C          6.7600    1.2010   -0.2820 C.2     1  UNL1        0.0540
     10  C          6.8570   -0.8710    1.5160 C.2     1  UNL1        0.0510
     11  C          5.8350    1.1390    0.7440 C.2     1  UNL1        0.1660
     12  C          5.8800    0.1030    1.6460 C.2     1  UNL1        0.1650
     13  O          4.7820    1.9700    1.0830 O.2     1  UNL1       -0.4540
     14  O          4.8360    0.3100    2.5490 O.2     1  UNL1       -0.4540
     15  C          3.9570    1.2840    2.0360 C.3     1  UNL1        0.4680
@<TRIPOS>BOND
     1     5     4    1
     2     4     2    1
     3     2     3    2
     4     2     1    1
     5     1     6    1
     6     6     7    1
     7     7     9    2
     8     7     8    1
     9     9    11    1
    10     8    10    2
    11    11    13    1
    12    11    12    2
    13    13    15    1
    14    10    12    1
    15    12    14    1
    16    15    14    1
