@<TRIPOS>MOLECULE
/home/cewinharhar/GITHUB/reincatalyze/data/processed/docking_pred/2023-May-17-1006_maxeplen10_maxtrainstep1000_seadep16_gamma099_lrac9e-4_lrcr1e-3_sub6/25f547df8c587039729a955c6f4cb3c83005f49c_ligand_6.pdbqt
 15 16 0 0 0
SMALL
GASTEIGER

@<TRIPOS>ATOM
      1  C          5.4940    2.7710   -0.0100 C.3     1  UNL1        0.1270
      2  C          6.2110    3.6660    0.8840 C.2     1  UNL1        0.3030
      3  O          6.3050    3.5350    2.1060 O.2     1  UNL1       -0.2520
      4  O          6.8510    4.7750    0.3090 O.3     1  UNL1       -0.4810
      5  H          7.8600    4.7610    0.3170 H       1  UNL1        0.2960
      6  C          5.3240    1.4010    0.5210 C.3     1  UNL1        0.0470
      7  C          6.1950    0.3540   -0.0150 C.2     1  UNL1       -0.0430
      8  C          6.5170    0.2970   -1.3620 C.2     1  UNL1        0.0080
      9  C          6.6900   -0.6300    0.8000 C.2     1  UNL1        0.0540
     10  C          7.3070   -0.7080   -1.8740 C.2     1  UNL1        0.0510
     11  C          7.4850   -1.6490    0.3090 C.2     1  UNL1        0.1660
     12  C          7.7960   -1.6910   -1.0290 C.2     1  UNL1        0.1650
     13  O          8.0850   -2.7280    0.9330 O.2     1  UNL1       -0.4540
     14  O          8.6000   -2.8160   -1.2200 O.2     1  UNL1       -0.4540
     15  C          8.5320   -3.6420   -0.0800 C.3     1  UNL1        0.4680
@<TRIPOS>BOND
     1    10     8    1
     2    10    12    2
     3     8     7    2
     4    14    12    1
     5    14    15    1
     6    12    11    1
     7    15    13    1
     8     7     6    1
     9     7     9    1
    10     1     6    1
    11     1     2    1
    12     4     5    1
    13     4     2    1
    14    11     9    2
    15    11    13    1
    16     2     3    2
