@<TRIPOS>MOLECULE
/home/cewinharhar/GITHUB/reincatalyze/data/processed/docking_pred/2023-May-17-1006_maxeplen10_maxtrainstep1000_seadep16_gamma099_lrac9e-4_lrcr1e-3_sub6/25f547df8c587039729a955c6f4cb3c83005f49c_ligand_6.pdbqt
 15 16 0 0 0
SMALL
GASTEIGER

@<TRIPOS>ATOM
      1  C          4.7030    1.8930    0.6830 C.3     1  UNL1        0.1270
      2  C          4.4240    1.1590    1.9070 C.2     1  UNL1        0.3030
      3  O          5.1720    0.3350    2.4350 O.2     1  UNL1       -0.2520
      4  O          3.1970    1.4090    2.5420 O.3     1  UNL1       -0.4810
      5  H          2.3680    1.2110    2.0040 H       1  UNL1        0.2960
      6  C          6.1260    2.2570    0.5120 C.3     1  UNL1        0.0470
      7  C          6.9740    1.3360   -0.2470 C.2     1  UNL1       -0.0430
      8  C          8.3430    1.5290   -0.3510 C.2     1  UNL1        0.0080
      9  C          6.4290    0.2710   -0.9140 C.2     1  UNL1        0.0540
     10  C          9.1360    0.6840   -1.0950 C.2     1  UNL1        0.0510
     11  C          7.2050   -0.5910   -1.6660 C.2     1  UNL1        0.1660
     12  C          8.5610   -0.3870   -1.7590 C.2     1  UNL1        0.1650
     13  O          6.8780   -1.7110   -2.4090 O.2     1  UNL1       -0.4540
     14  O          9.0660   -1.4020   -2.5730 O.2     1  UNL1       -0.4540
     15  C          8.0030   -2.0450   -3.2370 C.3     1  UNL1        0.4680
@<TRIPOS>BOND
     1    15    14    1
     2    15    13    1
     3    14    12    1
     4    13    11    1
     5    12    11    2
     6    12    10    1
     7    11     9    1
     8    10     8    2
     9     9     7    2
    10     8     7    1
    11     7     6    1
    12     6     1    1
    13     1     2    1
    14     2     3    2
    15     2     4    1
    16     5     4    1
