@<TRIPOS>MOLECULE
/home/cewinharhar/GITHUB/reincatalyze/data/processed/docking_pred/2023-May-17-1006_maxeplen10_maxtrainstep1000_seadep16_gamma099_lrac9e-4_lrcr1e-3_sub6/25fd2f55844bdf9fb92a90adf0bdb598f7a2ad59_ligand_6.pdbqt
 15 16 0 0 0
SMALL
GASTEIGER

@<TRIPOS>ATOM
      1  C          5.3700    2.8540    0.1720 C.3     1  UNL1        0.1270
      2  C          6.1760    3.8410    0.8730 C.2     1  UNL1        0.3030
      3  O          6.3000    3.9280    2.0960 O.2     1  UNL1       -0.2520
      4  O          6.8750    4.7750    0.0920 O.3     1  UNL1       -0.4810
      5  H          7.7980    5.0240    0.4140 H       1  UNL1        0.2960
      6  C          5.3800    1.5160    0.7990 C.3     1  UNL1        0.0470
      7  C          6.2290    0.4890    0.1910 C.2     1  UNL1       -0.0430
      8  C          6.5460    0.5160   -1.1580 C.2     1  UNL1        0.0080
      9  C          6.7060   -0.5560    0.9370 C.2     1  UNL1        0.0540
     10  C          7.3150   -0.4680   -1.7380 C.2     1  UNL1        0.0510
     11  C          7.4800   -1.5550    0.3760 C.2     1  UNL1        0.1660
     12  C          7.7870   -1.5150   -0.9620 C.2     1  UNL1        0.1650
     13  O          8.0600   -2.6850    0.9250 O.2     1  UNL1       -0.4540
     14  O          8.5680   -2.6400   -1.2310 O.2     1  UNL1       -0.4540
     15  C          8.4870   -3.5380   -0.1480 C.3     1  UNL1        0.4680
@<TRIPOS>BOND
     1    10     8    1
     2    10    12    2
     3    14    12    1
     4    14    15    1
     5     8     7    2
     6    12    11    1
     7    15    13    1
     8     4     5    1
     9     4     2    1
    10     1     6    1
    11     1     2    1
    12     7     6    1
    13     7     9    1
    14    11    13    1
    15    11     9    2
    16     2     3    2
