@<TRIPOS>MOLECULE
/home/cewinharhar/GITHUB/reincatalyze/data/processed/docking_pred/2023-May-17-1006_maxeplen10_maxtrainstep1000_seadep16_gamma099_lrac9e-4_lrcr1e-3_sub6/25fd2f55844bdf9fb92a90adf0bdb598f7a2ad59_ligand_6.pdbqt
 15 16 0 0 0
SMALL
GASTEIGER

@<TRIPOS>ATOM
      1  C          6.4130    1.3160    0.6580 C.3     1  UNL1        0.1270
      2  C          5.2030    1.2750    1.4630 C.2     1  UNL1        0.3030
      3  O          4.2520    2.0520    1.3690 O.2     1  UNL1       -0.2520
      4  O          5.1080    0.2630    2.4320 O.3     1  UNL1       -0.4810
      5  H          5.4320    0.5010    3.3570 H       1  UNL1        0.2960
      6  C          6.2260    0.8470   -0.7320 C.3     1  UNL1        0.0470
      7  C          6.9700   -0.3420   -1.1520 C.2     1  UNL1       -0.0430
      8  C          7.2450   -0.5910   -2.4880 C.2     1  UNL1        0.0080
      9  C          7.3860   -1.2690   -0.2320 C.2     1  UNL1        0.0540
     10  C          7.9130   -1.7270   -2.8870 C.2     1  UNL1        0.0510
     11  C          8.0580   -2.4150   -0.6100 C.2     1  UNL1        0.1660
     12  C          8.3250   -2.6490   -1.9370 C.2     1  UNL1        0.1650
     13  O          8.5640   -3.4700    0.1300 O.2     1  UNL1       -0.4540
     14  O          9.0040   -3.8660   -2.0040 O.2     1  UNL1       -0.4540
     15  C          8.8860   -4.5390   -0.7720 C.3     1  UNL1        0.4680
@<TRIPOS>BOND
     1    10     8    1
     2    10    12    2
     3     8     7    2
     4    14    12    1
     5    14    15    1
     6    12    11    1
     7     7     6    1
     8     7     9    1
     9    15    13    1
    10     6     1    1
    11    11     9    2
    12    11    13    1
    13     1     2    1
    14     3     2    2
    15     2     4    1
    16     4     5    1
