@<TRIPOS>MOLECULE
/home/cewinharhar/GITHUB/reincatalyze/data/processed/docking_pred/2023-May-17-1006_maxeplen10_maxtrainstep1000_seadep16_gamma099_lrac9e-4_lrcr1e-3_sub6/25fd2f55844bdf9fb92a90adf0bdb598f7a2ad59_ligand_6.pdbqt
 15 16 0 0 0
SMALL
GASTEIGER

@<TRIPOS>ATOM
      1  C          8.3080   -0.3190   -2.8480 C.3     1  UNL1        0.1270
      2  C          8.4660   -1.7480   -3.0670 C.2     1  UNL1        0.3030
      3  O          9.5320   -2.3650   -3.0300 O.2     1  UNL1       -0.2520
      4  O          7.3070   -2.4900   -3.3440 O.3     1  UNL1       -0.4810
      5  H          7.2620   -2.9200   -4.2550 H       1  UNL1        0.2960
      6  C          8.7620    0.1390   -1.5170 C.3     1  UNL1        0.0470
      7  C          7.7930    0.1000   -0.4210 C.2     1  UNL1       -0.0430
      8  C          7.7450   -0.9640    0.4670 C.2     1  UNL1        0.0080
      9  C          6.8740    1.1030   -0.2630 C.2     1  UNL1        0.0540
     10  C          6.8100   -1.0190    1.4770 C.2     1  UNL1        0.0510
     11  C          5.9270    1.0700    0.7440 C.2     1  UNL1        0.1660
     12  C          5.8920    0.0090    1.6170 C.2     1  UNL1        0.1650
     13  O          4.9200    1.9540    1.0880 O.2     1  UNL1       -0.4540
     14  O          4.8450    0.2550    2.5070 O.2     1  UNL1       -0.4540
     15  C          4.0360    1.2940    2.0060 C.3     1  UNL1        0.4680
@<TRIPOS>BOND
     1     5     4    1
     2     4     2    1
     3     2     3    2
     4     2     1    1
     5     1     6    1
     6     6     7    1
     7     7     9    2
     8     7     8    1
     9     9    11    1
    10     8    10    2
    11    11    13    1
    12    11    12    2
    13    13    15    1
    14    10    12    1
    15    12    14    1
    16    15    14    1
