@<TRIPOS>MOLECULE
/home/cewinharhar/GITHUB/reincatalyze/data/processed/docking_pred/2023-May-17-1006_maxeplen10_maxtrainstep1000_seadep16_gamma099_lrac9e-4_lrcr1e-3_sub6/25fd2f55844bdf9fb92a90adf0bdb598f7a2ad59_ligand_6.pdbqt
 15 16 0 0 0
SMALL
GASTEIGER

@<TRIPOS>ATOM
      1  C          5.4120    2.8670    0.1280 C.3     1  UNL1        0.1270
      2  C          6.2390    3.8520    0.8070 C.2     1  UNL1        0.3030
      3  O          6.8770    4.7540    0.2590 O.2     1  UNL1       -0.2520
      4  O          6.3200    3.7710    2.2060 O.3     1  UNL1       -0.4810
      5  H          5.6310    4.2950    2.7230 H       1  UNL1        0.2960
      6  C          5.3460    1.5610    0.8180 C.3     1  UNL1        0.0470
      7  C          6.1270    0.4580    0.2560 C.2     1  UNL1       -0.0430
      8  C          6.5890   -0.5810    1.0490 C.2     1  UNL1        0.0080
      9  C          6.4600    0.4410   -1.0730 C.2     1  UNL1        0.0540
     10  C          7.3540   -1.6010    0.5290 C.2     1  UNL1        0.0510
     11  C          7.2270   -0.5720   -1.6170 C.2     1  UNL1        0.1660
     12  C          7.6760   -1.5960   -0.8190 C.2     1  UNL1        0.1650
     13  O          7.6770   -0.7920   -2.9070 O.2     1  UNL1       -0.4540
     14  O          8.4120   -2.4530   -1.6390 O.2     1  UNL1       -0.4540
     15  C          8.6860   -1.8120   -2.8630 C.3     1  UNL1        0.4680
@<TRIPOS>BOND
     1    13    15    1
     2    13    11    1
     3    15    14    1
     4    14    12    1
     5    11     9    1
     6    11    12    2
     7     9     7    2
     8    12    10    1
     9     1     2    1
    10     1     6    1
    11     7     6    1
    12     7     8    1
    13     3     2    2
    14    10     8    2
    15     2     4    1
    16     4     5    1
