MODEL 1
REMARK VINA RESULT:      -7.7      0.000      0.000
REMARK SMILES O=C(O)CCc1ccc2c(c1)OCO2
REMARK SMILES IDX 4 1 2 2 1 3 3 4 5 6 6 7 7 8 11 9 8 10 10 11 9 12 12 13 14 14
REMARK SMILES IDX 13 15
REMARK H PARENT 3 5
REMARK Flexibility Score: inf
ROOT
ATOM      1  C   UNL     1       5.412   2.867   0.128  1.00  0.00     0.127 C 
ENDROOT
BRANCH   1   2
ATOM      2  C   UNL     1       6.239   3.852   0.807  1.00  0.00     0.303 C 
ATOM      3  O   UNL     1       6.877   4.754   0.259  1.00  0.00    -0.252 OA
BRANCH   2   4
ATOM      4  O   UNL     1       6.320   3.771   2.206  1.00  0.00    -0.481 OA
ATOM      5  H   UNL     1       5.631   4.295   2.723  1.00  0.00     0.296 HD
ENDBRANCH   2   4
ENDBRANCH   1   2
BRANCH   1   6
ATOM      6  C   UNL     1       5.346   1.561   0.818  1.00  0.00     0.047 C 
BRANCH   6   7
ATOM      7  C   UNL     1       6.127   0.458   0.256  1.00  0.00    -0.043 A 
ATOM      8  C   UNL     1       6.589  -0.581   1.049  1.00  0.00     0.008 A 
ATOM      9  C   UNL     1       6.460   0.441  -1.073  1.00  0.00     0.054 A 
ATOM     10  C   UNL     1       7.354  -1.601   0.529  1.00  0.00     0.051 A 
ATOM     11  C   UNL     1       7.227  -0.572  -1.617  1.00  0.00     0.166 A 
ATOM     12  C   UNL     1       7.676  -1.596  -0.819  1.00  0.00     0.165 A 
ATOM     13  O   UNL     1       7.677  -0.792  -2.907  1.00  0.00    -0.454 OA
ATOM     14  O   UNL     1       8.412  -2.453  -1.639  1.00  0.00    -0.454 OA
ATOM     15  C   UNL     1       8.686  -1.812  -2.863  1.00  0.00     0.468 C 
ENDBRANCH   6   7
ENDBRANCH   1   6
TORSDOF 4
ENDMDL
MODEL 2
REMARK VINA RESULT:      -7.6      2.130      2.518
REMARK SMILES O=C(O)CCc1ccc2c(c1)OCO2
REMARK SMILES IDX 4 1 2 2 1 3 3 4 5 6 6 7 7 8 11 9 8 10 10 11 9 12 12 13 14 14
REMARK SMILES IDX 13 15
REMARK H PARENT 3 5
REMARK Flexibility Score: inf
ROOT
ATOM      1  C   UNL     1       4.712   1.871   0.687  1.00  0.00     0.127 C 
ENDROOT
BRANCH   1   2
ATOM      2  C   UNL     1       4.406   1.159   1.918  1.00  0.00     0.303 C 
ATOM      3  O   UNL     1       5.133   0.329   2.466  1.00  0.00    -0.252 OA
BRANCH   2   4
ATOM      4  O   UNL     1       3.177   1.440   2.536  1.00  0.00    -0.481 OA
ATOM      5  H   UNL     1       2.764   2.334   2.319  1.00  0.00     0.296 HD
ENDBRANCH   2   4
ENDBRANCH   1   2
BRANCH   1   6
ATOM      6  C   UNL     1       6.139   2.230   0.540  1.00  0.00     0.047 C 
BRANCH   6   7
ATOM      7  C   UNL     1       6.990   1.324  -0.235  1.00  0.00    -0.043 A 
ATOM      8  C   UNL     1       8.349   1.554  -0.382  1.00  0.00     0.008 A 
ATOM      9  C   UNL     1       6.455   0.236  -0.873  1.00  0.00     0.054 A 
ATOM     10  C   UNL     1       9.143   0.723  -1.141  1.00  0.00     0.051 A 
ATOM     11  C   UNL     1       7.232  -0.612  -1.639  1.00  0.00     0.166 A 
ATOM     12  C   UNL     1       8.578  -0.372  -1.775  1.00  0.00     0.165 A 
ATOM     13  O   UNL     1       6.915  -1.749  -2.360  1.00  0.00    -0.454 OA
ATOM     14  O   UNL     1       9.087  -1.382  -2.594  1.00  0.00    -0.454 OA
ATOM     15  C   UNL     1       8.022  -2.062  -3.218  1.00  0.00     0.468 C 
ENDBRANCH   6   7
ENDBRANCH   1   6
TORSDOF 4
ENDMDL
MODEL 3
REMARK VINA RESULT:      -7.5      1.978      2.890
REMARK SMILES O=C(O)CCc1ccc2c(c1)OCO2
REMARK SMILES IDX 4 1 2 2 1 3 3 4 5 6 6 7 7 8 11 9 8 10 10 11 9 12 12 13 14 14
REMARK SMILES IDX 13 15
REMARK H PARENT 3 5
REMARK Flexibility Score: inf
ROOT
ATOM      1  C   UNL     1       6.413   1.316   0.658  1.00  0.00     0.127 C 
ENDROOT
BRANCH   1   2
ATOM      2  C   UNL     1       5.203   1.275   1.463  1.00  0.00     0.303 C 
ATOM      3  O   UNL     1       4.252   2.052   1.369  1.00  0.00    -0.252 OA
BRANCH   2   4
ATOM      4  O   UNL     1       5.108   0.263   2.432  1.00  0.00    -0.481 OA
ATOM      5  H   UNL     1       5.432   0.501   3.357  1.00  0.00     0.296 HD
ENDBRANCH   2   4
ENDBRANCH   1   2
BRANCH   1   6
ATOM      6  C   UNL     1       6.226   0.847  -0.732  1.00  0.00     0.047 C 
BRANCH   6   7
ATOM      7  C   UNL     1       6.970  -0.342  -1.152  1.00  0.00    -0.043 A 
ATOM      8  C   UNL     1       7.245  -0.591  -2.488  1.00  0.00     0.008 A 
ATOM      9  C   UNL     1       7.386  -1.269  -0.232  1.00  0.00     0.054 A 
ATOM     10  C   UNL     1       7.913  -1.727  -2.887  1.00  0.00     0.051 A 
ATOM     11  C   UNL     1       8.058  -2.415  -0.610  1.00  0.00     0.166 A 
ATOM     12  C   UNL     1       8.325  -2.649  -1.937  1.00  0.00     0.165 A 
ATOM     13  O   UNL     1       8.564  -3.470   0.130  1.00  0.00    -0.454 OA
ATOM     14  O   UNL     1       9.004  -3.866  -2.004  1.00  0.00    -0.454 OA
ATOM     15  C   UNL     1       8.886  -4.539  -0.772  1.00  0.00     0.468 C 
ENDBRANCH   6   7
ENDBRANCH   1   6
TORSDOF 4
ENDMDL
MODEL 4
REMARK VINA RESULT:      -7.4      1.790      5.280
REMARK SMILES O=C(O)CCc1ccc2c(c1)OCO2
REMARK SMILES IDX 4 1 2 2 1 3 3 4 5 6 6 7 7 8 11 9 8 10 10 11 9 12 12 13 14 14
REMARK SMILES IDX 13 15
REMARK H PARENT 3 5
REMARK Flexibility Score: inf
ROOT
ATOM      1  C   UNL     1       8.308  -0.319  -2.848  1.00  0.00     0.127 C 
ENDROOT
BRANCH   1   2
ATOM      2  C   UNL     1       8.466  -1.748  -3.067  1.00  0.00     0.303 C 
ATOM      3  O   UNL     1       9.532  -2.365  -3.030  1.00  0.00    -0.252 OA
BRANCH   2   4
ATOM      4  O   UNL     1       7.307  -2.490  -3.344  1.00  0.00    -0.481 OA
ATOM      5  H   UNL     1       7.262  -2.920  -4.255  1.00  0.00     0.296 HD
ENDBRANCH   2   4
ENDBRANCH   1   2
BRANCH   1   6
ATOM      6  C   UNL     1       8.762   0.139  -1.517  1.00  0.00     0.047 C 
BRANCH   6   7
ATOM      7  C   UNL     1       7.793   0.100  -0.421  1.00  0.00    -0.043 A 
ATOM      8  C   UNL     1       7.745  -0.964   0.467  1.00  0.00     0.008 A 
ATOM      9  C   UNL     1       6.874   1.103  -0.263  1.00  0.00     0.054 A 
ATOM     10  C   UNL     1       6.810  -1.019   1.477  1.00  0.00     0.051 A 
ATOM     11  C   UNL     1       5.927   1.070   0.744  1.00  0.00     0.166 A 
ATOM     12  C   UNL     1       5.892   0.009   1.617  1.00  0.00     0.165 A 
ATOM     13  O   UNL     1       4.920   1.954   1.088  1.00  0.00    -0.454 OA
ATOM     14  O   UNL     1       4.845   0.255   2.507  1.00  0.00    -0.454 OA
ATOM     15  C   UNL     1       4.036   1.294   2.006  1.00  0.00     0.468 C 
ENDBRANCH   6   7
ENDBRANCH   1   6
TORSDOF 4
ENDMDL
MODEL 5
REMARK VINA RESULT:      -7.4      0.930      2.102
REMARK SMILES O=C(O)CCc1ccc2c(c1)OCO2
REMARK SMILES IDX 4 1 2 2 1 3 3 4 5 6 6 7 7 8 11 9 8 10 10 11 9 12 12 13 14 14
REMARK SMILES IDX 13 15
REMARK H PARENT 3 5
REMARK Flexibility Score: inf
ROOT
ATOM      1  C   UNL     1       5.370   2.854   0.172  1.00  0.00     0.127 C 
ENDROOT
BRANCH   1   2
ATOM      2  C   UNL     1       6.176   3.841   0.873  1.00  0.00     0.303 C 
ATOM      3  O   UNL     1       6.300   3.928   2.096  1.00  0.00    -0.252 OA
BRANCH   2   4
ATOM      4  O   UNL     1       6.875   4.775   0.092  1.00  0.00    -0.481 OA
ATOM      5  H   UNL     1       7.798   5.024   0.414  1.00  0.00     0.296 HD
ENDBRANCH   2   4
ENDBRANCH   1   2
BRANCH   1   6
ATOM      6  C   UNL     1       5.380   1.516   0.799  1.00  0.00     0.047 C 
BRANCH   6   7
ATOM      7  C   UNL     1       6.229   0.489   0.191  1.00  0.00    -0.043 A 
ATOM      8  C   UNL     1       6.546   0.516  -1.158  1.00  0.00     0.008 A 
ATOM      9  C   UNL     1       6.706  -0.556   0.937  1.00  0.00     0.054 A 
ATOM     10  C   UNL     1       7.315  -0.468  -1.738  1.00  0.00     0.051 A 
ATOM     11  C   UNL     1       7.480  -1.555   0.376  1.00  0.00     0.166 A 
ATOM     12  C   UNL     1       7.787  -1.515  -0.962  1.00  0.00     0.165 A 
ATOM     13  O   UNL     1       8.060  -2.685   0.925  1.00  0.00    -0.454 OA
ATOM     14  O   UNL     1       8.568  -2.640  -1.231  1.00  0.00    -0.454 OA
ATOM     15  C   UNL     1       8.487  -3.538  -0.148  1.00  0.00     0.468 C 
ENDBRANCH   6   7
ENDBRANCH   1   6
TORSDOF 4
ENDMDL
