MODEL 1
REMARK VINA RESULT:      -7.6      0.000      0.000
REMARK SMILES O=C(O)CCc1ccc2c(c1)OCO2
REMARK SMILES IDX 4 1 2 2 1 3 3 4 5 6 6 7 7 8 11 9 8 10 10 11 9 12 12 13 14 14
REMARK SMILES IDX 13 15
REMARK H PARENT 3 5
REMARK Flexibility Score: inf
ROOT
ATOM      1  C   UNL     1       5.404   2.870   0.139  1.00  0.00     0.127 C 
ENDROOT
BRANCH   1   2
ATOM      2  C   UNL     1       6.229   3.857   0.818  1.00  0.00     0.303 C 
ATOM      3  O   UNL     1       6.846   4.774   0.272  1.00  0.00    -0.252 OA
BRANCH   2   4
ATOM      4  O   UNL     1       6.332   3.760   2.214  1.00  0.00    -0.481 OA
ATOM      5  H   UNL     1       7.080   4.283   2.642  1.00  0.00     0.296 HD
ENDBRANCH   2   4
ENDBRANCH   1   2
BRANCH   1   6
ATOM      6  C   UNL     1       5.339   1.565   0.831  1.00  0.00     0.047 C 
BRANCH   6   7
ATOM      7  C   UNL     1       6.118   0.460   0.268  1.00  0.00    -0.043 A 
ATOM      8  C   UNL     1       6.589  -0.574   1.063  1.00  0.00     0.008 A 
ATOM      9  C   UNL     1       6.439   0.436  -1.063  1.00  0.00     0.054 A 
ATOM     10  C   UNL     1       7.352  -1.595   0.542  1.00  0.00     0.051 A 
ATOM     11  C   UNL     1       7.203  -0.578  -1.608  1.00  0.00     0.166 A 
ATOM     12  C   UNL     1       7.662  -1.597  -0.808  1.00  0.00     0.165 A 
ATOM     13  O   UNL     1       7.642  -0.805  -2.901  1.00  0.00    -0.454 OA
ATOM     14  O   UNL     1       8.393  -2.456  -1.630  1.00  0.00    -0.454 OA
ATOM     15  C   UNL     1       8.654  -1.822  -2.860  1.00  0.00     0.468 C 
ENDBRANCH   6   7
ENDBRANCH   1   6
TORSDOF 4
ENDMDL
MODEL 2
REMARK VINA RESULT:      -7.6      2.134      2.521
REMARK SMILES O=C(O)CCc1ccc2c(c1)OCO2
REMARK SMILES IDX 4 1 2 2 1 3 3 4 5 6 6 7 7 8 11 9 8 10 10 11 9 12 12 13 14 14
REMARK SMILES IDX 13 15
REMARK H PARENT 3 5
REMARK Flexibility Score: inf
ROOT
ATOM      1  C   UNL     1       4.713   1.877   0.699  1.00  0.00     0.127 C 
ENDROOT
BRANCH   1   2
ATOM      2  C   UNL     1       4.401   1.159   1.925  1.00  0.00     0.303 C 
ATOM      3  O   UNL     1       5.123   0.321   2.469  1.00  0.00    -0.252 OA
BRANCH   2   4
ATOM      4  O   UNL     1       3.174   1.443   2.543  1.00  0.00    -0.481 OA
ATOM      5  H   UNL     1       2.488   0.703   2.532  1.00  0.00     0.296 HD
ENDBRANCH   2   4
ENDBRANCH   1   2
BRANCH   1   6
ATOM      6  C   UNL     1       6.142   2.233   0.559  1.00  0.00     0.047 C 
BRANCH   6   7
ATOM      7  C   UNL     1       6.991   1.330  -0.221  1.00  0.00    -0.043 A 
ATOM      8  C   UNL     1       8.351   1.560  -0.366  1.00  0.00     0.008 A 
ATOM      9  C   UNL     1       6.456   0.247  -0.866  1.00  0.00     0.054 A 
ATOM     10  C   UNL     1       9.144   0.732  -1.129  1.00  0.00     0.051 A 
ATOM     11  C   UNL     1       7.233  -0.598  -1.636  1.00  0.00     0.166 A 
ATOM     12  C   UNL     1       8.579  -0.358  -1.770  1.00  0.00     0.165 A 
ATOM     13  O   UNL     1       6.914  -1.731  -2.363  1.00  0.00    -0.454 OA
ATOM     14  O   UNL     1       9.087  -1.364  -2.594  1.00  0.00    -0.454 OA
ATOM     15  C   UNL     1       8.022  -2.039  -3.223  1.00  0.00     0.468 C 
ENDBRANCH   6   7
ENDBRANCH   1   6
TORSDOF 4
ENDMDL
MODEL 3
REMARK VINA RESULT:      -7.5      1.808      5.259
REMARK SMILES O=C(O)CCc1ccc2c(c1)OCO2
REMARK SMILES IDX 4 1 2 2 1 3 3 4 5 6 6 7 7 8 11 9 8 10 10 11 9 12 12 13 14 14
REMARK SMILES IDX 13 15
REMARK H PARENT 3 5
REMARK Flexibility Score: inf
ROOT
ATOM      1  C   UNL     1       8.232  -0.213  -2.837  1.00  0.00     0.127 C 
ENDROOT
BRANCH   1   2
ATOM      2  C   UNL     1       8.464  -1.637  -3.028  1.00  0.00     0.303 C 
ATOM      3  O   UNL     1       9.548  -2.210  -2.902  1.00  0.00    -0.252 OA
BRANCH   2   4
ATOM      4  O   UNL     1       7.361  -2.427  -3.386  1.00  0.00    -0.481 OA
ATOM      5  H   UNL     1       7.402  -2.866  -4.293  1.00  0.00     0.296 HD
ENDBRANCH   2   4
ENDBRANCH   1   2
BRANCH   1   6
ATOM      6  C   UNL     1       8.683   0.297  -1.524  1.00  0.00     0.047 C 
BRANCH   6   7
ATOM      7  C   UNL     1       7.733   0.234  -0.411  1.00  0.00    -0.043 A 
ATOM      8  C   UNL     1       7.769  -0.798   0.514  1.00  0.00     0.008 A 
ATOM      9  C   UNL     1       6.752   1.180  -0.274  1.00  0.00     0.054 A 
ATOM     10  C   UNL     1       6.854  -0.878   1.540  1.00  0.00     0.051 A 
ATOM     11  C   UNL     1       5.824   1.120   0.749  1.00  0.00     0.166 A 
ATOM     12  C   UNL     1       5.872   0.092   1.659  1.00  0.00     0.165 A 
ATOM     13  O   UNL     1       4.765   1.948   1.078  1.00  0.00    -0.454 OA
ATOM     14  O   UNL     1       4.823   0.299   2.557  1.00  0.00    -0.454 OA
ATOM     15  C   UNL     1       3.940   1.264   2.033  1.00  0.00     0.468 C 
ENDBRANCH   6   7
ENDBRANCH   1   6
TORSDOF 4
ENDMDL
MODEL 4
REMARK VINA RESULT:      -7.4      1.949      2.871
REMARK SMILES O=C(O)CCc1ccc2c(c1)OCO2
REMARK SMILES IDX 4 1 2 2 1 3 3 4 5 6 6 7 7 8 11 9 8 10 10 11 9 12 12 13 14 14
REMARK SMILES IDX 13 15
REMARK H PARENT 3 5
REMARK Flexibility Score: inf
ROOT
ATOM      1  C   UNL     1       6.420   1.379   0.582  1.00  0.00     0.127 C 
ENDROOT
BRANCH   1   2
ATOM      2  C   UNL     1       5.185   1.361   1.350  1.00  0.00     0.303 C 
ATOM      3  O   UNL     1       4.247   2.150   1.218  1.00  0.00    -0.252 OA
BRANCH   2   4
ATOM      4  O   UNL     1       5.046   0.361   2.324  1.00  0.00    -0.481 OA
ATOM      5  H   UNL     1       5.424   0.571   3.235  1.00  0.00     0.296 HD
ENDBRANCH   2   4
ENDBRANCH   1   2
BRANCH   1   6
ATOM      6  C   UNL     1       6.270   0.900  -0.808  1.00  0.00     0.047 C 
BRANCH   6   7
ATOM      7  C   UNL     1       7.016  -0.299  -1.196  1.00  0.00    -0.043 A 
ATOM      8  C   UNL     1       7.348  -0.550  -2.518  1.00  0.00     0.008 A 
ATOM      9  C   UNL     1       7.377  -1.232  -0.260  1.00  0.00     0.054 A 
ATOM     10  C   UNL     1       8.018  -1.695  -2.889  1.00  0.00     0.051 A 
ATOM     11  C   UNL     1       8.050  -2.388  -0.609  1.00  0.00     0.166 A 
ATOM     12  C   UNL     1       8.373  -2.623  -1.924  1.00  0.00     0.165 A 
ATOM     13  O   UNL     1       8.507  -3.450   0.151  1.00  0.00    -0.454 OA
ATOM     14  O   UNL     1       9.037  -3.850  -1.962  1.00  0.00    -0.454 OA
ATOM     15  C   UNL     1       8.855  -4.522  -0.737  1.00  0.00     0.468 C 
ENDBRANCH   6   7
ENDBRANCH   1   6
TORSDOF 4
ENDMDL
MODEL 5
REMARK VINA RESULT:      -7.4      1.072      2.154
REMARK SMILES O=C(O)CCc1ccc2c(c1)OCO2
REMARK SMILES IDX 4 1 2 2 1 3 3 4 5 6 6 7 7 8 11 9 8 10 10 11 9 12 12 13 14 14
REMARK SMILES IDX 13 15
REMARK H PARENT 3 5
REMARK Flexibility Score: inf
ROOT
ATOM      1  C   UNL     1       5.784   2.527   0.157  1.00  0.00     0.127 C 
ENDROOT
BRANCH   1   2
ATOM      2  C   UNL     1       6.231   3.699   0.892  1.00  0.00     0.303 C 
ATOM      3  O   UNL     1       6.114   3.872   2.107  1.00  0.00    -0.252 OA
BRANCH   2   4
ATOM      4  O   UNL     1       6.851   4.723   0.159  1.00  0.00    -0.481 OA
ATOM      5  H   UNL     1       6.343   5.592   0.091  1.00  0.00     0.296 HD
ENDBRANCH   2   4
ENDBRANCH   1   2
BRANCH   1   6
ATOM      6  C   UNL     1       5.969   1.254   0.885  1.00  0.00     0.047 C 
BRANCH   6   7
ATOM      7  C   UNL     1       6.639   0.160   0.178  1.00  0.00    -0.043 A 
ATOM      8  C   UNL     1       6.632   0.080  -1.206  1.00  0.00     0.008 A 
ATOM      9  C   UNL     1       7.263  -0.843   0.871  1.00  0.00     0.054 A 
ATOM     10  C   UNL     1       7.230  -0.967  -1.871  1.00  0.00     0.051 A 
ATOM     11  C   UNL     1       7.871  -1.903   0.225  1.00  0.00     0.166 A 
ATOM     12  C   UNL     1       7.857  -1.969  -1.148  1.00  0.00     0.165 A 
ATOM     13  O   UNL     1       8.549  -3.008   0.710  1.00  0.00    -0.454 OA
ATOM     14  O   UNL     1       8.538  -3.134  -1.502  1.00  0.00    -0.454 OA
ATOM     15  C   UNL     1       8.701  -3.949  -0.364  1.00  0.00     0.468 C 
ENDBRANCH   6   7
ENDBRANCH   1   6
TORSDOF 4
ENDMDL
