@<TRIPOS>MOLECULE
/home/cewinharhar/GITHUB/reincatalyze/data/processed/docking_pred/2023-May-17-1006_maxeplen10_maxtrainstep1000_seadep16_gamma099_lrac9e-4_lrcr1e-3_sub6/2734134eb9e7fe1a9a1e6734a306fe03ba38cdbb_ligand_6.pdbqt
 15 16 0 0 0
SMALL
GASTEIGER

@<TRIPOS>ATOM
      1  C          5.4040    2.8700    0.1390 C.3     1  UNL1        0.1270
      2  C          6.2290    3.8570    0.8180 C.2     1  UNL1        0.3030
      3  O          6.8460    4.7740    0.2720 O.2     1  UNL1       -0.2520
      4  O          6.3320    3.7600    2.2140 O.3     1  UNL1       -0.4810
      5  H          7.0800    4.2830    2.6420 H       1  UNL1        0.2960
      6  C          5.3390    1.5650    0.8310 C.3     1  UNL1        0.0470
      7  C          6.1180    0.4600    0.2680 C.2     1  UNL1       -0.0430
      8  C          6.5890   -0.5740    1.0630 C.2     1  UNL1        0.0080
      9  C          6.4390    0.4360   -1.0630 C.2     1  UNL1        0.0540
     10  C          7.3520   -1.5950    0.5420 C.2     1  UNL1        0.0510
     11  C          7.2030   -0.5780   -1.6080 C.2     1  UNL1        0.1660
     12  C          7.6620   -1.5970   -0.8080 C.2     1  UNL1        0.1650
     13  O          7.6420   -0.8050   -2.9010 O.2     1  UNL1       -0.4540
     14  O          8.3930   -2.4560   -1.6300 O.2     1  UNL1       -0.4540
     15  C          8.6540   -1.8220   -2.8600 C.3     1  UNL1        0.4680
@<TRIPOS>BOND
     1    13    15    1
     2    13    11    1
     3    15    14    1
     4    14    12    1
     5    11     9    1
     6    11    12    2
     7     9     7    2
     8    12    10    1
     9     1     2    1
    10     1     6    1
    11     7     6    1
    12     7     8    1
    13     3     2    2
    14    10     8    2
    15     2     4    1
    16     4     5    1
