@<TRIPOS>MOLECULE
/home/cewinharhar/GITHUB/reincatalyze/data/processed/docking_pred/2023-May-17-1006_maxeplen10_maxtrainstep1000_seadep16_gamma099_lrac9e-4_lrcr1e-3_sub6/2734134eb9e7fe1a9a1e6734a306fe03ba38cdbb_ligand_6.pdbqt
 15 16 0 0 0
SMALL
GASTEIGER

@<TRIPOS>ATOM
      1  C          6.4200    1.3790    0.5820 C.3     1  UNL1        0.1270
      2  C          5.1850    1.3610    1.3500 C.2     1  UNL1        0.3030
      3  O          4.2470    2.1500    1.2180 O.2     1  UNL1       -0.2520
      4  O          5.0460    0.3610    2.3240 O.3     1  UNL1       -0.4810
      5  H          5.4240    0.5710    3.2350 H       1  UNL1        0.2960
      6  C          6.2700    0.9000   -0.8080 C.3     1  UNL1        0.0470
      7  C          7.0160   -0.2990   -1.1960 C.2     1  UNL1       -0.0430
      8  C          7.3480   -0.5500   -2.5180 C.2     1  UNL1        0.0080
      9  C          7.3770   -1.2320   -0.2600 C.2     1  UNL1        0.0540
     10  C          8.0180   -1.6950   -2.8890 C.2     1  UNL1        0.0510
     11  C          8.0500   -2.3880   -0.6090 C.2     1  UNL1        0.1660
     12  C          8.3730   -2.6230   -1.9240 C.2     1  UNL1        0.1650
     13  O          8.5070   -3.4500    0.1510 O.2     1  UNL1       -0.4540
     14  O          9.0370   -3.8500   -1.9620 O.2     1  UNL1       -0.4540
     15  C          8.8550   -4.5220   -0.7370 C.3     1  UNL1        0.4680
@<TRIPOS>BOND
     1    10     8    1
     2    10    12    2
     3     8     7    2
     4    14    12    1
     5    14    15    1
     6    12    11    1
     7     7     6    1
     8     7     9    1
     9     6     1    1
    10    15    13    1
    11    11     9    2
    12    11    13    1
    13     1     2    1
    14     3     2    2
    15     2     4    1
    16     4     5    1
