@<TRIPOS>MOLECULE
/home/cewinharhar/GITHUB/reincatalyze/data/processed/docking_pred/2023-May-17-1006_maxeplen10_maxtrainstep1000_seadep16_gamma099_lrac9e-4_lrcr1e-3_sub6/2734134eb9e7fe1a9a1e6734a306fe03ba38cdbb_ligand_6.pdbqt
 15 16 0 0 0
SMALL
GASTEIGER

@<TRIPOS>ATOM
      1  C          5.7840    2.5270    0.1570 C.3     1  UNL1        0.1270
      2  C          6.2310    3.6990    0.8920 C.2     1  UNL1        0.3030
      3  O          6.1140    3.8720    2.1070 O.2     1  UNL1       -0.2520
      4  O          6.8510    4.7230    0.1590 O.3     1  UNL1       -0.4810
      5  H          6.3430    5.5920    0.0910 H       1  UNL1        0.2960
      6  C          5.9690    1.2540    0.8850 C.3     1  UNL1        0.0470
      7  C          6.6390    0.1600    0.1780 C.2     1  UNL1       -0.0430
      8  C          6.6320    0.0800   -1.2060 C.2     1  UNL1        0.0080
      9  C          7.2630   -0.8430    0.8710 C.2     1  UNL1        0.0540
     10  C          7.2300   -0.9670   -1.8710 C.2     1  UNL1        0.0510
     11  C          7.8710   -1.9030    0.2250 C.2     1  UNL1        0.1660
     12  C          7.8570   -1.9690   -1.1480 C.2     1  UNL1        0.1650
     13  O          8.5490   -3.0080    0.7100 O.2     1  UNL1       -0.4540
     14  O          8.5380   -3.1340   -1.5020 O.2     1  UNL1       -0.4540
     15  C          8.7010   -3.9490   -0.3640 C.3     1  UNL1        0.4680
@<TRIPOS>BOND
     1    10     8    1
     2    10    12    2
     3    14    12    1
     4    14    15    1
     5     8     7    2
     6    12    11    1
     7    15    13    1
     8     5     4    1
     9     1     6    1
    10     1     2    1
    11     4     2    1
    12     7     9    1
    13     7     6    1
    14    11    13    1
    15    11     9    2
    16     2     3    2
