@<TRIPOS>MOLECULE
/home/cewinharhar/GITHUB/reincatalyze/data/processed/docking_pred/2023-May-17-1006_maxeplen10_maxtrainstep1000_seadep16_gamma099_lrac9e-4_lrcr1e-3_sub6/2734134eb9e7fe1a9a1e6734a306fe03ba38cdbb_ligand_6.pdbqt
 15 16 0 0 0
SMALL
GASTEIGER

@<TRIPOS>ATOM
      1  C          8.2320   -0.2130   -2.8370 C.3     1  UNL1        0.1270
      2  C          8.4640   -1.6370   -3.0280 C.2     1  UNL1        0.3030
      3  O          9.5480   -2.2100   -2.9020 O.2     1  UNL1       -0.2520
      4  O          7.3610   -2.4270   -3.3860 O.3     1  UNL1       -0.4810
      5  H          7.4020   -2.8660   -4.2930 H       1  UNL1        0.2960
      6  C          8.6830    0.2970   -1.5240 C.3     1  UNL1        0.0470
      7  C          7.7330    0.2340   -0.4110 C.2     1  UNL1       -0.0430
      8  C          7.7690   -0.7980    0.5140 C.2     1  UNL1        0.0080
      9  C          6.7520    1.1800   -0.2740 C.2     1  UNL1        0.0540
     10  C          6.8540   -0.8780    1.5400 C.2     1  UNL1        0.0510
     11  C          5.8240    1.1200    0.7490 C.2     1  UNL1        0.1660
     12  C          5.8720    0.0920    1.6590 C.2     1  UNL1        0.1650
     13  O          4.7650    1.9480    1.0780 O.2     1  UNL1       -0.4540
     14  O          4.8230    0.2990    2.5570 O.2     1  UNL1       -0.4540
     15  C          3.9400    1.2640    2.0330 C.3     1  UNL1        0.4680
@<TRIPOS>BOND
     1     5     4    1
     2     4     2    1
     3     2     3    2
     4     2     1    1
     5     1     6    1
     6     6     7    1
     7     7     9    2
     8     7     8    1
     9     9    11    1
    10     8    10    2
    11    11    13    1
    12    11    12    2
    13    13    15    1
    14    10    12    1
    15    12    14    1
    16    15    14    1
