@<TRIPOS>MOLECULE
/home/cewinharhar/GITHUB/reincatalyze/data/processed/docking_pred/2023-May-17-1006_maxeplen10_maxtrainstep1000_seadep16_gamma099_lrac9e-4_lrcr1e-3_sub6/2b606219d5526e18d91eeb9dfd7a568ae4147191_ligand_6.pdbqt
 15 16 0 0 0
SMALL
GASTEIGER

@<TRIPOS>ATOM
      1  C          6.4180    1.2960    0.7290 C.3     1  UNL1        0.1270
      2  C          5.1740    1.3080    1.4820 C.2     1  UNL1        0.3030
      3  O          4.2620    2.1260    1.3450 O.2     1  UNL1       -0.2520
      4  O          4.9940    0.3050    2.4470 O.3     1  UNL1       -0.4810
      5  H          4.6270   -0.5730    2.1130 H       1  UNL1        0.2960
      6  C          6.2610    0.8910   -0.6840 C.3     1  UNL1        0.0470
      7  C          7.0000   -0.2890   -1.1380 C.2     1  UNL1       -0.0430
      8  C          7.2770   -0.4990   -2.4800 C.2     1  UNL1        0.0080
      9  C          7.4070   -1.2450   -0.2460 C.2     1  UNL1        0.0540
     10  C          7.9400   -1.6260   -2.9110 C.2     1  UNL1        0.0510
     11  C          8.0740   -2.3840   -0.6560 C.2     1  UNL1        0.1660
     12  C          8.3440   -2.5780   -1.9890 C.2     1  UNL1        0.1650
     13  O          8.5720   -3.4630    0.0540 O.2     1  UNL1       -0.4540
     14  O          9.0160   -3.7970   -2.0910 O.2     1  UNL1       -0.4540
     15  C          8.8910   -4.5060   -0.8800 C.3     1  UNL1        0.4680
@<TRIPOS>BOND
     1    10     8    1
     2    10    12    2
     3     8     7    2
     4    14    12    1
     5    14    15    1
     6    12    11    1
     7     7     6    1
     8     7     9    1
     9    15    13    1
    10     6     1    1
    11    11     9    2
    12    11    13    1
    13     1     2    1
    14     3     2    2
    15     2     4    1
    16     5     4    1
