MODEL 1
REMARK VINA RESULT:      -7.7      0.000      0.000
REMARK SMILES O=C(O)CCc1ccc2c(c1)OCO2
REMARK SMILES IDX 4 1 2 2 1 3 3 4 5 6 6 7 7 8 11 9 8 10 10 11 9 12 12 13 14 14
REMARK SMILES IDX 13 15
REMARK H PARENT 3 5
REMARK Flexibility Score: inf
ROOT
ATOM      1  C   UNL     1       5.406   2.876   0.105  1.00  0.00     0.127 C 
ENDROOT
BRANCH   1   2
ATOM      2  C   UNL     1       6.234   3.852   0.797  1.00  0.00     0.303 C 
ATOM      3  O   UNL     1       6.874   4.758   0.261  1.00  0.00    -0.252 OA
BRANCH   2   4
ATOM      4  O   UNL     1       6.312   3.754   2.195  1.00  0.00    -0.481 OA
ATOM      5  H   UNL     1       6.401   4.624   2.698  1.00  0.00     0.296 HD
ENDBRANCH   2   4
ENDBRANCH   1   2
BRANCH   1   6
ATOM      6  C   UNL     1       5.317   1.570   0.792  1.00  0.00     0.047 C 
BRANCH   6   7
ATOM      7  C   UNL     1       6.102   0.461   0.245  1.00  0.00    -0.043 A 
ATOM      8  C   UNL     1       6.559  -0.570   1.051  1.00  0.00     0.008 A 
ATOM      9  C   UNL     1       6.441   0.432  -1.081  1.00  0.00     0.054 A 
ATOM     10  C   UNL     1       7.328  -1.594   0.544  1.00  0.00     0.051 A 
ATOM     11  C   UNL     1       7.211  -0.586  -1.612  1.00  0.00     0.166 A 
ATOM     12  C   UNL     1       7.657  -1.602  -0.801  1.00  0.00     0.165 A 
ATOM     13  O   UNL     1       7.668  -0.818  -2.897  1.00  0.00    -0.454 OA
ATOM     14  O   UNL     1       8.398  -2.466  -1.609  1.00  0.00    -0.454 OA
ATOM     15  C   UNL     1       8.678  -1.837  -2.838  1.00  0.00     0.468 C 
ENDBRANCH   6   7
ENDBRANCH   1   6
TORSDOF 4
ENDMDL
MODEL 2
REMARK VINA RESULT:      -7.6      2.126      2.519
REMARK SMILES O=C(O)CCc1ccc2c(c1)OCO2
REMARK SMILES IDX 4 1 2 2 1 3 3 4 5 6 6 7 7 8 11 9 8 10 10 11 9 12 12 13 14 14
REMARK SMILES IDX 13 15
REMARK H PARENT 3 5
REMARK Flexibility Score: inf
ROOT
ATOM      1  C   UNL     1       4.736   1.889   0.691  1.00  0.00     0.127 C 
ENDROOT
BRANCH   1   2
ATOM      2  C   UNL     1       4.429   1.164   1.914  1.00  0.00     0.303 C 
ATOM      3  O   UNL     1       5.159   0.334   2.459  1.00  0.00    -0.252 OA
BRANCH   2   4
ATOM      4  O   UNL     1       3.195   1.430   2.529  1.00  0.00    -0.481 OA
ATOM      5  H   UNL     1       2.408   0.893   2.198  1.00  0.00     0.296 HD
ENDBRANCH   2   4
ENDBRANCH   1   2
BRANCH   1   6
ATOM      6  C   UNL     1       6.165   2.238   0.544  1.00  0.00     0.047 C 
BRANCH   6   7
ATOM      7  C   UNL     1       7.008   1.327  -0.235  1.00  0.00    -0.043 A 
ATOM      8  C   UNL     1       8.368   1.547  -0.384  1.00  0.00     0.008 A 
ATOM      9  C   UNL     1       6.464   0.245  -0.875  1.00  0.00     0.054 A 
ATOM     10  C   UNL     1       9.155   0.712  -1.146  1.00  0.00     0.051 A 
ATOM     11  C   UNL     1       7.234  -0.607  -1.644  1.00  0.00     0.166 A 
ATOM     12  C   UNL     1       8.581  -0.377  -1.782  1.00  0.00     0.165 A 
ATOM     13  O   UNL     1       6.907  -1.740  -2.368  1.00  0.00    -0.454 OA
ATOM     14  O   UNL     1       9.081  -1.388  -2.604  1.00  0.00    -0.454 OA
ATOM     15  C   UNL     1       8.011  -2.058  -3.228  1.00  0.00     0.468 C 
ENDBRANCH   6   7
ENDBRANCH   1   6
TORSDOF 4
ENDMDL
MODEL 3
REMARK VINA RESULT:      -7.5      1.960      2.864
REMARK SMILES O=C(O)CCc1ccc2c(c1)OCO2
REMARK SMILES IDX 4 1 2 2 1 3 3 4 5 6 6 7 7 8 11 9 8 10 10 11 9 12 12 13 14 14
REMARK SMILES IDX 13 15
REMARK H PARENT 3 5
REMARK Flexibility Score: inf
ROOT
ATOM      1  C   UNL     1       6.418   1.296   0.729  1.00  0.00     0.127 C 
ENDROOT
BRANCH   1   2
ATOM      2  C   UNL     1       5.174   1.308   1.482  1.00  0.00     0.303 C 
ATOM      3  O   UNL     1       4.262   2.126   1.345  1.00  0.00    -0.252 OA
BRANCH   2   4
ATOM      4  O   UNL     1       4.994   0.305   2.447  1.00  0.00    -0.481 OA
ATOM      5  H   UNL     1       4.627  -0.573   2.113  1.00  0.00     0.296 HD
ENDBRANCH   2   4
ENDBRANCH   1   2
BRANCH   1   6
ATOM      6  C   UNL     1       6.261   0.891  -0.684  1.00  0.00     0.047 C 
BRANCH   6   7
ATOM      7  C   UNL     1       7.000  -0.289  -1.138  1.00  0.00    -0.043 A 
ATOM      8  C   UNL     1       7.277  -0.499  -2.480  1.00  0.00     0.008 A 
ATOM      9  C   UNL     1       7.407  -1.245  -0.246  1.00  0.00     0.054 A 
ATOM     10  C   UNL     1       7.940  -1.626  -2.911  1.00  0.00     0.051 A 
ATOM     11  C   UNL     1       8.074  -2.384  -0.656  1.00  0.00     0.166 A 
ATOM     12  C   UNL     1       8.344  -2.578  -1.989  1.00  0.00     0.165 A 
ATOM     13  O   UNL     1       8.572  -3.463   0.054  1.00  0.00    -0.454 OA
ATOM     14  O   UNL     1       9.016  -3.797  -2.091  1.00  0.00    -0.454 OA
ATOM     15  C   UNL     1       8.891  -4.506  -0.880  1.00  0.00     0.468 C 
ENDBRANCH   6   7
ENDBRANCH   1   6
TORSDOF 4
ENDMDL
MODEL 4
REMARK VINA RESULT:      -7.4      1.788      5.277
REMARK SMILES O=C(O)CCc1ccc2c(c1)OCO2
REMARK SMILES IDX 4 1 2 2 1 3 3 4 5 6 6 7 7 8 11 9 8 10 10 11 9 12 12 13 14 14
REMARK SMILES IDX 13 15
REMARK H PARENT 3 5
REMARK Flexibility Score: inf
ROOT
ATOM      1  C   UNL     1       8.311  -0.323  -2.863  1.00  0.00     0.127 C 
ENDROOT
BRANCH   1   2
ATOM      2  C   UNL     1       8.474  -1.752  -3.078  1.00  0.00     0.303 C 
ATOM      3  O   UNL     1       9.542  -2.366  -3.042  1.00  0.00    -0.252 OA
BRANCH   2   4
ATOM      4  O   UNL     1       7.317  -2.498  -3.351  1.00  0.00    -0.481 OA
ATOM      5  H   UNL     1       6.495  -1.970  -3.602  1.00  0.00     0.296 HD
ENDBRANCH   2   4
ENDBRANCH   1   2
BRANCH   1   6
ATOM      6  C   UNL     1       8.762   0.139  -1.533  1.00  0.00     0.047 C 
BRANCH   6   7
ATOM      7  C   UNL     1       7.792   0.097  -0.437  1.00  0.00    -0.043 A 
ATOM      8  C   UNL     1       7.736  -0.976   0.440  1.00  0.00     0.008 A 
ATOM      9  C   UNL     1       6.881   1.105  -0.268  1.00  0.00     0.054 A 
ATOM     10  C   UNL     1       6.800  -1.034   1.449  1.00  0.00     0.051 A 
ATOM     11  C   UNL     1       5.934   1.069   0.738  1.00  0.00     0.166 A 
ATOM     12  C   UNL     1       5.890  -0.000   1.600  1.00  0.00     0.165 A 
ATOM     13  O   UNL     1       4.934   1.958   1.091  1.00  0.00    -0.454 OA
ATOM     14  O   UNL     1       4.845   0.244   2.492  1.00  0.00    -0.454 OA
ATOM     15  C   UNL     1       4.045   1.295   2.002  1.00  0.00     0.468 C 
ENDBRANCH   6   7
ENDBRANCH   1   6
TORSDOF 4
ENDMDL
MODEL 5
REMARK VINA RESULT:      -7.4      1.088      2.164
REMARK SMILES O=C(O)CCc1ccc2c(c1)OCO2
REMARK SMILES IDX 4 1 2 2 1 3 3 4 5 6 6 7 7 8 11 9 8 10 10 11 9 12 12 13 14 14
REMARK SMILES IDX 13 15
REMARK H PARENT 3 5
REMARK Flexibility Score: inf
ROOT
ATOM      1  C   UNL     1       5.821   2.530   0.314  1.00  0.00     0.127 C 
ENDROOT
BRANCH   1   2
ATOM      2  C   UNL     1       6.322   3.686   1.041  1.00  0.00     0.303 C 
ATOM      3  O   UNL     1       6.362   3.798   2.268  1.00  0.00    -0.252 OA
BRANCH   2   4
ATOM      4  O   UNL     1       6.800   4.767   0.284  1.00  0.00    -0.481 OA
ATOM      5  H   UNL     1       6.136   5.201  -0.339  1.00  0.00     0.296 HD
ENDBRANCH   2   4
ENDBRANCH   1   2
BRANCH   1   6
ATOM      6  C   UNL     1       6.003   1.247   1.026  1.00  0.00     0.047 C 
BRANCH   6   7
ATOM      7  C   UNL     1       6.657   0.156   0.301  1.00  0.00    -0.043 A 
ATOM      8  C   UNL     1       6.604   0.070  -1.081  1.00  0.00     0.008 A 
ATOM      9  C   UNL     1       7.312  -0.839   0.977  1.00  0.00     0.054 A 
ATOM     10  C   UNL     1       7.188  -0.975  -1.762  1.00  0.00     0.051 A 
ATOM     11  C   UNL     1       7.907  -1.897   0.315  1.00  0.00     0.166 A 
ATOM     12  C   UNL     1       7.847  -1.969  -1.056  1.00  0.00     0.165 A 
ATOM     13  O   UNL     1       8.609  -2.995   0.781  1.00  0.00    -0.454 OA
ATOM     14  O   UNL     1       8.525  -3.130  -1.429  1.00  0.00    -0.454 OA
ATOM     15  C   UNL     1       8.733  -3.939  -0.294  1.00  0.00     0.468 C 
ENDBRANCH   6   7
ENDBRANCH   1   6
TORSDOF 4
ENDMDL
