@<TRIPOS>MOLECULE
/home/cewinharhar/GITHUB/reincatalyze/data/processed/docking_pred/2023-May-17-1006_maxeplen10_maxtrainstep1000_seadep16_gamma099_lrac9e-4_lrcr1e-3_sub6/2b606219d5526e18d91eeb9dfd7a568ae4147191_ligand_6.pdbqt
 15 16 0 0 0
SMALL
GASTEIGER

@<TRIPOS>ATOM
      1  C          4.7360    1.8890    0.6910 C.3     1  UNL1        0.1270
      2  C          4.4290    1.1640    1.9140 C.2     1  UNL1        0.3030
      3  O          5.1590    0.3340    2.4590 O.2     1  UNL1       -0.2520
      4  O          3.1950    1.4300    2.5290 O.3     1  UNL1       -0.4810
      5  H          2.4080    0.8930    2.1980 H       1  UNL1        0.2960
      6  C          6.1650    2.2380    0.5440 C.3     1  UNL1        0.0470
      7  C          7.0080    1.3270   -0.2350 C.2     1  UNL1       -0.0430
      8  C          8.3680    1.5470   -0.3840 C.2     1  UNL1        0.0080
      9  C          6.4640    0.2450   -0.8750 C.2     1  UNL1        0.0540
     10  C          9.1550    0.7120   -1.1460 C.2     1  UNL1        0.0510
     11  C          7.2340   -0.6070   -1.6440 C.2     1  UNL1        0.1660
     12  C          8.5810   -0.3770   -1.7820 C.2     1  UNL1        0.1650
     13  O          6.9070   -1.7400   -2.3680 O.2     1  UNL1       -0.4540
     14  O          9.0810   -1.3880   -2.6040 O.2     1  UNL1       -0.4540
     15  C          8.0110   -2.0580   -3.2280 C.3     1  UNL1        0.4680
@<TRIPOS>BOND
     1    15    14    1
     2    15    13    1
     3    14    12    1
     4    13    11    1
     5    12    11    2
     6    12    10    1
     7    11     9    1
     8    10     8    2
     9     9     7    2
    10     8     7    1
    11     7     6    1
    12     6     1    1
    13     1     2    1
    14     2     3    2
    15     2     4    1
    16     5     4    1
