@<TRIPOS>MOLECULE
/home/cewinharhar/GITHUB/reincatalyze/data/processed/docking_pred/2023-May-17-1006_maxeplen10_maxtrainstep1000_seadep16_gamma099_lrac9e-4_lrcr1e-3_sub6/2b606219d5526e18d91eeb9dfd7a568ae4147191_ligand_6.pdbqt
 15 16 0 0 0
SMALL
GASTEIGER

@<TRIPOS>ATOM
      1  C          8.3110   -0.3230   -2.8630 C.3     1  UNL1        0.1270
      2  C          8.4740   -1.7520   -3.0780 C.2     1  UNL1        0.3030
      3  O          9.5420   -2.3660   -3.0420 O.2     1  UNL1       -0.2520
      4  O          7.3170   -2.4980   -3.3510 O.3     1  UNL1       -0.4810
      5  H          6.4950   -1.9700   -3.6020 H       1  UNL1        0.2960
      6  C          8.7620    0.1390   -1.5330 C.3     1  UNL1        0.0470
      7  C          7.7920    0.0970   -0.4370 C.2     1  UNL1       -0.0430
      8  C          7.7360   -0.9760    0.4400 C.2     1  UNL1        0.0080
      9  C          6.8810    1.1050   -0.2680 C.2     1  UNL1        0.0540
     10  C          6.8000   -1.0340    1.4490 C.2     1  UNL1        0.0510
     11  C          5.9340    1.0690    0.7380 C.2     1  UNL1        0.1660
     12  C          5.8900   -0.0000    1.6000 C.2     1  UNL1        0.1650
     13  O          4.9340    1.9580    1.0910 O.2     1  UNL1       -0.4540
     14  O          4.8450    0.2440    2.4920 O.2     1  UNL1       -0.4540
     15  C          4.0450    1.2950    2.0020 C.3     1  UNL1        0.4680
@<TRIPOS>BOND
     1     5     4    1
     2     4     2    1
     3     2     3    2
     4     2     1    1
     5     1     6    1
     6     6     7    1
     7     7     9    2
     8     7     8    1
     9     9    11    1
    10     8    10    2
    11    11    13    1
    12    11    12    2
    13    13    15    1
    14    10    12    1
    15    12    14    1
    16    15    14    1
