@<TRIPOS>MOLECULE
/home/cewinharhar/GITHUB/reincatalyze/data/processed/docking_pred/2023-May-17-1006_maxeplen10_maxtrainstep1000_seadep16_gamma099_lrac9e-4_lrcr1e-3_sub6/2b606219d5526e18d91eeb9dfd7a568ae4147191_ligand_6.pdbqt
 15 16 0 0 0
SMALL
GASTEIGER

@<TRIPOS>ATOM
      1  C          5.4060    2.8760    0.1050 C.3     1  UNL1        0.1270
      2  C          6.2340    3.8520    0.7970 C.2     1  UNL1        0.3030
      3  O          6.8740    4.7580    0.2610 O.2     1  UNL1       -0.2520
      4  O          6.3120    3.7540    2.1950 O.3     1  UNL1       -0.4810
      5  H          6.4010    4.6240    2.6980 H       1  UNL1        0.2960
      6  C          5.3170    1.5700    0.7920 C.3     1  UNL1        0.0470
      7  C          6.1020    0.4610    0.2450 C.2     1  UNL1       -0.0430
      8  C          6.5590   -0.5700    1.0510 C.2     1  UNL1        0.0080
      9  C          6.4410    0.4320   -1.0810 C.2     1  UNL1        0.0540
     10  C          7.3280   -1.5940    0.5440 C.2     1  UNL1        0.0510
     11  C          7.2110   -0.5860   -1.6120 C.2     1  UNL1        0.1660
     12  C          7.6570   -1.6020   -0.8010 C.2     1  UNL1        0.1650
     13  O          7.6680   -0.8180   -2.8970 O.2     1  UNL1       -0.4540
     14  O          8.3980   -2.4660   -1.6090 O.2     1  UNL1       -0.4540
     15  C          8.6780   -1.8370   -2.8380 C.3     1  UNL1        0.4680
@<TRIPOS>BOND
     1    13    15    1
     2    13    11    1
     3    15    14    1
     4    11     9    1
     5    11    12    2
     6    14    12    1
     7     9     7    2
     8    12    10    1
     9     1     6    1
    10     1     2    1
    11     7     6    1
    12     7     8    1
    13     3     2    2
    14    10     8    2
    15     2     4    1
    16     4     5    1
