@<TRIPOS>MOLECULE
/home/cewinharhar/GITHUB/reincatalyze/data/processed/docking_pred/2023-May-17-1006_maxeplen10_maxtrainstep1000_seadep16_gamma099_lrac9e-4_lrcr1e-3_sub6/2b606219d5526e18d91eeb9dfd7a568ae4147191_ligand_6.pdbqt
 15 16 0 0 0
SMALL
GASTEIGER

@<TRIPOS>ATOM
      1  C          5.8210    2.5300    0.3140 C.3     1  UNL1        0.1270
      2  C          6.3220    3.6860    1.0410 C.2     1  UNL1        0.3030
      3  O          6.3620    3.7980    2.2680 O.2     1  UNL1       -0.2520
      4  O          6.8000    4.7670    0.2840 O.3     1  UNL1       -0.4810
      5  H          6.1360    5.2010   -0.3390 H       1  UNL1        0.2960
      6  C          6.0030    1.2470    1.0260 C.3     1  UNL1        0.0470
      7  C          6.6570    0.1560    0.3010 C.2     1  UNL1       -0.0430
      8  C          6.6040    0.0700   -1.0810 C.2     1  UNL1        0.0080
      9  C          7.3120   -0.8390    0.9770 C.2     1  UNL1        0.0540
     10  C          7.1880   -0.9750   -1.7620 C.2     1  UNL1        0.0510
     11  C          7.9070   -1.8970    0.3150 C.2     1  UNL1        0.1660
     12  C          7.8470   -1.9690   -1.0560 C.2     1  UNL1        0.1650
     13  O          8.6090   -2.9950    0.7810 O.2     1  UNL1       -0.4540
     14  O          8.5250   -3.1300   -1.4290 O.2     1  UNL1       -0.4540
     15  C          8.7330   -3.9390   -0.2940 C.3     1  UNL1        0.4680
@<TRIPOS>BOND
     1    10     8    1
     2    10    12    2
     3    14    12    1
     4    14    15    1
     5     8     7    2
     6    12    11    1
     7     5     4    1
     8    15    13    1
     9     4     2    1
    10     7     9    1
    11     7     6    1
    12     1     6    1
    13     1     2    1
    14    11    13    1
    15    11     9    2
    16     2     3    2
