@<TRIPOS>MOLECULE
/home/cewinharhar/GITHUB/reincatalyze/data/processed/docking_pred/2023-May-17-1006_maxeplen10_maxtrainstep1000_seadep16_gamma099_lrac9e-4_lrcr1e-3_sub6/2b611616233e02901686b2fc0a6dd8ec9c570ff2_ligand_6.pdbqt
 15 16 0 0 0
SMALL
GASTEIGER

@<TRIPOS>ATOM
      1  C          5.7150    2.5780    0.1690 C.3     1  UNL1        0.1270
      2  C          6.2110    3.7250    0.9140 C.2     1  UNL1        0.3030
      3  O          6.0990    3.8930    2.1300 O.2     1  UNL1       -0.2520
      4  O          6.8750    4.7270    0.1890 O.3     1  UNL1       -0.4810
      5  H          7.2530    5.4910    0.7280 H       1  UNL1        0.2960
      6  C          5.8700    1.2900    0.8760 C.3     1  UNL1        0.0470
      7  C          6.5710    0.2120    0.1750 C.2     1  UNL1       -0.0430
      8  C          6.6150    0.1580   -1.2100 C.2     1  UNL1        0.0080
      9  C          7.1730   -0.8020    0.8710 C.2     1  UNL1        0.0540
     10  C          7.2430   -0.8750   -1.8710 C.2     1  UNL1        0.0510
     11  C          7.8090   -1.8470    0.2290 C.2     1  UNL1        0.1660
     12  C          7.8460   -1.8870   -1.1440 C.2     1  UNL1        0.1650
     13  O          8.4740   -2.9580    0.7180 O.2     1  UNL1       -0.4540
     14  O          8.5450   -3.0430   -1.4940 O.2     1  UNL1       -0.4540
     15  C          8.6700   -3.8780   -0.3660 C.3     1  UNL1        0.4680
@<TRIPOS>BOND
     1    10     8    1
     2    10    12    2
     3    14    12    1
     4    14    15    1
     5     8     7    2
     6    12    11    1
     7    15    13    1
     8     1     6    1
     9     1     2    1
    10     7     9    1
    11     7     6    1
    12     4     5    1
    13     4     2    1
    14    11    13    1
    15    11     9    2
    16     2     3    2
