@<TRIPOS>MOLECULE
/home/cewinharhar/GITHUB/reincatalyze/data/processed/docking_pred/2023-May-17-1006_maxeplen10_maxtrainstep1000_seadep16_gamma099_lrac9e-4_lrcr1e-3_sub6/2b611616233e02901686b2fc0a6dd8ec9c570ff2_ligand_6.pdbqt
 15 16 0 0 0
SMALL
GASTEIGER

@<TRIPOS>ATOM
      1  C          8.2940   -0.3220   -2.8500 C.3     1  UNL1        0.1270
      2  C          8.4580   -1.7500   -3.0750 C.2     1  UNL1        0.3030
      3  O          9.5250   -2.3650   -3.0290 O.2     1  UNL1       -0.2520
      4  O          7.3040   -2.4930   -3.3700 O.3     1  UNL1       -0.4810
      5  H          6.4860   -2.2810   -2.8200 H       1  UNL1        0.2960
      6  C          8.7580    0.1340   -1.5220 C.3     1  UNL1        0.0470
      7  C          7.7950    0.0970   -0.4190 C.2     1  UNL1       -0.0430
      8  C          7.7720   -0.9520    0.4870 C.2     1  UNL1        0.0080
      9  C          6.8590    1.0860   -0.2730 C.2     1  UNL1        0.0540
     10  C          6.8440   -1.0060    1.5030 C.2     1  UNL1        0.0510
     11  C          5.9190    1.0520    0.7390 C.2     1  UNL1        0.1660
     12  C          5.9080    0.0070    1.6310 C.2     1  UNL1        0.1650
     13  O          4.8970    1.9240    1.0740 O.2     1  UNL1       -0.4540
     14  O          4.8610    0.2480    2.5220 O.2     1  UNL1       -0.4540
     15  C          4.0310    1.2640    2.0090 C.3     1  UNL1        0.4680
@<TRIPOS>BOND
     1     4     2    1
     2     4     5    1
     3     2     3    2
     4     2     1    1
     5     1     6    1
     6     6     7    1
     7     7     9    2
     8     7     8    1
     9     9    11    1
    10     8    10    2
    11    11    13    1
    12    11    12    2
    13    13    15    1
    14    10    12    1
    15    12    14    1
    16    15    14    1
