@<TRIPOS>MOLECULE
/home/cewinharhar/GITHUB/reincatalyze/data/processed/docking_pred/2023-May-17-1006_maxeplen10_maxtrainstep1000_seadep16_gamma099_lrac9e-4_lrcr1e-3_sub6/2b611616233e02901686b2fc0a6dd8ec9c570ff2_ligand_6.pdbqt
 15 16 0 0 0
SMALL
GASTEIGER

@<TRIPOS>ATOM
      1  C          4.7030    1.8560    0.6950 C.3     1  UNL1        0.1270
      2  C          4.3990    1.1480    1.9290 C.2     1  UNL1        0.3030
      3  O          5.1270    0.3180    2.4770 O.2     1  UNL1       -0.2520
      4  O          3.1730    1.4320    2.5490 O.3     1  UNL1       -0.4810
      5  H          2.3970    1.6280    1.9350 H       1  UNL1        0.2960
      6  C          6.1280    2.2230    0.5490 C.3     1  UNL1        0.0470
      7  C          6.9830    1.3220   -0.2260 C.2     1  UNL1       -0.0430
      8  C          8.3420    1.5580   -0.3700 C.2     1  UNL1        0.0080
      9  C          6.4540    0.2340   -0.8690 C.2     1  UNL1        0.0540
     10  C          9.1410    0.7320   -1.1290 C.2     1  UNL1        0.0510
     11  C          7.2370   -0.6080   -1.6350 C.2     1  UNL1        0.1660
     12  C          8.5820   -0.3630   -1.7680 C.2     1  UNL1        0.1650
     13  O          6.9250   -1.7450   -2.3600 O.2     1  UNL1       -0.4540
     14  O          9.0970   -1.3680   -2.5880 O.2     1  UNL1       -0.4540
     15  C          8.0360   -2.0510   -3.2170 C.3     1  UNL1        0.4680
@<TRIPOS>BOND
     1    15    14    1
     2    15    13    1
     3    14    12    1
     4    13    11    1
     5    12    11    2
     6    12    10    1
     7    11     9    1
     8    10     8    2
     9     9     7    2
    10     8     7    1
    11     7     6    1
    12     6     1    1
    13     1     2    1
    14     2     3    2
    15     2     4    1
    16     5     4    1
