MODEL 1
REMARK VINA RESULT:      -7.6      0.000      0.000
REMARK SMILES O=C(O)CCc1ccc2c(c1)OCO2
REMARK SMILES IDX 4 1 2 2 1 3 3 4 5 6 6 7 7 8 11 9 8 10 10 11 9 12 12 13 14 14
REMARK SMILES IDX 13 15
REMARK H PARENT 3 5
REMARK Flexibility Score: inf
ROOT
ATOM      1  C   UNL     1       5.421   2.870   0.117  1.00  0.00     0.127 C 
ENDROOT
BRANCH   1   2
ATOM      2  C   UNL     1       6.255   3.857   0.786  1.00  0.00     0.303 C 
ATOM      3  O   UNL     1       6.912   4.736   0.227  1.00  0.00    -0.252 OA
BRANCH   2   4
ATOM      4  O   UNL     1       6.317   3.804   2.187  1.00  0.00    -0.481 OA
ATOM      5  H   UNL     1       5.559   4.247   2.683  1.00  0.00     0.296 HD
ENDBRANCH   2   4
ENDBRANCH   1   2
BRANCH   1   6
ATOM      6  C   UNL     1       5.356   1.568   0.815  1.00  0.00     0.047 C 
BRANCH   6   7
ATOM      7  C   UNL     1       6.126   0.458   0.250  1.00  0.00    -0.043 A 
ATOM      8  C   UNL     1       6.564  -0.595   1.038  1.00  0.00     0.008 A 
ATOM      9  C   UNL     1       6.470   0.448  -1.076  1.00  0.00     0.054 A 
ATOM     10  C   UNL     1       7.319  -1.622   0.515  1.00  0.00     0.051 A 
ATOM     11  C   UNL     1       7.226  -0.572  -1.623  1.00  0.00     0.166 A 
ATOM     12  C   UNL     1       7.653  -1.610  -0.830  1.00  0.00     0.165 A 
ATOM     13  O   UNL     1       7.685  -0.787  -2.911  1.00  0.00    -0.454 OA
ATOM     14  O   UNL     1       8.384  -2.470  -1.651  1.00  0.00    -0.454 OA
ATOM     15  C   UNL     1       8.678  -1.823  -2.867  1.00  0.00     0.468 C 
ENDBRANCH   6   7
ENDBRANCH   1   6
TORSDOF 4
ENDMDL
MODEL 2
REMARK VINA RESULT:      -7.6      2.140      2.534
REMARK SMILES O=C(O)CCc1ccc2c(c1)OCO2
REMARK SMILES IDX 4 1 2 2 1 3 3 4 5 6 6 7 7 8 11 9 8 10 10 11 9 12 12 13 14 14
REMARK SMILES IDX 13 15
REMARK H PARENT 3 5
REMARK Flexibility Score: inf
ROOT
ATOM      1  C   UNL     1       4.703   1.856   0.695  1.00  0.00     0.127 C 
ENDROOT
BRANCH   1   2
ATOM      2  C   UNL     1       4.399   1.148   1.929  1.00  0.00     0.303 C 
ATOM      3  O   UNL     1       5.127   0.318   2.477  1.00  0.00    -0.252 OA
BRANCH   2   4
ATOM      4  O   UNL     1       3.173   1.432   2.549  1.00  0.00    -0.481 OA
ATOM      5  H   UNL     1       2.397   1.628   1.935  1.00  0.00     0.296 HD
ENDBRANCH   2   4
ENDBRANCH   1   2
BRANCH   1   6
ATOM      6  C   UNL     1       6.128   2.223   0.549  1.00  0.00     0.047 C 
BRANCH   6   7
ATOM      7  C   UNL     1       6.983   1.322  -0.226  1.00  0.00    -0.043 A 
ATOM      8  C   UNL     1       8.342   1.558  -0.370  1.00  0.00     0.008 A 
ATOM      9  C   UNL     1       6.454   0.234  -0.869  1.00  0.00     0.054 A 
ATOM     10  C   UNL     1       9.141   0.732  -1.129  1.00  0.00     0.051 A 
ATOM     11  C   UNL     1       7.237  -0.608  -1.635  1.00  0.00     0.166 A 
ATOM     12  C   UNL     1       8.582  -0.363  -1.768  1.00  0.00     0.165 A 
ATOM     13  O   UNL     1       6.925  -1.745  -2.360  1.00  0.00    -0.454 OA
ATOM     14  O   UNL     1       9.097  -1.368  -2.588  1.00  0.00    -0.454 OA
ATOM     15  C   UNL     1       8.036  -2.051  -3.217  1.00  0.00     0.468 C 
ENDBRANCH   6   7
ENDBRANCH   1   6
TORSDOF 4
ENDMDL
MODEL 3
REMARK VINA RESULT:      -7.5      1.957      2.863
REMARK SMILES O=C(O)CCc1ccc2c(c1)OCO2
REMARK SMILES IDX 4 1 2 2 1 3 3 4 5 6 6 7 7 8 11 9 8 10 10 11 9 12 12 13 14 14
REMARK SMILES IDX 13 15
REMARK H PARENT 3 5
REMARK Flexibility Score: inf
ROOT
ATOM      1  C   UNL     1       6.422   1.352   0.659  1.00  0.00     0.127 C 
ENDROOT
BRANCH   1   2
ATOM      2  C   UNL     1       5.201   1.352   1.449  1.00  0.00     0.303 C 
ATOM      3  O   UNL     1       4.263   2.141   1.320  1.00  0.00    -0.252 OA
BRANCH   2   4
ATOM      4  O   UNL     1       5.078   0.371   2.445  1.00  0.00    -0.481 OA
ATOM      5  H   UNL     1       5.903  -0.177   2.635  1.00  0.00     0.296 HD
ENDBRANCH   2   4
ENDBRANCH   1   2
BRANCH   1   6
ATOM      6  C   UNL     1       6.238   0.881  -0.730  1.00  0.00     0.047 C 
BRANCH   6   7
ATOM      7  C   UNL     1       6.987  -0.307  -1.147  1.00  0.00    -0.043 A 
ATOM      8  C   UNL     1       7.284  -0.545  -2.480  1.00  0.00     0.008 A 
ATOM      9  C   UNL     1       7.385  -1.242  -0.229  1.00  0.00     0.054 A 
ATOM     10  C   UNL     1       7.957  -1.679  -2.878  1.00  0.00     0.051 A 
ATOM     11  C   UNL     1       8.062  -2.387  -0.605  1.00  0.00     0.166 A 
ATOM     12  C   UNL     1       8.350  -2.610  -1.929  1.00  0.00     0.165 A 
ATOM     13  O   UNL     1       8.553  -3.449   0.135  1.00  0.00    -0.454 OA
ATOM     14  O   UNL     1       9.027  -3.828  -1.995  1.00  0.00    -0.454 OA
ATOM     15  C   UNL     1       8.888  -4.511  -0.770  1.00  0.00     0.468 C 
ENDBRANCH   6   7
ENDBRANCH   1   6
TORSDOF 4
ENDMDL
MODEL 4
REMARK VINA RESULT:      -7.5      1.811      5.276
REMARK SMILES O=C(O)CCc1ccc2c(c1)OCO2
REMARK SMILES IDX 4 1 2 2 1 3 3 4 5 6 6 7 7 8 11 9 8 10 10 11 9 12 12 13 14 14
REMARK SMILES IDX 13 15
REMARK H PARENT 3 5
REMARK Flexibility Score: inf
ROOT
ATOM      1  C   UNL     1       8.294  -0.322  -2.850  1.00  0.00     0.127 C 
ENDROOT
BRANCH   1   2
ATOM      2  C   UNL     1       8.458  -1.750  -3.075  1.00  0.00     0.303 C 
ATOM      3  O   UNL     1       9.525  -2.365  -3.029  1.00  0.00    -0.252 OA
BRANCH   2   4
ATOM      4  O   UNL     1       7.304  -2.493  -3.370  1.00  0.00    -0.481 OA
ATOM      5  H   UNL     1       6.486  -2.281  -2.820  1.00  0.00     0.296 HD
ENDBRANCH   2   4
ENDBRANCH   1   2
BRANCH   1   6
ATOM      6  C   UNL     1       8.758   0.134  -1.522  1.00  0.00     0.047 C 
BRANCH   6   7
ATOM      7  C   UNL     1       7.795   0.097  -0.419  1.00  0.00    -0.043 A 
ATOM      8  C   UNL     1       7.772  -0.952   0.487  1.00  0.00     0.008 A 
ATOM      9  C   UNL     1       6.859   1.086  -0.273  1.00  0.00     0.054 A 
ATOM     10  C   UNL     1       6.844  -1.006   1.503  1.00  0.00     0.051 A 
ATOM     11  C   UNL     1       5.919   1.052   0.739  1.00  0.00     0.166 A 
ATOM     12  C   UNL     1       5.908   0.007   1.631  1.00  0.00     0.165 A 
ATOM     13  O   UNL     1       4.897   1.924   1.074  1.00  0.00    -0.454 OA
ATOM     14  O   UNL     1       4.861   0.248   2.522  1.00  0.00    -0.454 OA
ATOM     15  C   UNL     1       4.031   1.264   2.009  1.00  0.00     0.468 C 
ENDBRANCH   6   7
ENDBRANCH   1   6
TORSDOF 4
ENDMDL
MODEL 5
REMARK VINA RESULT:      -7.4      1.029      2.132
REMARK SMILES O=C(O)CCc1ccc2c(c1)OCO2
REMARK SMILES IDX 4 1 2 2 1 3 3 4 5 6 6 7 7 8 11 9 8 10 10 11 9 12 12 13 14 14
REMARK SMILES IDX 13 15
REMARK H PARENT 3 5
REMARK Flexibility Score: inf
ROOT
ATOM      1  C   UNL     1       5.715   2.578   0.169  1.00  0.00     0.127 C 
ENDROOT
BRANCH   1   2
ATOM      2  C   UNL     1       6.211   3.725   0.914  1.00  0.00     0.303 C 
ATOM      3  O   UNL     1       6.099   3.893   2.130  1.00  0.00    -0.252 OA
BRANCH   2   4
ATOM      4  O   UNL     1       6.875   4.727   0.189  1.00  0.00    -0.481 OA
ATOM      5  H   UNL     1       7.253   5.491   0.728  1.00  0.00     0.296 HD
ENDBRANCH   2   4
ENDBRANCH   1   2
BRANCH   1   6
ATOM      6  C   UNL     1       5.870   1.290   0.876  1.00  0.00     0.047 C 
BRANCH   6   7
ATOM      7  C   UNL     1       6.571   0.212   0.175  1.00  0.00    -0.043 A 
ATOM      8  C   UNL     1       6.615   0.158  -1.210  1.00  0.00     0.008 A 
ATOM      9  C   UNL     1       7.173  -0.802   0.871  1.00  0.00     0.054 A 
ATOM     10  C   UNL     1       7.243  -0.875  -1.871  1.00  0.00     0.051 A 
ATOM     11  C   UNL     1       7.809  -1.847   0.229  1.00  0.00     0.166 A 
ATOM     12  C   UNL     1       7.846  -1.887  -1.144  1.00  0.00     0.165 A 
ATOM     13  O   UNL     1       8.474  -2.958   0.718  1.00  0.00    -0.454 OA
ATOM     14  O   UNL     1       8.545  -3.043  -1.494  1.00  0.00    -0.454 OA
ATOM     15  C   UNL     1       8.670  -3.878  -0.366  1.00  0.00     0.468 C 
ENDBRANCH   6   7
ENDBRANCH   1   6
TORSDOF 4
ENDMDL
