@<TRIPOS>MOLECULE
/home/cewinharhar/GITHUB/reincatalyze/data/processed/docking_pred/2023-May-17-1006_maxeplen10_maxtrainstep1000_seadep16_gamma099_lrac9e-4_lrcr1e-3_sub6/2b611616233e02901686b2fc0a6dd8ec9c570ff2_ligand_6.pdbqt
 15 16 0 0 0
SMALL
GASTEIGER

@<TRIPOS>ATOM
      1  C          5.4210    2.8700    0.1170 C.3     1  UNL1        0.1270
      2  C          6.2550    3.8570    0.7860 C.2     1  UNL1        0.3030
      3  O          6.9120    4.7360    0.2270 O.2     1  UNL1       -0.2520
      4  O          6.3170    3.8040    2.1870 O.3     1  UNL1       -0.4810
      5  H          5.5590    4.2470    2.6830 H       1  UNL1        0.2960
      6  C          5.3560    1.5680    0.8150 C.3     1  UNL1        0.0470
      7  C          6.1260    0.4580    0.2500 C.2     1  UNL1       -0.0430
      8  C          6.5640   -0.5950    1.0380 C.2     1  UNL1        0.0080
      9  C          6.4700    0.4480   -1.0760 C.2     1  UNL1        0.0540
     10  C          7.3190   -1.6220    0.5150 C.2     1  UNL1        0.0510
     11  C          7.2260   -0.5720   -1.6230 C.2     1  UNL1        0.1660
     12  C          7.6530   -1.6100   -0.8300 C.2     1  UNL1        0.1650
     13  O          7.6850   -0.7870   -2.9110 O.2     1  UNL1       -0.4540
     14  O          8.3840   -2.4700   -1.6510 O.2     1  UNL1       -0.4540
     15  C          8.6780   -1.8230   -2.8670 C.3     1  UNL1        0.4680
@<TRIPOS>BOND
     1    13    15    1
     2    13    11    1
     3    15    14    1
     4    14    12    1
     5    11     9    1
     6    11    12    2
     7     9     7    2
     8    12    10    1
     9     1     2    1
    10     1     6    1
    11     3     2    2
    12     7     6    1
    13     7     8    1
    14    10     8    2
    15     2     4    1
    16     4     5    1
