@<TRIPOS>MOLECULE
/home/cewinharhar/GITHUB/reincatalyze/data/processed/docking_pred/2023-May-17-1006_maxeplen10_maxtrainstep1000_seadep16_gamma099_lrac9e-4_lrcr1e-3_sub6/2b611616233e02901686b2fc0a6dd8ec9c570ff2_ligand_6.pdbqt
 15 16 0 0 0
SMALL
GASTEIGER

@<TRIPOS>ATOM
      1  C          6.4220    1.3520    0.6590 C.3     1  UNL1        0.1270
      2  C          5.2010    1.3520    1.4490 C.2     1  UNL1        0.3030
      3  O          4.2630    2.1410    1.3200 O.2     1  UNL1       -0.2520
      4  O          5.0780    0.3710    2.4450 O.3     1  UNL1       -0.4810
      5  H          5.9030   -0.1770    2.6350 H       1  UNL1        0.2960
      6  C          6.2380    0.8810   -0.7300 C.3     1  UNL1        0.0470
      7  C          6.9870   -0.3070   -1.1470 C.2     1  UNL1       -0.0430
      8  C          7.2840   -0.5450   -2.4800 C.2     1  UNL1        0.0080
      9  C          7.3850   -1.2420   -0.2290 C.2     1  UNL1        0.0540
     10  C          7.9570   -1.6790   -2.8780 C.2     1  UNL1        0.0510
     11  C          8.0620   -2.3870   -0.6050 C.2     1  UNL1        0.1660
     12  C          8.3500   -2.6100   -1.9290 C.2     1  UNL1        0.1650
     13  O          8.5530   -3.4490    0.1350 O.2     1  UNL1       -0.4540
     14  O          9.0270   -3.8280   -1.9950 O.2     1  UNL1       -0.4540
     15  C          8.8880   -4.5110   -0.7700 C.3     1  UNL1        0.4680
@<TRIPOS>BOND
     1    10     8    1
     2    10    12    2
     3     8     7    2
     4    14    12    1
     5    14    15    1
     6    12    11    1
     7     7     6    1
     8     7     9    1
     9    15    13    1
    10     6     1    1
    11    11     9    2
    12    11    13    1
    13     1     2    1
    14     3     2    2
    15     2     4    1
    16     4     5    1
