@<TRIPOS>MOLECULE
/home/cewinharhar/GITHUB/reincatalyze/data/processed/docking_pred/2023-May-17-1006_maxeplen10_maxtrainstep1000_seadep16_gamma099_lrac9e-4_lrcr1e-3_sub6/2bd7ebd6000506c3611824cd415c5dddcf27ad2f_ligand_6.pdbqt
 15 16 0 0 0
SMALL
GASTEIGER

@<TRIPOS>ATOM
      1  C          5.4380    2.9060    0.2080 C.3     1  UNL1        0.1270
      2  C          6.3200    3.8500    0.8780 C.2     1  UNL1        0.3030
      3  O          7.2580    4.4520    0.3520 O.2     1  UNL1       -0.2520
      4  O          6.0830    4.0980    2.2390 O.3     1  UNL1       -0.4810
      5  H          6.8280    4.5530    2.7440 H       1  UNL1        0.2960
      6  C          5.3480    1.5910    0.8770 C.3     1  UNL1        0.0470
      7  C          6.1170    0.4850    0.3030 C.2     1  UNL1       -0.0430
      8  C          6.5790   -0.5610    1.0870 C.2     1  UNL1        0.0080
      9  C          6.4370    0.4720   -1.0290 C.2     1  UNL1        0.0540
     10  C          7.3330   -1.5830    0.5550 C.2     1  UNL1        0.0510
     11  C          7.1920   -0.5430   -1.5850 C.2     1  UNL1        0.1660
     12  C          7.6420   -1.5740   -0.7960 C.2     1  UNL1        0.1650
     13  O          7.6290   -0.7600   -2.8800 O.2     1  UNL1       -0.4540
     14  O          8.3650   -2.4320   -1.6260 O.2     1  UNL1       -0.4540
     15  C          8.6320   -1.7870   -2.8500 C.3     1  UNL1        0.4680
@<TRIPOS>BOND
     1    13    15    1
     2    13    11    1
     3    15    14    1
     4    14    12    1
     5    11     9    1
     6    11    12    2
     7     9     7    2
     8    12    10    1
     9     1     6    1
    10     1     2    1
    11     7     6    1
    12     7     8    1
    13     3     2    2
    14    10     8    2
    15     2     4    1
    16     4     5    1
