@<TRIPOS>MOLECULE
/home/cewinharhar/GITHUB/reincatalyze/data/processed/docking_pred/2023-May-17-1006_maxeplen10_maxtrainstep1000_seadep16_gamma099_lrac9e-4_lrcr1e-3_sub6/2bd7ebd6000506c3611824cd415c5dddcf27ad2f_ligand_6.pdbqt
 15 16 0 0 0
SMALL
GASTEIGER

@<TRIPOS>ATOM
      1  C          8.3120   -0.3240   -2.8460 C.3     1  UNL1        0.1270
      2  C          8.4700   -1.7530   -3.0680 C.2     1  UNL1        0.3030
      3  O          9.5350   -2.3700   -3.0340 O.2     1  UNL1       -0.2520
      4  O          7.3100   -2.4940   -3.3440 O.3     1  UNL1       -0.4810
      5  H          7.3610   -3.4850   -3.1640 H       1  UNL1        0.2960
      6  C          8.7660    0.1310   -1.5150 C.3     1  UNL1        0.0470
      7  C          7.7950    0.0950   -0.4190 C.2     1  UNL1       -0.0430
      8  C          7.7430   -0.9680    0.4680 C.2     1  UNL1        0.0080
      9  C          6.8790    1.1010   -0.2630 C.2     1  UNL1        0.0540
     10  C          6.8070   -1.0200    1.4770 C.2     1  UNL1        0.0510
     11  C          5.9310    1.0710    0.7430 C.2     1  UNL1        0.1660
     12  C          5.8910    0.0110    1.6160 C.2     1  UNL1        0.1650
     13  O          4.9260    1.9580    1.0850 O.2     1  UNL1       -0.4540
     14  O          4.8440    0.2590    2.5040 O.2     1  UNL1       -0.4540
     15  C          4.0390    1.3010    2.0020 C.3     1  UNL1        0.4680
@<TRIPOS>BOND
     1     4     5    1
     2     4     2    1
     3     2     3    2
     4     2     1    1
     5     1     6    1
     6     6     7    1
     7     7     9    2
     8     7     8    1
     9     9    11    1
    10     8    10    2
    11    11    13    1
    12    11    12    2
    13    13    15    1
    14    10    12    1
    15    12    14    1
    16    15    14    1
