MODEL 1
REMARK VINA RESULT:      -7.6      0.000      0.000
REMARK SMILES O=C(O)CCc1ccc2c(c1)OCO2
REMARK SMILES IDX 4 1 2 2 1 3 3 4 5 6 6 7 7 8 11 9 8 10 10 11 9 12 12 13 14 14
REMARK SMILES IDX 13 15
REMARK H PARENT 3 5
REMARK Flexibility Score: inf
ROOT
ATOM      1  C   UNL     1       4.716   1.877   0.699  1.00  0.00     0.127 C 
ENDROOT
BRANCH   1   2
ATOM      2  C   UNL     1       4.421   1.145   1.921  1.00  0.00     0.303 C 
ATOM      3  O   UNL     1       5.158   0.314   2.454  1.00  0.00    -0.252 OA
BRANCH   2   4
ATOM      4  O   UNL     1       3.193   1.407   2.549  1.00  0.00    -0.481 OA
ATOM      5  H   UNL     1       2.984   0.853   3.366  1.00  0.00     0.296 HD
ENDBRANCH   2   4
ENDBRANCH   1   2
BRANCH   1   6
ATOM      6  C   UNL     1       6.142   2.234   0.542  1.00  0.00     0.047 C 
BRANCH   6   7
ATOM      7  C   UNL     1       6.987   1.322  -0.231  1.00  0.00    -0.043 A 
ATOM      8  C   UNL     1       8.351   1.531  -0.359  1.00  0.00     0.008 A 
ATOM      9  C   UNL     1       6.442   0.250  -0.887  1.00  0.00     0.054 A 
ATOM     10  C   UNL     1       9.141   0.694  -1.116  1.00  0.00     0.051 A 
ATOM     11  C   UNL     1       7.216  -0.604  -1.652  1.00  0.00     0.166 A 
ATOM     12  C   UNL     1       8.567  -0.385  -1.768  1.00  0.00     0.165 A 
ATOM     13  O   UNL     1       6.889  -1.729  -2.388  1.00  0.00    -0.454 OA
ATOM     14  O   UNL     1       9.069  -1.395  -2.591  1.00  0.00    -0.454 OA
ATOM     15  C   UNL     1       8.002  -2.051  -3.235  1.00  0.00     0.468 C 
ENDBRANCH   6   7
ENDBRANCH   1   6
TORSDOF 4
ENDMDL
MODEL 2
REMARK VINA RESULT:      -7.5      1.854      2.510
REMARK SMILES O=C(O)CCc1ccc2c(c1)OCO2
REMARK SMILES IDX 4 1 2 2 1 3 3 4 5 6 6 7 7 8 11 9 8 10 10 11 9 12 12 13 14 14
REMARK SMILES IDX 13 15
REMARK H PARENT 3 5
REMARK Flexibility Score: inf
ROOT
ATOM      1  C   UNL     1       6.400   1.275   0.658  1.00  0.00     0.127 C 
ENDROOT
BRANCH   1   2
ATOM      2  C   UNL     1       5.179   1.278   1.447  1.00  0.00     0.303 C 
ATOM      3  O   UNL     1       4.249   2.078   1.326  1.00  0.00    -0.252 OA
BRANCH   2   4
ATOM      4  O   UNL     1       5.045   0.287   2.432  1.00  0.00    -0.481 OA
ATOM      5  H   UNL     1       5.885  -0.212   2.678  1.00  0.00     0.296 HD
ENDBRANCH   2   4
ENDBRANCH   1   2
BRANCH   1   6
ATOM      6  C   UNL     1       6.216   0.804  -0.732  1.00  0.00     0.047 C 
BRANCH   6   7
ATOM      7  C   UNL     1       6.974  -0.376  -1.153  1.00  0.00    -0.043 A 
ATOM      8  C   UNL     1       7.268  -0.610  -2.488  1.00  0.00     0.008 A 
ATOM      9  C   UNL     1       7.384  -1.308  -0.238  1.00  0.00     0.054 A 
ATOM     10  C   UNL     1       7.949  -1.737  -2.890  1.00  0.00     0.051 A 
ATOM     11  C   UNL     1       8.070  -2.447  -0.618  1.00  0.00     0.166 A 
ATOM     12  C   UNL     1       8.354  -2.665  -1.944  1.00  0.00     0.165 A 
ATOM     13  O   UNL     1       8.573  -3.505   0.119  1.00  0.00    -0.454 OA
ATOM     14  O   UNL     1       9.043  -3.877  -2.014  1.00  0.00    -0.454 OA
ATOM     15  C   UNL     1       8.914  -4.563  -0.790  1.00  0.00     0.468 C 
ENDBRANCH   6   7
ENDBRANCH   1   6
TORSDOF 4
ENDMDL
MODEL 3
REMARK VINA RESULT:      -7.5      2.143      2.498
REMARK SMILES O=C(O)CCc1ccc2c(c1)OCO2
REMARK SMILES IDX 4 1 2 2 1 3 3 4 5 6 6 7 7 8 11 9 8 10 10 11 9 12 12 13 14 14
REMARK SMILES IDX 13 15
REMARK H PARENT 3 5
REMARK Flexibility Score: inf
ROOT
ATOM      1  C   UNL     1       5.438   2.906   0.208  1.00  0.00     0.127 C 
ENDROOT
BRANCH   1   2
ATOM      2  C   UNL     1       6.320   3.850   0.878  1.00  0.00     0.303 C 
ATOM      3  O   UNL     1       7.258   4.452   0.352  1.00  0.00    -0.252 OA
BRANCH   2   4
ATOM      4  O   UNL     1       6.083   4.098   2.239  1.00  0.00    -0.481 OA
ATOM      5  H   UNL     1       6.828   4.553   2.744  1.00  0.00     0.296 HD
ENDBRANCH   2   4
ENDBRANCH   1   2
BRANCH   1   6
ATOM      6  C   UNL     1       5.348   1.591   0.877  1.00  0.00     0.047 C 
BRANCH   6   7
ATOM      7  C   UNL     1       6.117   0.485   0.303  1.00  0.00    -0.043 A 
ATOM      8  C   UNL     1       6.579  -0.561   1.087  1.00  0.00     0.008 A 
ATOM      9  C   UNL     1       6.437   0.472  -1.029  1.00  0.00     0.054 A 
ATOM     10  C   UNL     1       7.333  -1.583   0.555  1.00  0.00     0.051 A 
ATOM     11  C   UNL     1       7.192  -0.543  -1.585  1.00  0.00     0.166 A 
ATOM     12  C   UNL     1       7.642  -1.574  -0.796  1.00  0.00     0.165 A 
ATOM     13  O   UNL     1       7.629  -0.760  -2.880  1.00  0.00    -0.454 OA
ATOM     14  O   UNL     1       8.365  -2.432  -1.626  1.00  0.00    -0.454 OA
ATOM     15  C   UNL     1       8.632  -1.787  -2.850  1.00  0.00     0.468 C 
ENDBRANCH   6   7
ENDBRANCH   1   6
TORSDOF 4
ENDMDL
MODEL 4
REMARK VINA RESULT:      -7.5      1.445      5.373
REMARK SMILES O=C(O)CCc1ccc2c(c1)OCO2
REMARK SMILES IDX 4 1 2 2 1 3 3 4 5 6 6 7 7 8 11 9 8 10 10 11 9 12 12 13 14 14
REMARK SMILES IDX 13 15
REMARK H PARENT 3 5
REMARK Flexibility Score: inf
ROOT
ATOM      1  C   UNL     1       8.312  -0.324  -2.846  1.00  0.00     0.127 C 
ENDROOT
BRANCH   1   2
ATOM      2  C   UNL     1       8.470  -1.753  -3.068  1.00  0.00     0.303 C 
ATOM      3  O   UNL     1       9.535  -2.370  -3.034  1.00  0.00    -0.252 OA
BRANCH   2   4
ATOM      4  O   UNL     1       7.310  -2.494  -3.344  1.00  0.00    -0.481 OA
ATOM      5  H   UNL     1       7.361  -3.485  -3.164  1.00  0.00     0.296 HD
ENDBRANCH   2   4
ENDBRANCH   1   2
BRANCH   1   6
ATOM      6  C   UNL     1       8.766   0.131  -1.515  1.00  0.00     0.047 C 
BRANCH   6   7
ATOM      7  C   UNL     1       7.795   0.095  -0.419  1.00  0.00    -0.043 A 
ATOM      8  C   UNL     1       7.743  -0.968   0.468  1.00  0.00     0.008 A 
ATOM      9  C   UNL     1       6.879   1.101  -0.263  1.00  0.00     0.054 A 
ATOM     10  C   UNL     1       6.807  -1.020   1.477  1.00  0.00     0.051 A 
ATOM     11  C   UNL     1       5.931   1.071   0.743  1.00  0.00     0.166 A 
ATOM     12  C   UNL     1       5.891   0.011   1.616  1.00  0.00     0.165 A 
ATOM     13  O   UNL     1       4.926   1.958   1.085  1.00  0.00    -0.454 OA
ATOM     14  O   UNL     1       4.844   0.259   2.504  1.00  0.00    -0.454 OA
ATOM     15  C   UNL     1       4.039   1.301   2.002  1.00  0.00     0.468 C 
ENDBRANCH   6   7
ENDBRANCH   1   6
TORSDOF 4
ENDMDL
