@<TRIPOS>MOLECULE
/home/cewinharhar/GITHUB/reincatalyze/data/processed/docking_pred/2023-May-17-1006_maxeplen10_maxtrainstep1000_seadep16_gamma099_lrac9e-4_lrcr1e-3_sub6/2bd7ebd6000506c3611824cd415c5dddcf27ad2f_ligand_6.pdbqt
 15 16 0 0 0
SMALL
GASTEIGER

@<TRIPOS>ATOM
      1  C          6.4000    1.2750    0.6580 C.3     1  UNL1        0.1270
      2  C          5.1790    1.2780    1.4470 C.2     1  UNL1        0.3030
      3  O          4.2490    2.0780    1.3260 O.2     1  UNL1       -0.2520
      4  O          5.0450    0.2870    2.4320 O.3     1  UNL1       -0.4810
      5  H          5.8850   -0.2120    2.6780 H       1  UNL1        0.2960
      6  C          6.2160    0.8040   -0.7320 C.3     1  UNL1        0.0470
      7  C          6.9740   -0.3760   -1.1530 C.2     1  UNL1       -0.0430
      8  C          7.2680   -0.6100   -2.4880 C.2     1  UNL1        0.0080
      9  C          7.3840   -1.3080   -0.2380 C.2     1  UNL1        0.0540
     10  C          7.9490   -1.7370   -2.8900 C.2     1  UNL1        0.0510
     11  C          8.0700   -2.4470   -0.6180 C.2     1  UNL1        0.1660
     12  C          8.3540   -2.6650   -1.9440 C.2     1  UNL1        0.1650
     13  O          8.5730   -3.5050    0.1190 O.2     1  UNL1       -0.4540
     14  O          9.0430   -3.8770   -2.0140 O.2     1  UNL1       -0.4540
     15  C          8.9140   -4.5630   -0.7900 C.3     1  UNL1        0.4680
@<TRIPOS>BOND
     1    10     8    1
     2    10    12    2
     3     8     7    2
     4    14    12    1
     5    14    15    1
     6    12    11    1
     7     7     6    1
     8     7     9    1
     9    15    13    1
    10     6     1    1
    11    11     9    2
    12    11    13    1
    13     1     2    1
    14     3     2    2
    15     2     4    1
    16     4     5    1
