@<TRIPOS>MOLECULE
/home/cewinharhar/GITHUB/reincatalyze/data/processed/docking_pred/2023-May-17-1006_maxeplen10_maxtrainstep1000_seadep16_gamma099_lrac9e-4_lrcr1e-3_sub6/2bd7ebd6000506c3611824cd415c5dddcf27ad2f_ligand_6.pdbqt
 15 16 0 0 0
SMALL
GASTEIGER

@<TRIPOS>ATOM
      1  C          4.7160    1.8770    0.6990 C.3     1  UNL1        0.1270
      2  C          4.4210    1.1450    1.9210 C.2     1  UNL1        0.3030
      3  O          5.1580    0.3140    2.4540 O.2     1  UNL1       -0.2520
      4  O          3.1930    1.4070    2.5490 O.3     1  UNL1       -0.4810
      5  H          2.9840    0.8530    3.3660 H       1  UNL1        0.2960
      6  C          6.1420    2.2340    0.5420 C.3     1  UNL1        0.0470
      7  C          6.9870    1.3220   -0.2310 C.2     1  UNL1       -0.0430
      8  C          8.3510    1.5310   -0.3590 C.2     1  UNL1        0.0080
      9  C          6.4420    0.2500   -0.8870 C.2     1  UNL1        0.0540
     10  C          9.1410    0.6940   -1.1160 C.2     1  UNL1        0.0510
     11  C          7.2160   -0.6040   -1.6520 C.2     1  UNL1        0.1660
     12  C          8.5670   -0.3850   -1.7680 C.2     1  UNL1        0.1650
     13  O          6.8890   -1.7290   -2.3880 O.2     1  UNL1       -0.4540
     14  O          9.0690   -1.3950   -2.5910 O.2     1  UNL1       -0.4540
     15  C          8.0020   -2.0510   -3.2350 C.3     1  UNL1        0.4680
@<TRIPOS>BOND
     1    15    14    1
     2    15    13    1
     3    14    12    1
     4    13    11    1
     5    12    11    2
     6    12    10    1
     7    11     9    1
     8    10     8    2
     9     9     7    2
    10     8     7    1
    11     7     6    1
    12     6     1    1
    13     1     2    1
    14     2     3    2
    15     2     4    1
    16     4     5    1
