@<TRIPOS>MOLECULE
/home/cewinharhar/GITHUB/reincatalyze/data/processed/docking_pred/2023-May-17-1006_maxeplen10_maxtrainstep1000_seadep16_gamma099_lrac9e-4_lrcr1e-3_sub6/2cf69de7cf34ef354308742c6722c88054a527ce_ligand_6.pdbqt
 15 16 0 0 0
SMALL
GASTEIGER

@<TRIPOS>ATOM
      1  C          6.3920    1.3250    0.6390 C.3     1  UNL1        0.1270
      2  C          5.1840    1.3230    1.4480 C.2     1  UNL1        0.3030
      3  O          4.2600    2.1330    1.3590 O.2     1  UNL1       -0.2520
      4  O          5.0580    0.3130    2.4150 O.3     1  UNL1       -0.4810
      5  H          5.2810    0.5740    3.3630 H       1  UNL1        0.2960
      6  C          6.1860    0.8550   -0.7480 C.3     1  UNL1        0.0470
      7  C          6.9570   -0.3080   -1.1910 C.2     1  UNL1       -0.0430
      8  C          7.2630   -0.5090   -2.5280 C.2     1  UNL1        0.0080
      9  C          7.3690   -1.2580   -0.2940 C.2     1  UNL1        0.0540
     10  C          7.9570   -1.6210   -2.9500 C.2     1  UNL1        0.0510
     11  C          8.0670   -2.3820   -0.6940 C.2     1  UNL1        0.1660
     12  C          8.3640   -2.5670   -2.0230 C.2     1  UNL1        0.1650
     13  O          8.5740   -3.4520    0.0210 O.2     1  UNL1       -0.4540
     14  O          9.0630   -3.7720   -2.1160 O.2     1  UNL1       -0.4540
     15  C          8.9310   -4.4860   -0.9090 C.3     1  UNL1        0.4680
@<TRIPOS>BOND
     1    10     8    1
     2    10    12    2
     3     8     7    2
     4    14    12    1
     5    14    15    1
     6    12    11    1
     7     7     6    1
     8     7     9    1
     9    15    13    1
    10     6     1    1
    11    11     9    2
    12    11    13    1
    13     1     2    1
    14     3     2    2
    15     2     4    1
    16     4     5    1
