MODEL 1
REMARK VINA RESULT:      -7.6      0.000      0.000
REMARK SMILES O=C(O)CCc1ccc2c(c1)OCO2
REMARK SMILES IDX 4 1 2 2 1 3 3 4 5 6 6 7 7 8 11 9 8 10 10 11 9 12 12 13 14 14
REMARK SMILES IDX 13 15
REMARK H PARENT 3 5
REMARK Flexibility Score: inf
ROOT
ATOM      1  C   UNL     1       4.669   1.848   0.695  1.00  0.00     0.127 C 
ENDROOT
BRANCH   1   2
ATOM      2  C   UNL     1       4.382   1.142   1.934  1.00  0.00     0.303 C 
ATOM      3  O   UNL     1       5.118   0.317   2.477  1.00  0.00    -0.252 OA
BRANCH   2   4
ATOM      4  O   UNL     1       3.160   1.422   2.567  1.00  0.00    -0.481 OA
ATOM      5  H   UNL     1       2.347   0.962   2.188  1.00  0.00     0.296 HD
ENDBRANCH   2   4
ENDBRANCH   1   2
BRANCH   1   6
ATOM      6  C   UNL     1       6.089   2.228   0.537  1.00  0.00     0.047 C 
BRANCH   6   7
ATOM      7  C   UNL     1       6.951   1.325  -0.229  1.00  0.00    -0.043 A 
ATOM      8  C   UNL     1       8.311   1.559  -0.360  1.00  0.00     0.008 A 
ATOM      9  C   UNL     1       6.427   0.236  -0.874  1.00  0.00     0.054 A 
ATOM     10  C   UNL     1       9.116   0.730  -1.110  1.00  0.00     0.051 A 
ATOM     11  C   UNL     1       7.215  -0.609  -1.632  1.00  0.00     0.166 A 
ATOM     12  C   UNL     1       8.562  -0.365  -1.752  1.00  0.00     0.165 A 
ATOM     13  O   UNL     1       6.909  -1.747  -2.357  1.00  0.00    -0.454 OA
ATOM     14  O   UNL     1       9.083  -1.373  -2.565  1.00  0.00    -0.454 OA
ATOM     15  C   UNL     1       8.028  -2.055  -3.203  1.00  0.00     0.468 C 
ENDBRANCH   6   7
ENDBRANCH   1   6
TORSDOF 4
ENDMDL
MODEL 2
REMARK VINA RESULT:      -7.5      2.474      2.811
REMARK SMILES O=C(O)CCc1ccc2c(c1)OCO2
REMARK SMILES IDX 4 1 2 2 1 3 3 4 5 6 6 7 7 8 11 9 8 10 10 11 9 12 12 13 14 14
REMARK SMILES IDX 13 15
REMARK H PARENT 3 5
REMARK Flexibility Score: inf
ROOT
ATOM      1  C   UNL     1       5.398   2.831   0.108  1.00  0.00     0.127 C 
ENDROOT
BRANCH   1   2
ATOM      2  C   UNL     1       6.239   3.810   0.780  1.00  0.00     0.303 C 
ATOM      3  O   UNL     1       6.915   4.676   0.223  1.00  0.00    -0.252 OA
BRANCH   2   4
ATOM      4  O   UNL     1       6.286   3.765   2.182  1.00  0.00    -0.481 OA
ATOM      5  H   UNL     1       6.235   2.849   2.600  1.00  0.00     0.296 HD
ENDBRANCH   2   4
ENDBRANCH   1   2
BRANCH   1   6
ATOM      6  C   UNL     1       5.393   1.501   0.753  1.00  0.00     0.047 C 
BRANCH   6   7
ATOM      7  C   UNL     1       6.220   0.453   0.150  1.00  0.00    -0.043 A 
ATOM      8  C   UNL     1       6.484   0.431  -1.211  1.00  0.00     0.008 A 
ATOM      9  C   UNL     1       6.729  -0.564   0.914  1.00  0.00     0.054 A 
ATOM     10  C   UNL     1       7.231  -0.573  -1.784  1.00  0.00     0.051 A 
ATOM     11  C   UNL     1       7.482  -1.582   0.360  1.00  0.00     0.166 A 
ATOM     12  C   UNL     1       7.736  -1.590  -0.990  1.00  0.00     0.165 A 
ATOM     13  O   UNL     1       8.086  -2.691   0.927  1.00  0.00    -0.454 OA
ATOM     14  O   UNL     1       8.508  -2.724  -1.248  1.00  0.00    -0.454 OA
ATOM     15  C   UNL     1       8.472  -3.582  -0.131  1.00  0.00     0.468 C 
ENDBRANCH   6   7
ENDBRANCH   1   6
TORSDOF 4
ENDMDL
MODEL 3
REMARK VINA RESULT:      -7.5      1.790      2.453
REMARK SMILES O=C(O)CCc1ccc2c(c1)OCO2
REMARK SMILES IDX 4 1 2 2 1 3 3 4 5 6 6 7 7 8 11 9 8 10 10 11 9 12 12 13 14 14
REMARK SMILES IDX 13 15
REMARK H PARENT 3 5
REMARK Flexibility Score: inf
ROOT
ATOM      1  C   UNL     1       6.392   1.325   0.639  1.00  0.00     0.127 C 
ENDROOT
BRANCH   1   2
ATOM      2  C   UNL     1       5.184   1.323   1.448  1.00  0.00     0.303 C 
ATOM      3  O   UNL     1       4.260   2.133   1.359  1.00  0.00    -0.252 OA
BRANCH   2   4
ATOM      4  O   UNL     1       5.058   0.313   2.415  1.00  0.00    -0.481 OA
ATOM      5  H   UNL     1       5.281   0.574   3.363  1.00  0.00     0.296 HD
ENDBRANCH   2   4
ENDBRANCH   1   2
BRANCH   1   6
ATOM      6  C   UNL     1       6.186   0.855  -0.748  1.00  0.00     0.047 C 
BRANCH   6   7
ATOM      7  C   UNL     1       6.957  -0.308  -1.191  1.00  0.00    -0.043 A 
ATOM      8  C   UNL     1       7.263  -0.509  -2.528  1.00  0.00     0.008 A 
ATOM      9  C   UNL     1       7.369  -1.258  -0.294  1.00  0.00     0.054 A 
ATOM     10  C   UNL     1       7.957  -1.621  -2.950  1.00  0.00     0.051 A 
ATOM     11  C   UNL     1       8.067  -2.382  -0.694  1.00  0.00     0.166 A 
ATOM     12  C   UNL     1       8.364  -2.567  -2.023  1.00  0.00     0.165 A 
ATOM     13  O   UNL     1       8.574  -3.452   0.021  1.00  0.00    -0.454 OA
ATOM     14  O   UNL     1       9.063  -3.772  -2.116  1.00  0.00    -0.454 OA
ATOM     15  C   UNL     1       8.931  -4.486  -0.909  1.00  0.00     0.468 C 
ENDBRANCH   6   7
ENDBRANCH   1   6
TORSDOF 4
ENDMDL
MODEL 4
REMARK VINA RESULT:      -7.5      1.451      5.382
REMARK SMILES O=C(O)CCc1ccc2c(c1)OCO2
REMARK SMILES IDX 4 1 2 2 1 3 3 4 5 6 6 7 7 8 11 9 8 10 10 11 9 12 12 13 14 14
REMARK SMILES IDX 13 15
REMARK H PARENT 3 5
REMARK Flexibility Score: inf
ROOT
ATOM      1  C   UNL     1       8.301  -0.318  -2.834  1.00  0.00     0.127 C 
ENDROOT
BRANCH   1   2
ATOM      2  C   UNL     1       8.466  -1.746  -3.060  1.00  0.00     0.303 C 
ATOM      3  O   UNL     1       9.533  -2.360  -3.021  1.00  0.00    -0.252 OA
BRANCH   2   4
ATOM      4  O   UNL     1       7.311  -2.490  -3.348  1.00  0.00    -0.481 OA
ATOM      5  H   UNL     1       6.538  -1.977  -3.744  1.00  0.00     0.296 HD
ENDBRANCH   2   4
ENDBRANCH   1   2
BRANCH   1   6
ATOM      6  C   UNL     1       8.762   0.135  -1.504  1.00  0.00     0.047 C 
BRANCH   6   7
ATOM      7  C   UNL     1       7.795   0.103  -0.405  1.00  0.00    -0.043 A 
ATOM      8  C   UNL     1       7.764  -0.946   0.501  1.00  0.00     0.008 A 
ATOM      9  C   UNL     1       6.863   1.096  -0.263  1.00  0.00     0.054 A 
ATOM     10  C   UNL     1       6.832  -0.996   1.514  1.00  0.00     0.051 A 
ATOM     11  C   UNL     1       5.919   1.067   0.746  1.00  0.00     0.166 A 
ATOM     12  C   UNL     1       5.900   0.022   1.638  1.00  0.00     0.165 A 
ATOM     13  O   UNL     1       4.900   1.943   1.077  1.00  0.00    -0.454 OA
ATOM     14  O   UNL     1       4.851   0.268   2.525  1.00  0.00    -0.454 OA
ATOM     15  C   UNL     1       4.027   1.287   2.009  1.00  0.00     0.468 C 
ENDBRANCH   6   7
ENDBRANCH   1   6
TORSDOF 4
ENDMDL
