@<TRIPOS>MOLECULE
/home/cewinharhar/GITHUB/reincatalyze/data/processed/docking_pred/2023-May-17-1006_maxeplen10_maxtrainstep1000_seadep16_gamma099_lrac9e-4_lrcr1e-3_sub6/2cf69de7cf34ef354308742c6722c88054a527ce_ligand_6.pdbqt
 15 16 0 0 0
SMALL
GASTEIGER

@<TRIPOS>ATOM
      1  C          4.6690    1.8480    0.6950 C.3     1  UNL1        0.1270
      2  C          4.3820    1.1420    1.9340 C.2     1  UNL1        0.3030
      3  O          5.1180    0.3170    2.4770 O.2     1  UNL1       -0.2520
      4  O          3.1600    1.4220    2.5670 O.3     1  UNL1       -0.4810
      5  H          2.3470    0.9620    2.1880 H       1  UNL1        0.2960
      6  C          6.0890    2.2280    0.5370 C.3     1  UNL1        0.0470
      7  C          6.9510    1.3250   -0.2290 C.2     1  UNL1       -0.0430
      8  C          8.3110    1.5590   -0.3600 C.2     1  UNL1        0.0080
      9  C          6.4270    0.2360   -0.8740 C.2     1  UNL1        0.0540
     10  C          9.1160    0.7300   -1.1100 C.2     1  UNL1        0.0510
     11  C          7.2150   -0.6090   -1.6320 C.2     1  UNL1        0.1660
     12  C          8.5620   -0.3650   -1.7520 C.2     1  UNL1        0.1650
     13  O          6.9090   -1.7470   -2.3570 O.2     1  UNL1       -0.4540
     14  O          9.0830   -1.3730   -2.5650 O.2     1  UNL1       -0.4540
     15  C          8.0280   -2.0550   -3.2030 C.3     1  UNL1        0.4680
@<TRIPOS>BOND
     1    15    14    1
     2    15    13    1
     3    14    12    1
     4    13    11    1
     5    12    11    2
     6    12    10    1
     7    11     9    1
     8    10     8    2
     9     9     7    2
    10     8     7    1
    11     7     6    1
    12     6     1    1
    13     1     2    1
    14     2     3    2
    15     2     4    1
    16     5     4    1
