@<TRIPOS>MOLECULE
/home/cewinharhar/GITHUB/reincatalyze/data/processed/docking_pred/2023-May-17-1006_maxeplen10_maxtrainstep1000_seadep16_gamma099_lrac9e-4_lrcr1e-3_sub6/2cf69de7cf34ef354308742c6722c88054a527ce_ligand_6.pdbqt
 15 16 0 0 0
SMALL
GASTEIGER

@<TRIPOS>ATOM
      1  C          8.3010   -0.3180   -2.8340 C.3     1  UNL1        0.1270
      2  C          8.4660   -1.7460   -3.0600 C.2     1  UNL1        0.3030
      3  O          9.5330   -2.3600   -3.0210 O.2     1  UNL1       -0.2520
      4  O          7.3110   -2.4900   -3.3480 O.3     1  UNL1       -0.4810
      5  H          6.5380   -1.9770   -3.7440 H       1  UNL1        0.2960
      6  C          8.7620    0.1350   -1.5040 C.3     1  UNL1        0.0470
      7  C          7.7950    0.1030   -0.4050 C.2     1  UNL1       -0.0430
      8  C          7.7640   -0.9460    0.5010 C.2     1  UNL1        0.0080
      9  C          6.8630    1.0960   -0.2630 C.2     1  UNL1        0.0540
     10  C          6.8320   -0.9960    1.5140 C.2     1  UNL1        0.0510
     11  C          5.9190    1.0670    0.7460 C.2     1  UNL1        0.1660
     12  C          5.9000    0.0220    1.6380 C.2     1  UNL1        0.1650
     13  O          4.9000    1.9430    1.0770 O.2     1  UNL1       -0.4540
     14  O          4.8510    0.2680    2.5250 O.2     1  UNL1       -0.4540
     15  C          4.0270    1.2870    2.0090 C.3     1  UNL1        0.4680
@<TRIPOS>BOND
     1     5     4    1
     2     4     2    1
     3     2     3    2
     4     2     1    1
     5     1     6    1
     6     6     7    1
     7     7     9    2
     8     7     8    1
     9     9    11    1
    10     8    10    2
    11    11    13    1
    12    11    12    2
    13    13    15    1
    14    10    12    1
    15    12    14    1
    16    15    14    1
