@<TRIPOS>MOLECULE
/home/cewinharhar/GITHUB/reincatalyze/data/processed/docking_pred/2023-May-17-1006_maxeplen10_maxtrainstep1000_seadep16_gamma099_lrac9e-4_lrcr1e-3_sub6/2cf69de7cf34ef354308742c6722c88054a527ce_ligand_6.pdbqt
 15 16 0 0 0
SMALL
GASTEIGER

@<TRIPOS>ATOM
      1  C          5.3980    2.8310    0.1080 C.3     1  UNL1        0.1270
      2  C          6.2390    3.8100    0.7800 C.2     1  UNL1        0.3030
      3  O          6.9150    4.6760    0.2230 O.2     1  UNL1       -0.2520
      4  O          6.2860    3.7650    2.1820 O.3     1  UNL1       -0.4810
      5  H          6.2350    2.8490    2.6000 H       1  UNL1        0.2960
      6  C          5.3930    1.5010    0.7530 C.3     1  UNL1        0.0470
      7  C          6.2200    0.4530    0.1500 C.2     1  UNL1       -0.0430
      8  C          6.4840    0.4310   -1.2110 C.2     1  UNL1        0.0080
      9  C          6.7290   -0.5640    0.9140 C.2     1  UNL1        0.0540
     10  C          7.2310   -0.5730   -1.7840 C.2     1  UNL1        0.0510
     11  C          7.4820   -1.5820    0.3600 C.2     1  UNL1        0.1660
     12  C          7.7360   -1.5900   -0.9900 C.2     1  UNL1        0.1650
     13  O          8.0860   -2.6910    0.9270 O.2     1  UNL1       -0.4540
     14  O          8.5080   -2.7240   -1.2480 O.2     1  UNL1       -0.4540
     15  C          8.4720   -3.5820   -0.1310 C.3     1  UNL1        0.4680
@<TRIPOS>BOND
     1    10     8    1
     2    10    12    2
     3    14    12    1
     4    14    15    1
     5     8     7    2
     6    12    11    1
     7    15    13    1
     8     1     6    1
     9     1     2    1
    10     7     6    1
    11     7     9    1
    12     3     2    2
    13    11     9    2
    14    11    13    1
    15     2     4    1
    16     4     5    1
