@<TRIPOS>MOLECULE
/home/cewinharhar/GITHUB/reincatalyze/data/processed/docking_pred/2023-May-17-1006_maxeplen10_maxtrainstep1000_seadep16_gamma099_lrac9e-4_lrcr1e-3_sub6/2d2d9026ea33a6842fa37a74e1533968fe9c5ac5_ligand_6.pdbqt
 15 16 0 0 0
SMALL
GASTEIGER

@<TRIPOS>ATOM
      1  C          5.7020    2.6090   -0.0480 C.3     1  UNL1        0.1270
      2  C          6.2320    3.6250    0.8470 C.2     1  UNL1        0.3030
      3  O          6.2340    3.5660    2.0780 O.2     1  UNL1       -0.2520
      4  O          6.7900    4.7730    0.2610 O.3     1  UNL1       -0.4810
      5  H          7.7960    4.8380    0.2810 H       1  UNL1        0.2960
      6  C          5.6130    1.2630    0.5570 C.3     1  UNL1        0.0470
      7  C          6.3970    0.1900   -0.0590 C.2     1  UNL1       -0.0430
      8  C          6.5240    0.0850   -1.4360 C.2     1  UNL1        0.0080
      9  C          6.9990   -0.7680    0.7110 C.2     1  UNL1        0.0540
     10  C          7.2300   -0.9440   -2.0180 C.2     1  UNL1        0.0510
     11  C          7.7140   -1.8090    0.1490 C.2     1  UNL1        0.1660
     12  C          7.8320   -1.9010   -1.2170 C.2     1  UNL1        0.1650
     13  O          8.3940   -2.8710    0.7200 O.2     1  UNL1       -0.4540
     14  O          8.5970   -3.0380   -1.4800 O.2     1  UNL1       -0.4540
     15  C          8.6900   -3.8230   -0.3130 C.3     1  UNL1        0.4680
@<TRIPOS>BOND
     1    10     8    1
     2    10    12    2
     3    14    12    1
     4    14    15    1
     5     8     7    2
     6    12    11    1
     7    15    13    1
     8     7     6    1
     9     7     9    1
    10     1     6    1
    11     1     2    1
    12    11     9    2
    13    11    13    1
    14     4     5    1
    15     4     2    1
    16     2     3    2
