MODEL 1
REMARK VINA RESULT:      -7.4      0.000      0.000
REMARK SMILES O=C(O)CCc1ccc2c(c1)OCO2
REMARK SMILES IDX 4 1 2 2 1 3 3 4 5 6 6 7 7 8 11 9 8 10 10 11 9 12 12 13 14 14
REMARK SMILES IDX 13 15
REMARK H PARENT 3 5
REMARK Flexibility Score: inf
ROOT
ATOM      1  C   UNL     1       5.431   0.981   0.541  1.00  0.00     0.127 C 
ENDROOT
BRANCH   1   2
ATOM      2  C   UNL     1       5.097   0.528   1.883  1.00  0.00     0.303 C 
ATOM      3  O   UNL     1       5.775  -0.238   2.570  1.00  0.00    -0.252 OA
BRANCH   2   4
ATOM      4  O   UNL     1       3.901   1.002   2.444  1.00  0.00    -0.481 OA
ATOM      5  H   UNL     1       3.453   0.396   3.114  1.00  0.00     0.296 HD
ENDBRANCH   2   4
ENDBRANCH   1   2
BRANCH   1   6
ATOM      6  C   UNL     1       6.877   0.938   0.236  1.00  0.00     0.047 C 
BRANCH   6   7
ATOM      7  C   UNL     1       7.382  -0.231  -0.488  1.00  0.00    -0.043 A 
ATOM      8  C   UNL     1       7.349  -0.295  -1.872  1.00  0.00     0.008 A 
ATOM      9  C   UNL     1       7.869  -1.318   0.189  1.00  0.00     0.054 A 
ATOM     10  C   UNL     1       7.790  -1.409  -2.553  1.00  0.00     0.051 A 
ATOM     11  C   UNL     1       8.317  -2.445  -0.473  1.00  0.00     0.166 A 
ATOM     12  C   UNL     1       8.279  -2.494  -1.846  1.00  0.00     0.165 A 
ATOM     13  O   UNL     1       8.840  -3.638  -0.005  1.00  0.00    -0.454 OA
ATOM     14  O   UNL     1       8.789  -3.739  -2.218  1.00  0.00    -0.454 OA
ATOM     15  C   UNL     1       8.850  -4.580  -1.089  1.00  0.00     0.468 C 
ENDBRANCH   6   7
ENDBRANCH   1   6
TORSDOF 4
ENDMDL
MODEL 2
REMARK VINA RESULT:      -7.1      1.757      5.277
REMARK SMILES O=C(O)CCc1ccc2c(c1)OCO2
REMARK SMILES IDX 4 1 2 2 1 3 3 4 5 6 6 7 7 8 11 9 8 10 10 11 9 12 12 13 14 14
REMARK SMILES IDX 13 15
REMARK H PARENT 3 5
REMARK Flexibility Score: inf
ROOT
ATOM      1  C   UNL     1       8.406  -0.326  -3.146  1.00  0.00     0.127 C 
ENDROOT
BRANCH   1   2
ATOM      2  C   UNL     1       8.492  -1.777  -3.210  1.00  0.00     0.303 C 
ATOM      3  O   UNL     1       9.524  -2.440  -3.094  1.00  0.00    -0.252 OA
BRANCH   2   4
ATOM      4  O   UNL     1       7.298  -2.484  -3.423  1.00  0.00    -0.481 OA
ATOM      5  H   UNL     1       7.237  -3.006  -4.284  1.00  0.00     0.296 HD
ENDBRANCH   2   4
ENDBRANCH   1   2
BRANCH   1   6
ATOM      6  C   UNL     1       8.966   0.254  -1.907  1.00  0.00     0.047 C 
BRANCH   6   7
ATOM      7  C   UNL     1       8.183   0.110  -0.678  1.00  0.00    -0.043 A 
ATOM      8  C   UNL     1       8.585  -0.737   0.343  1.00  0.00     0.008 A 
ATOM      9  C   UNL     1       7.001   0.785  -0.517  1.00  0.00     0.054 A 
ATOM     10  C   UNL     1       7.831  -0.900   1.484  1.00  0.00     0.051 A 
ATOM     11  C   UNL     1       6.229   0.637   0.619  1.00  0.00     0.166 A 
ATOM     12  C   UNL     1       6.640  -0.205   1.623  1.00  0.00     0.165 A 
ATOM     13  O   UNL     1       5.024   1.207   0.991  1.00  0.00    -0.454 OA
ATOM     14  O   UNL     1       5.668  -0.146   2.623  1.00  0.00    -0.454 OA
ATOM     15  C   UNL     1       4.511   0.479   2.117  1.00  0.00     0.468 C 
ENDBRANCH   6   7
ENDBRANCH   1   6
TORSDOF 4
ENDMDL
MODEL 3
REMARK VINA RESULT:      -7.0      1.923      2.088
REMARK SMILES O=C(O)CCc1ccc2c(c1)OCO2
REMARK SMILES IDX 4 1 2 2 1 3 3 4 5 6 6 7 7 8 11 9 8 10 10 11 9 12 12 13 14 14
REMARK SMILES IDX 13 15
REMARK H PARENT 3 5
REMARK Flexibility Score: inf
ROOT
ATOM      1  C   UNL     1       6.061   2.411  -0.271  1.00  0.00     0.127 C 
ENDROOT
BRANCH   1   2
ATOM      2  C   UNL     1       6.527   3.472   0.608  1.00  0.00     0.303 C 
ATOM      3  O   UNL     1       6.863   4.603   0.253  1.00  0.00    -0.252 OA
BRANCH   2   4
ATOM      4  O   UNL     1       6.602   3.184   1.980  1.00  0.00    -0.481 OA
ATOM      5  H   UNL     1       7.523   3.201   2.389  1.00  0.00     0.296 HD
ENDBRANCH   2   4
ENDBRANCH   1   2
BRANCH   1   6
ATOM      6  C   UNL     1       6.077   1.068   0.346  1.00  0.00     0.047 C 
BRANCH   6   7
ATOM      7  C   UNL     1       6.760  -0.004  -0.381  1.00  0.00    -0.043 A 
ATOM      8  C   UNL     1       6.810  -0.022  -1.767  1.00  0.00     0.008 A 
ATOM      9  C   UNL     1       7.341  -1.046   0.291  1.00  0.00     0.054 A 
ATOM     10  C   UNL     1       7.421  -1.048  -2.453  1.00  0.00     0.051 A 
ATOM     11  C   UNL     1       7.960  -2.086  -0.377  1.00  0.00     0.166 A 
ATOM     12  C   UNL     1       8.002  -2.091  -1.750  1.00  0.00     0.165 A 
ATOM     13  O   UNL     1       8.601  -3.222   0.085  1.00  0.00    -0.454 OA
ATOM     14  O   UNL     1       8.681  -3.250  -2.129  1.00  0.00    -0.454 OA
ATOM     15  C   UNL     1       8.785  -4.117  -1.023  1.00  0.00     0.468 C 
ENDBRANCH   6   7
ENDBRANCH   1   6
TORSDOF 4
ENDMDL
MODEL 4
REMARK VINA RESULT:      -6.7      1.769      5.117
REMARK SMILES O=C(O)CCc1ccc2c(c1)OCO2
REMARK SMILES IDX 4 1 2 2 1 3 3 4 5 6 6 7 7 8 11 9 8 10 10 11 9 12 12 13 14 14
REMARK SMILES IDX 13 15
REMARK H PARENT 3 5
REMARK Flexibility Score: inf
ROOT
ATOM      1  C   UNL     1       8.747  -0.607  -2.843  1.00  0.00     0.127 C 
ENDROOT
BRANCH   1   2
ATOM      2  C   UNL     1       8.664  -2.026  -3.152  1.00  0.00     0.303 C 
ATOM      3  O   UNL     1       7.622  -2.669  -3.293  1.00  0.00    -0.252 OA
BRANCH   2   4
ATOM      4  O   UNL     1       9.872  -2.725  -3.301  1.00  0.00    -0.481 OA
ATOM      5  H   UNL     1      10.345  -2.983  -2.449  1.00  0.00     0.296 HD
ENDBRANCH   2   4
ENDBRANCH   1   2
BRANCH   1   6
ATOM      6  C   UNL     1       7.433   0.063  -2.737  1.00  0.00     0.047 C 
BRANCH   6   7
ATOM      7  C   UNL     1       6.834   0.172  -1.406  1.00  0.00    -0.043 A 
ATOM      8  C   UNL     1       6.083   1.278  -1.037  1.00  0.00     0.008 A 
ATOM      9  C   UNL     1       7.031  -0.806  -0.467  1.00  0.00     0.054 A 
ATOM     10  C   UNL     1       5.549   1.398   0.227  1.00  0.00     0.051 A 
ATOM     11  C   UNL     1       6.504  -0.707   0.807  1.00  0.00     0.166 A 
ATOM     12  C   UNL     1       5.761   0.394   1.158  1.00  0.00     0.165 A 
ATOM     13  O   UNL     1       6.572  -1.556   1.898  1.00  0.00    -0.454 OA
ATOM     14  O   UNL     1       5.372   0.211   2.486  1.00  0.00    -0.454 OA
ATOM     15  C   UNL     1       6.122  -0.837   3.056  1.00  0.00     0.468 C 
ENDBRANCH   6   7
ENDBRANCH   1   6
TORSDOF 4
ENDMDL
