@<TRIPOS>MOLECULE
/home/cewinharhar/GITHUB/reincatalyze/data/processed/docking_pred/2023-May-17-1006_maxeplen10_maxtrainstep1000_seadep16_gamma099_lrac9e-4_lrcr1e-3_sub6/2d2d9026ea33a6842fa37a74e1533968fe9c5ac5_ligand_6.pdbqt
 15 16 0 0 0
SMALL
GASTEIGER

@<TRIPOS>ATOM
      1  C          5.4310    0.9810    0.5410 C.3     1  UNL1        0.1270
      2  C          5.0970    0.5280    1.8830 C.2     1  UNL1        0.3030
      3  O          5.7750   -0.2380    2.5700 O.2     1  UNL1       -0.2520
      4  O          3.9010    1.0020    2.4440 O.3     1  UNL1       -0.4810
      5  H          3.4530    0.3960    3.1140 H       1  UNL1        0.2960
      6  C          6.8770    0.9380    0.2360 C.3     1  UNL1        0.0470
      7  C          7.3820   -0.2310   -0.4880 C.2     1  UNL1       -0.0430
      8  C          7.3490   -0.2950   -1.8720 C.2     1  UNL1        0.0080
      9  C          7.8690   -1.3180    0.1890 C.2     1  UNL1        0.0540
     10  C          7.7900   -1.4090   -2.5530 C.2     1  UNL1        0.0510
     11  C          8.3170   -2.4450   -0.4730 C.2     1  UNL1        0.1660
     12  C          8.2790   -2.4940   -1.8460 C.2     1  UNL1        0.1650
     13  O          8.8400   -3.6380   -0.0050 O.2     1  UNL1       -0.4540
     14  O          8.7890   -3.7390   -2.2180 O.2     1  UNL1       -0.4540
     15  C          8.8500   -4.5800   -1.0890 C.3     1  UNL1        0.4680
@<TRIPOS>BOND
     1    10     8    1
     2    10    12    2
     3    14    12    1
     4    14    15    1
     5     8     7    2
     6    12    11    1
     7    15    13    1
     8     7     9    1
     9     7     6    1
    10    11    13    1
    11    11     9    2
    12     6     1    1
    13     1     2    1
    14     2     4    1
    15     2     3    2
    16     4     5    1
