@<TRIPOS>MOLECULE
/home/cewinharhar/GITHUB/reincatalyze/data/processed/docking_pred/2023-May-17-1006_maxeplen10_maxtrainstep1000_seadep16_gamma099_lrac9e-4_lrcr1e-3_sub6/2d2d9026ea33a6842fa37a74e1533968fe9c5ac5_ligand_6.pdbqt
 15 16 0 0 0
SMALL
GASTEIGER

@<TRIPOS>ATOM
      1  C          6.0610    2.4110   -0.2710 C.3     1  UNL1        0.1270
      2  C          6.5270    3.4720    0.6080 C.2     1  UNL1        0.3030
      3  O          6.8630    4.6030    0.2530 O.2     1  UNL1       -0.2520
      4  O          6.6020    3.1840    1.9800 O.3     1  UNL1       -0.4810
      5  H          7.5230    3.2010    2.3890 H       1  UNL1        0.2960
      6  C          6.0770    1.0680    0.3460 C.3     1  UNL1        0.0470
      7  C          6.7600   -0.0040   -0.3810 C.2     1  UNL1       -0.0430
      8  C          6.8100   -0.0220   -1.7670 C.2     1  UNL1        0.0080
      9  C          7.3410   -1.0460    0.2910 C.2     1  UNL1        0.0540
     10  C          7.4210   -1.0480   -2.4530 C.2     1  UNL1        0.0510
     11  C          7.9600   -2.0860   -0.3770 C.2     1  UNL1        0.1660
     12  C          8.0020   -2.0910   -1.7500 C.2     1  UNL1        0.1650
     13  O          8.6010   -3.2220    0.0850 O.2     1  UNL1       -0.4540
     14  O          8.6810   -3.2500   -2.1290 O.2     1  UNL1       -0.4540
     15  C          8.7850   -4.1170   -1.0230 C.3     1  UNL1        0.4680
@<TRIPOS>BOND
     1    10     8    1
     2    10    12    2
     3    14    12    1
     4    14    15    1
     5     8     7    2
     6    12    11    1
     7    15    13    1
     8     7     9    1
     9     7     6    1
    10    11    13    1
    11    11     9    2
    12     1     6    1
    13     1     2    1
    14     3     2    2
    15     2     4    1
    16     4     5    1
