@<TRIPOS>MOLECULE
/home/cewinharhar/GITHUB/reincatalyze/data/processed/docking_pred/2023-May-17-1006_maxeplen10_maxtrainstep1000_seadep16_gamma099_lrac9e-4_lrcr1e-3_sub6/2d2d9026ea33a6842fa37a74e1533968fe9c5ac5_ligand_6.pdbqt
 15 16 0 0 0
SMALL
GASTEIGER

@<TRIPOS>ATOM
      1  C          8.7470   -0.6070   -2.8430 C.3     1  UNL1        0.1270
      2  C          8.6640   -2.0260   -3.1520 C.2     1  UNL1        0.3030
      3  O          7.6220   -2.6690   -3.2930 O.2     1  UNL1       -0.2520
      4  O          9.8720   -2.7250   -3.3010 O.3     1  UNL1       -0.4810
      5  H         10.3450   -2.9830   -2.4490 H       1  UNL1        0.2960
      6  C          7.4330    0.0630   -2.7370 C.3     1  UNL1        0.0470
      7  C          6.8340    0.1720   -1.4060 C.2     1  UNL1       -0.0430
      8  C          6.0830    1.2780   -1.0370 C.2     1  UNL1        0.0080
      9  C          7.0310   -0.8060   -0.4670 C.2     1  UNL1        0.0540
     10  C          5.5490    1.3980    0.2270 C.2     1  UNL1        0.0510
     11  C          6.5040   -0.7070    0.8070 C.2     1  UNL1        0.1660
     12  C          5.7610    0.3940    1.1580 C.2     1  UNL1        0.1650
     13  O          6.5720   -1.5560    1.8980 O.2     1  UNL1       -0.4540
     14  O          5.3720    0.2110    2.4860 O.2     1  UNL1       -0.4540
     15  C          6.1220   -0.8370    3.0560 C.3     1  UNL1        0.4680
@<TRIPOS>BOND
     1     4     2    1
     2     4     5    1
     3     3     2    2
     4     2     1    1
     5     1     6    1
     6     6     7    1
     7     7     8    2
     8     7     9    1
     9     8    10    1
    10     9    11    2
    11    10    12    2
    12    11    12    1
    13    11    13    1
    14    12    14    1
    15    13    15    1
    16    14    15    1
