@<TRIPOS>MOLECULE
/home/cewinharhar/GITHUB/reincatalyze/data/processed/docking_pred/2023-May-17-1006_maxeplen10_maxtrainstep1000_seadep16_gamma099_lrac9e-4_lrcr1e-3_sub6/2d2d9026ea33a6842fa37a74e1533968fe9c5ac5_ligand_6.pdbqt
 15 16 0 0 0
SMALL
GASTEIGER

@<TRIPOS>ATOM
      1  C          8.4060   -0.3260   -3.1460 C.3     1  UNL1        0.1270
      2  C          8.4920   -1.7770   -3.2100 C.2     1  UNL1        0.3030
      3  O          9.5240   -2.4400   -3.0940 O.2     1  UNL1       -0.2520
      4  O          7.2980   -2.4840   -3.4230 O.3     1  UNL1       -0.4810
      5  H          7.2370   -3.0060   -4.2840 H       1  UNL1        0.2960
      6  C          8.9660    0.2540   -1.9070 C.3     1  UNL1        0.0470
      7  C          8.1830    0.1100   -0.6780 C.2     1  UNL1       -0.0430
      8  C          8.5850   -0.7370    0.3430 C.2     1  UNL1        0.0080
      9  C          7.0010    0.7850   -0.5170 C.2     1  UNL1        0.0540
     10  C          7.8310   -0.9000    1.4840 C.2     1  UNL1        0.0510
     11  C          6.2290    0.6370    0.6190 C.2     1  UNL1        0.1660
     12  C          6.6400   -0.2050    1.6230 C.2     1  UNL1        0.1650
     13  O          5.0240    1.2070    0.9910 O.2     1  UNL1       -0.4540
     14  O          5.6680   -0.1460    2.6230 O.2     1  UNL1       -0.4540
     15  C          4.5110    0.4790    2.1170 C.3     1  UNL1        0.4680
@<TRIPOS>BOND
     1     5     4    1
     2     4     2    1
     3     2     1    1
     4     2     3    2
     5     1     6    1
     6     6     7    1
     7     7     9    2
     8     7     8    1
     9     9    11    1
    10     8    10    2
    11    11    13    1
    12    11    12    2
    13    13    15    1
    14    10    12    1
    15    12    14    1
    16    15    14    1
