MODEL 1
REMARK VINA RESULT:      -7.6      0.000      0.000
REMARK SMILES O=C(O)CCc1ccc2c(c1)OCO2
REMARK SMILES IDX 4 1 2 2 1 3 3 4 5 6 6 7 7 8 11 9 8 10 10 11 9 12 12 13 14 14
REMARK SMILES IDX 13 15
REMARK H PARENT 3 5
REMARK Flexibility Score: inf
ROOT
ATOM      1  C   UNL     1       5.426   2.876   0.097  1.00  0.00     0.127 C 
ENDROOT
BRANCH   1   2
ATOM      2  C   UNL     1       6.236   3.872   0.780  1.00  0.00     0.303 C 
ATOM      3  O   UNL     1       6.919   4.739   0.233  1.00  0.00    -0.252 OA
BRANCH   2   4
ATOM      4  O   UNL     1       6.242   3.845   2.184  1.00  0.00    -0.481 OA
ATOM      5  H   UNL     1       7.149   3.823   2.625  1.00  0.00     0.296 HD
ENDBRANCH   2   4
ENDBRANCH   1   2
BRANCH   1   6
ATOM      6  C   UNL     1       5.373   1.569   0.787  1.00  0.00     0.047 C 
BRANCH   6   7
ATOM      7  C   UNL     1       6.143   0.466   0.209  1.00  0.00    -0.043 A 
ATOM      8  C   UNL     1       6.556  -0.611   0.978  1.00  0.00     0.008 A 
ATOM      9  C   UNL     1       6.513   0.486  -1.109  1.00  0.00     0.054 A 
ATOM     10  C   UNL     1       7.311  -1.631   0.444  1.00  0.00     0.051 A 
ATOM     11  C   UNL     1       7.270  -0.527  -1.667  1.00  0.00     0.166 A 
ATOM     12  C   UNL     1       7.672  -1.589  -0.893  1.00  0.00     0.165 A 
ATOM     13  O   UNL     1       7.751  -0.714  -2.951  1.00  0.00    -0.454 OA
ATOM     14  O   UNL     1       8.410  -2.435  -1.721  1.00  0.00    -0.454 OA
ATOM     15  C   UNL     1       8.734  -1.760  -2.915  1.00  0.00     0.468 C 
ENDBRANCH   6   7
ENDBRANCH   1   6
TORSDOF 4
ENDMDL
MODEL 2
REMARK VINA RESULT:      -7.6      2.146      2.528
REMARK SMILES O=C(O)CCc1ccc2c(c1)OCO2
REMARK SMILES IDX 4 1 2 2 1 3 3 4 5 6 6 7 7 8 11 9 8 10 10 11 9 12 12 13 14 14
REMARK SMILES IDX 13 15
REMARK H PARENT 3 5
REMARK Flexibility Score: inf
ROOT
ATOM      1  C   UNL     1       4.707   1.845   0.698  1.00  0.00     0.127 C 
ENDROOT
BRANCH   1   2
ATOM      2  C   UNL     1       4.401   1.130   1.927  1.00  0.00     0.303 C 
ATOM      3  O   UNL     1       5.123   0.291   2.468  1.00  0.00    -0.252 OA
BRANCH   2   4
ATOM      4  O   UNL     1       3.178   1.419   2.552  1.00  0.00    -0.481 OA
ATOM      5  H   UNL     1       2.355   1.356   1.972  1.00  0.00     0.296 HD
ENDBRANCH   2   4
ENDBRANCH   1   2
BRANCH   1   6
ATOM      6  C   UNL     1       6.134   2.206   0.553  1.00  0.00     0.047 C 
BRANCH   6   7
ATOM      7  C   UNL     1       6.984   1.306  -0.229  1.00  0.00    -0.043 A 
ATOM      8  C   UNL     1       8.344   1.533  -0.370  1.00  0.00     0.008 A 
ATOM      9  C   UNL     1       6.448   0.227  -0.881  1.00  0.00     0.054 A 
ATOM     10  C   UNL     1       9.138   0.708  -1.135  1.00  0.00     0.051 A 
ATOM     11  C   UNL     1       7.225  -0.615  -1.654  1.00  0.00     0.166 A 
ATOM     12  C   UNL     1       8.572  -0.378  -1.784  1.00  0.00     0.165 A 
ATOM     13  O   UNL     1       6.906  -1.743  -2.389  1.00  0.00    -0.454 OA
ATOM     14  O   UNL     1       9.080  -1.380  -2.612  1.00  0.00    -0.454 OA
ATOM     15  C   UNL     1       8.015  -2.049  -3.247  1.00  0.00     0.468 C 
ENDBRANCH   6   7
ENDBRANCH   1   6
TORSDOF 4
ENDMDL
MODEL 3
REMARK VINA RESULT:      -7.5      1.962      2.870
REMARK SMILES O=C(O)CCc1ccc2c(c1)OCO2
REMARK SMILES IDX 4 1 2 2 1 3 3 4 5 6 6 7 7 8 11 9 8 10 10 11 9 12 12 13 14 14
REMARK SMILES IDX 13 15
REMARK H PARENT 3 5
REMARK Flexibility Score: inf
ROOT
ATOM      1  C   UNL     1       6.412   1.316   0.678  1.00  0.00     0.127 C 
ENDROOT
BRANCH   1   2
ATOM      2  C   UNL     1       5.181   1.328   1.453  1.00  0.00     0.303 C 
ATOM      3  O   UNL     1       4.269   2.149   1.339  1.00  0.00    -0.252 OA
BRANCH   2   4
ATOM      4  O   UNL     1       5.016   0.319   2.416  1.00  0.00    -0.481 OA
ATOM      5  H   UNL     1       5.139   0.597   3.377  1.00  0.00     0.296 HD
ENDBRANCH   2   4
ENDBRANCH   1   2
BRANCH   1   6
ATOM      6  C   UNL     1       6.234   0.879  -0.723  1.00  0.00     0.047 C 
BRANCH   6   7
ATOM      7  C   UNL     1       6.983  -0.299  -1.166  1.00  0.00    -0.043 A 
ATOM      8  C   UNL     1       7.259  -0.521  -2.506  1.00  0.00     0.008 A 
ATOM      9  C   UNL     1       7.403  -1.241  -0.265  1.00  0.00     0.054 A 
ATOM     10  C   UNL     1       7.932  -1.646  -2.928  1.00  0.00     0.051 A 
ATOM     11  C   UNL     1       8.080  -2.378  -0.664  1.00  0.00     0.166 A 
ATOM     12  C   UNL     1       8.347  -2.584  -1.996  1.00  0.00     0.165 A 
ATOM     13  O   UNL     1       8.590  -3.444   0.055  1.00  0.00    -0.454 OA
ATOM     14  O   UNL     1       9.031  -3.797  -2.087  1.00  0.00    -0.454 OA
ATOM     15  C   UNL     1       8.917  -4.494  -0.868  1.00  0.00     0.468 C 
ENDBRANCH   6   7
ENDBRANCH   1   6
TORSDOF 4
ENDMDL
MODEL 4
REMARK VINA RESULT:      -7.4      1.798      5.293
REMARK SMILES O=C(O)CCc1ccc2c(c1)OCO2
REMARK SMILES IDX 4 1 2 2 1 3 3 4 5 6 6 7 7 8 11 9 8 10 10 11 9 12 12 13 14 14
REMARK SMILES IDX 13 15
REMARK H PARENT 3 5
REMARK Flexibility Score: inf
ROOT
ATOM      1  C   UNL     1       8.309  -0.323  -2.867  1.00  0.00     0.127 C 
ENDROOT
BRANCH   1   2
ATOM      2  C   UNL     1       8.473  -1.753  -3.074  1.00  0.00     0.303 C 
ATOM      3  O   UNL     1       9.542  -2.366  -3.031  1.00  0.00    -0.252 OA
BRANCH   2   4
ATOM      4  O   UNL     1       7.318  -2.502  -3.348  1.00  0.00    -0.481 OA
ATOM      5  H   UNL     1       7.373  -3.490  -3.158  1.00  0.00     0.296 HD
ENDBRANCH   2   4
ENDBRANCH   1   2
BRANCH   1   6
ATOM      6  C   UNL     1       8.757   0.147  -1.539  1.00  0.00     0.047 C 
BRANCH   6   7
ATOM      7  C   UNL     1       7.787   0.103  -0.442  1.00  0.00    -0.043 A 
ATOM      8  C   UNL     1       7.734  -0.968   0.436  1.00  0.00     0.008 A 
ATOM      9  C   UNL     1       6.873   1.110  -0.276  1.00  0.00     0.054 A 
ATOM     10  C   UNL     1       6.799  -1.027   1.445  1.00  0.00     0.051 A 
ATOM     11  C   UNL     1       5.926   1.072   0.730  1.00  0.00     0.166 A 
ATOM     12  C   UNL     1       5.886   0.005   1.594  1.00  0.00     0.165 A 
ATOM     13  O   UNL     1       4.923   1.959   1.081  1.00  0.00    -0.454 OA
ATOM     14  O   UNL     1       4.839   0.247   2.485  1.00  0.00    -0.454 OA
ATOM     15  C   UNL     1       4.036   1.295   1.993  1.00  0.00     0.468 C 
ENDBRANCH   6   7
ENDBRANCH   1   6
TORSDOF 4
ENDMDL
MODEL 5
REMARK VINA RESULT:      -7.4      1.052      2.156
REMARK SMILES O=C(O)CCc1ccc2c(c1)OCO2
REMARK SMILES IDX 4 1 2 2 1 3 3 4 5 6 6 7 7 8 11 9 8 10 10 11 9 12 12 13 14 14
REMARK SMILES IDX 13 15
REMARK H PARENT 3 5
REMARK Flexibility Score: inf
ROOT
ATOM      1  C   UNL     1       5.736   2.588   0.098  1.00  0.00     0.127 C 
ENDROOT
BRANCH   1   2
ATOM      2  C   UNL     1       6.265   3.672   0.911  1.00  0.00     0.303 C 
ATOM      3  O   UNL     1       6.257   3.714   2.143  1.00  0.00    -0.252 OA
BRANCH   2   4
ATOM      4  O   UNL     1       6.834   4.764   0.238  1.00  0.00    -0.481 OA
ATOM      5  H   UNL     1       7.430   4.544  -0.545  1.00  0.00     0.296 HD
ENDBRANCH   2   4
ENDBRANCH   1   2
BRANCH   1   6
ATOM      6  C   UNL     1       5.766   1.268   0.763  1.00  0.00     0.047 C 
BRANCH   6   7
ATOM      7  C   UNL     1       6.513   0.194   0.105  1.00  0.00    -0.043 A 
ATOM      8  C   UNL     1       6.613   0.122  -1.276  1.00  0.00     0.008 A 
ATOM      9  C   UNL     1       7.106  -0.799   0.838  1.00  0.00     0.054 A 
ATOM     10  C   UNL     1       7.284  -0.907  -1.898  1.00  0.00     0.051 A 
ATOM     11  C   UNL     1       7.785  -1.841   0.236  1.00  0.00     0.166 A 
ATOM     12  C   UNL     1       7.877  -1.898  -1.134  1.00  0.00     0.165 A 
ATOM     13  O   UNL     1       8.449  -2.933   0.766  1.00  0.00    -0.454 OA
ATOM     14  O   UNL     1       8.609  -3.046  -1.441  1.00  0.00    -0.454 OA
ATOM     15  C   UNL     1       8.704  -3.864  -0.297  1.00  0.00     0.468 C 
ENDBRANCH   6   7
ENDBRANCH   1   6
TORSDOF 4
ENDMDL
