@<TRIPOS>MOLECULE
/home/cewinharhar/GITHUB/reincatalyze/data/processed/docking_pred/2023-May-17-1006_maxeplen10_maxtrainstep1000_seadep16_gamma099_lrac9e-4_lrcr1e-3_sub6/2d863d4e78c56822cb27942f8f89755da93ab859_ligand_6.pdbqt
 15 16 0 0 0
SMALL
GASTEIGER

@<TRIPOS>ATOM
      1  C          5.7360    2.5880    0.0980 C.3     1  UNL1        0.1270
      2  C          6.2650    3.6720    0.9110 C.2     1  UNL1        0.3030
      3  O          6.2570    3.7140    2.1430 O.2     1  UNL1       -0.2520
      4  O          6.8340    4.7640    0.2380 O.3     1  UNL1       -0.4810
      5  H          7.4300    4.5440   -0.5450 H       1  UNL1        0.2960
      6  C          5.7660    1.2680    0.7630 C.3     1  UNL1        0.0470
      7  C          6.5130    0.1940    0.1050 C.2     1  UNL1       -0.0430
      8  C          6.6130    0.1220   -1.2760 C.2     1  UNL1        0.0080
      9  C          7.1060   -0.7990    0.8380 C.2     1  UNL1        0.0540
     10  C          7.2840   -0.9070   -1.8980 C.2     1  UNL1        0.0510
     11  C          7.7850   -1.8410    0.2360 C.2     1  UNL1        0.1660
     12  C          7.8770   -1.8980   -1.1340 C.2     1  UNL1        0.1650
     13  O          8.4490   -2.9330    0.7660 O.2     1  UNL1       -0.4540
     14  O          8.6090   -3.0460   -1.4410 O.2     1  UNL1       -0.4540
     15  C          8.7040   -3.8640   -0.2970 C.3     1  UNL1        0.4680
@<TRIPOS>BOND
     1    10     8    1
     2    10    12    2
     3    14    12    1
     4    14    15    1
     5     8     7    2
     6    12    11    1
     7     5     4    1
     8    15    13    1
     9     1     6    1
    10     1     2    1
    11     7     6    1
    12     7     9    1
    13    11    13    1
    14    11     9    2
    15     4     2    1
    16     2     3    2
