@<TRIPOS>MOLECULE
/home/cewinharhar/GITHUB/reincatalyze/data/processed/docking_pred/2023-May-17-1006_maxeplen10_maxtrainstep1000_seadep16_gamma099_lrac9e-4_lrcr1e-3_sub6/2d863d4e78c56822cb27942f8f89755da93ab859_ligand_6.pdbqt
 15 16 0 0 0
SMALL
GASTEIGER

@<TRIPOS>ATOM
      1  C          5.4260    2.8760    0.0970 C.3     1  UNL1        0.1270
      2  C          6.2360    3.8720    0.7800 C.2     1  UNL1        0.3030
      3  O          6.9190    4.7390    0.2330 O.2     1  UNL1       -0.2520
      4  O          6.2420    3.8450    2.1840 O.3     1  UNL1       -0.4810
      5  H          7.1490    3.8230    2.6250 H       1  UNL1        0.2960
      6  C          5.3730    1.5690    0.7870 C.3     1  UNL1        0.0470
      7  C          6.1430    0.4660    0.2090 C.2     1  UNL1       -0.0430
      8  C          6.5560   -0.6110    0.9780 C.2     1  UNL1        0.0080
      9  C          6.5130    0.4860   -1.1090 C.2     1  UNL1        0.0540
     10  C          7.3110   -1.6310    0.4440 C.2     1  UNL1        0.0510
     11  C          7.2700   -0.5270   -1.6670 C.2     1  UNL1        0.1660
     12  C          7.6720   -1.5890   -0.8930 C.2     1  UNL1        0.1650
     13  O          7.7510   -0.7140   -2.9510 O.2     1  UNL1       -0.4540
     14  O          8.4100   -2.4350   -1.7210 O.2     1  UNL1       -0.4540
     15  C          8.7340   -1.7600   -2.9150 C.3     1  UNL1        0.4680
@<TRIPOS>BOND
     1    13    15    1
     2    13    11    1
     3    15    14    1
     4    14    12    1
     5    11     9    1
     6    11    12    2
     7     9     7    2
     8    12    10    1
     9     1     2    1
    10     1     6    1
    11     7     6    1
    12     7     8    1
    13     3     2    2
    14    10     8    2
    15     2     4    1
    16     4     5    1
