@<TRIPOS>MOLECULE
/home/cewinharhar/GITHUB/reincatalyze/data/processed/docking_pred/2023-May-17-1006_maxeplen10_maxtrainstep1000_seadep16_gamma099_lrac9e-4_lrcr1e-3_sub6/2d863d4e78c56822cb27942f8f89755da93ab859_ligand_6.pdbqt
 15 16 0 0 0
SMALL
GASTEIGER

@<TRIPOS>ATOM
      1  C          4.7070    1.8450    0.6980 C.3     1  UNL1        0.1270
      2  C          4.4010    1.1300    1.9270 C.2     1  UNL1        0.3030
      3  O          5.1230    0.2910    2.4680 O.2     1  UNL1       -0.2520
      4  O          3.1780    1.4190    2.5520 O.3     1  UNL1       -0.4810
      5  H          2.3550    1.3560    1.9720 H       1  UNL1        0.2960
      6  C          6.1340    2.2060    0.5530 C.3     1  UNL1        0.0470
      7  C          6.9840    1.3060   -0.2290 C.2     1  UNL1       -0.0430
      8  C          8.3440    1.5330   -0.3700 C.2     1  UNL1        0.0080
      9  C          6.4480    0.2270   -0.8810 C.2     1  UNL1        0.0540
     10  C          9.1380    0.7080   -1.1350 C.2     1  UNL1        0.0510
     11  C          7.2250   -0.6150   -1.6540 C.2     1  UNL1        0.1660
     12  C          8.5720   -0.3780   -1.7840 C.2     1  UNL1        0.1650
     13  O          6.9060   -1.7430   -2.3890 O.2     1  UNL1       -0.4540
     14  O          9.0800   -1.3800   -2.6120 O.2     1  UNL1       -0.4540
     15  C          8.0150   -2.0490   -3.2470 C.3     1  UNL1        0.4680
@<TRIPOS>BOND
     1    15    14    1
     2    15    13    1
     3    14    12    1
     4    13    11    1
     5    12    11    2
     6    12    10    1
     7    11     9    1
     8    10     8    2
     9     9     7    2
    10     8     7    1
    11     7     6    1
    12     6     1    1
    13     1     2    1
    14     2     3    2
    15     2     4    1
    16     5     4    1
