@<TRIPOS>MOLECULE
/home/cewinharhar/GITHUB/reincatalyze/data/processed/docking_pred/2023-May-17-1006_maxeplen10_maxtrainstep1000_seadep16_gamma099_lrac9e-4_lrcr1e-3_sub6/2d863d4e78c56822cb27942f8f89755da93ab859_ligand_6.pdbqt
 15 16 0 0 0
SMALL
GASTEIGER

@<TRIPOS>ATOM
      1  C          8.3090   -0.3230   -2.8670 C.3     1  UNL1        0.1270
      2  C          8.4730   -1.7530   -3.0740 C.2     1  UNL1        0.3030
      3  O          9.5420   -2.3660   -3.0310 O.2     1  UNL1       -0.2520
      4  O          7.3180   -2.5020   -3.3480 O.3     1  UNL1       -0.4810
      5  H          7.3730   -3.4900   -3.1580 H       1  UNL1        0.2960
      6  C          8.7570    0.1470   -1.5390 C.3     1  UNL1        0.0470
      7  C          7.7870    0.1030   -0.4420 C.2     1  UNL1       -0.0430
      8  C          7.7340   -0.9680    0.4360 C.2     1  UNL1        0.0080
      9  C          6.8730    1.1100   -0.2760 C.2     1  UNL1        0.0540
     10  C          6.7990   -1.0270    1.4450 C.2     1  UNL1        0.0510
     11  C          5.9260    1.0720    0.7300 C.2     1  UNL1        0.1660
     12  C          5.8860    0.0050    1.5940 C.2     1  UNL1        0.1650
     13  O          4.9230    1.9590    1.0810 O.2     1  UNL1       -0.4540
     14  O          4.8390    0.2470    2.4850 O.2     1  UNL1       -0.4540
     15  C          4.0360    1.2950    1.9930 C.3     1  UNL1        0.4680
@<TRIPOS>BOND
     1     4     5    1
     2     4     2    1
     3     2     3    2
     4     2     1    1
     5     1     6    1
     6     6     7    1
     7     7     9    2
     8     7     8    1
     9     9    11    1
    10     8    10    2
    11    11    13    1
    12    11    12    2
    13    13    15    1
    14    10    12    1
    15    12    14    1
    16    15    14    1
