@<TRIPOS>MOLECULE
/home/cewinharhar/GITHUB/reincatalyze/data/processed/docking_pred/2023-May-17-1006_maxeplen10_maxtrainstep1000_seadep16_gamma099_lrac9e-4_lrcr1e-3_sub6/2d863d4e78c56822cb27942f8f89755da93ab859_ligand_6.pdbqt
 15 16 0 0 0
SMALL
GASTEIGER

@<TRIPOS>ATOM
      1  C          6.4120    1.3160    0.6780 C.3     1  UNL1        0.1270
      2  C          5.1810    1.3280    1.4530 C.2     1  UNL1        0.3030
      3  O          4.2690    2.1490    1.3390 O.2     1  UNL1       -0.2520
      4  O          5.0160    0.3190    2.4160 O.3     1  UNL1       -0.4810
      5  H          5.1390    0.5970    3.3770 H       1  UNL1        0.2960
      6  C          6.2340    0.8790   -0.7230 C.3     1  UNL1        0.0470
      7  C          6.9830   -0.2990   -1.1660 C.2     1  UNL1       -0.0430
      8  C          7.2590   -0.5210   -2.5060 C.2     1  UNL1        0.0080
      9  C          7.4030   -1.2410   -0.2650 C.2     1  UNL1        0.0540
     10  C          7.9320   -1.6460   -2.9280 C.2     1  UNL1        0.0510
     11  C          8.0800   -2.3780   -0.6640 C.2     1  UNL1        0.1660
     12  C          8.3470   -2.5840   -1.9960 C.2     1  UNL1        0.1650
     13  O          8.5900   -3.4440    0.0550 O.2     1  UNL1       -0.4540
     14  O          9.0310   -3.7970   -2.0870 O.2     1  UNL1       -0.4540
     15  C          8.9170   -4.4940   -0.8680 C.3     1  UNL1        0.4680
@<TRIPOS>BOND
     1    10     8    1
     2    10    12    2
     3     8     7    2
     4    14    12    1
     5    14    15    1
     6    12    11    1
     7     7     6    1
     8     7     9    1
     9    15    13    1
    10     6     1    1
    11    11     9    2
    12    11    13    1
    13     1     2    1
    14     3     2    2
    15     2     4    1
    16     4     5    1
