@<TRIPOS>MOLECULE
/home/cewinharhar/GITHUB/reincatalyze/data/processed/docking_pred/2023-May-17-1006_maxeplen10_maxtrainstep1000_seadep16_gamma099_lrac9e-4_lrcr1e-3_sub6/2f41e52dfc6618f39d2325611a45b0a1c53476a0_ligand_6.pdbqt
 15 16 0 0 0
SMALL
GASTEIGER

@<TRIPOS>ATOM
      1  C          8.2260   -0.2240   -2.8400 C.3     1  UNL1        0.1270
      2  C          8.4700   -1.6460   -3.0300 C.2     1  UNL1        0.3030
      3  O          9.5600   -2.2080   -2.9110 O.2     1  UNL1       -0.2520
      4  O          7.3710   -2.4470   -3.3790 O.3     1  UNL1       -0.4810
      5  H          6.5460   -1.9600   -3.6930 H       1  UNL1        0.2960
      6  C          8.6810    0.2930   -1.5320 C.3     1  UNL1        0.0470
      7  C          7.7360    0.2350   -0.4150 C.2     1  UNL1       -0.0430
      8  C          7.7800   -0.7900    0.5190 C.2     1  UNL1        0.0080
      9  C          6.7500    1.1760   -0.2810 C.2     1  UNL1        0.0540
     10  C          6.8690   -0.8660    1.5490 C.2     1  UNL1        0.0510
     11  C          5.8260    1.1200    0.7450 C.2     1  UNL1        0.1660
     12  C          5.8820    0.1000    1.6640 C.2     1  UNL1        0.1650
     13  O          4.7640    1.9460    1.0720 O.2     1  UNL1       -0.4540
     14  O          4.8360    0.3090    2.5630 O.2     1  UNL1       -0.4540
     15  C          3.9460    1.2660    2.0350 C.3     1  UNL1        0.4680
@<TRIPOS>BOND
     1     5     4    1
     2     4     2    1
     3     2     3    2
     4     2     1    1
     5     1     6    1
     6     6     7    1
     7     7     9    2
     8     7     8    1
     9     9    11    1
    10     8    10    2
    11    11    13    1
    12    11    12    2
    13    13    15    1
    14    10    12    1
    15    12    14    1
    16    15    14    1
