@<TRIPOS>MOLECULE
/home/cewinharhar/GITHUB/reincatalyze/data/processed/docking_pred/2023-May-17-1006_maxeplen10_maxtrainstep1000_seadep16_gamma099_lrac9e-4_lrcr1e-3_sub6/2f41e52dfc6618f39d2325611a45b0a1c53476a0_ligand_6.pdbqt
 15 16 0 0 0
SMALL
GASTEIGER

@<TRIPOS>ATOM
      1  C          5.3480    2.7910    0.2260 C.3     1  UNL1        0.1270
      2  C          6.1560    3.7510    0.9630 C.2     1  UNL1        0.3030
      3  O          6.2590    3.8100    2.1890 O.2     1  UNL1       -0.2520
      4  O          6.8810    4.6910    0.2140 O.3     1  UNL1       -0.4810
      5  H          6.3690    5.1780   -0.5060 H       1  UNL1        0.2960
      6  C          5.3270    1.4400    0.8260 C.3     1  UNL1        0.0470
      7  C          6.1690    0.4120    0.2090 C.2     1  UNL1       -0.0430
      8  C          6.4110    0.3960   -1.1560 C.2     1  UNL1        0.0080
      9  C          6.7140   -0.5920    0.9640 C.2     1  UNL1        0.0540
     10  C          7.1730   -0.5900   -1.7420 C.2     1  UNL1        0.0510
     11  C          7.4820   -1.5920    0.3980 C.2     1  UNL1        0.1660
     12  C          7.7140   -1.5940   -0.9560 C.2     1  UNL1        0.1650
     13  O          8.1220   -2.6850    0.9550 O.2     1  UNL1       -0.4540
     14  O          8.5090   -2.7090   -1.2260 O.2     1  UNL1       -0.4540
     15  C          8.5120   -3.5670   -0.1090 C.3     1  UNL1        0.4680
@<TRIPOS>BOND
     1    10     8    1
     2    10    12    2
     3    14    12    1
     4    14    15    1
     5     8     7    2
     6    12    11    1
     7     5     4    1
     8    15    13    1
     9     7     6    1
    10     7     9    1
    11     4     2    1
    12     1     6    1
    13     1     2    1
    14    11    13    1
    15    11     9    2
    16     2     3    2
