MODEL 1
REMARK VINA RESULT:      -7.7      0.000      0.000
REMARK SMILES O=C(O)CCc1ccc2c(c1)OCO2
REMARK SMILES IDX 4 1 2 2 1 3 3 4 5 6 6 7 7 8 11 9 8 10 10 11 9 12 12 13 14 14
REMARK SMILES IDX 13 15
REMARK H PARENT 3 5
REMARK Flexibility Score: inf
ROOT
ATOM      1  C   UNL     1       5.409   2.874   0.121  1.00  0.00     0.127 C 
ENDROOT
BRANCH   1   2
ATOM      2  C   UNL     1       6.232   3.859   0.806  1.00  0.00     0.303 C 
ATOM      3  O   UNL     1       6.861   4.770   0.264  1.00  0.00    -0.252 OA
BRANCH   2   4
ATOM      4  O   UNL     1       6.320   3.765   2.204  1.00  0.00    -0.481 OA
ATOM      5  H   UNL     1       5.514   4.078   2.723  1.00  0.00     0.296 HD
ENDBRANCH   2   4
ENDBRANCH   1   2
BRANCH   1   6
ATOM      6  C   UNL     1       5.340   1.567   0.808  1.00  0.00     0.047 C 
BRANCH   6   7
ATOM      7  C   UNL     1       6.124   0.464   0.247  1.00  0.00    -0.043 A 
ATOM      8  C   UNL     1       6.589  -0.573   1.041  1.00  0.00     0.008 A 
ATOM      9  C   UNL     1       6.455   0.447  -1.082  1.00  0.00     0.054 A 
ATOM     10  C   UNL     1       7.356  -1.591   0.521  1.00  0.00     0.051 A 
ATOM     11  C   UNL     1       7.224  -0.565  -1.626  1.00  0.00     0.166 A 
ATOM     12  C   UNL     1       7.676  -1.587  -0.827  1.00  0.00     0.165 A 
ATOM     13  O   UNL     1       7.672  -0.786  -2.916  1.00  0.00    -0.454 OA
ATOM     14  O   UNL     1       8.413  -2.444  -1.646  1.00  0.00    -0.454 OA
ATOM     15  C   UNL     1       8.684  -1.804  -2.872  1.00  0.00     0.468 C 
ENDBRANCH   6   7
ENDBRANCH   1   6
TORSDOF 4
ENDMDL
MODEL 2
REMARK VINA RESULT:      -7.6      2.125      2.513
REMARK SMILES O=C(O)CCc1ccc2c(c1)OCO2
REMARK SMILES IDX 4 1 2 2 1 3 3 4 5 6 6 7 7 8 11 9 8 10 10 11 9 12 12 13 14 14
REMARK SMILES IDX 13 15
REMARK H PARENT 3 5
REMARK Flexibility Score: inf
ROOT
ATOM      1  C   UNL     1       4.697   1.875   0.675  1.00  0.00     0.127 C 
ENDROOT
BRANCH   1   2
ATOM      2  C   UNL     1       4.400   1.170   1.912  1.00  0.00     0.303 C 
ATOM      3  O   UNL     1       5.134   0.347   2.462  1.00  0.00    -0.252 OA
BRANCH   2   4
ATOM      4  O   UNL     1       3.173   1.448   2.534  1.00  0.00    -0.481 OA
ATOM      5  H   UNL     1       3.167   1.418   3.542  1.00  0.00     0.296 HD
ENDBRANCH   2   4
ENDBRANCH   1   2
BRANCH   1   6
ATOM      6  C   UNL     1       6.120   2.245   0.522  1.00  0.00     0.047 C 
BRANCH   6   7
ATOM      7  C   UNL     1       6.976   1.338  -0.247  1.00  0.00    -0.043 A 
ATOM      8  C   UNL     1       8.337   1.568  -0.383  1.00  0.00     0.008 A 
ATOM      9  C   UNL     1       6.446   0.252  -0.890  1.00  0.00     0.054 A 
ATOM     10  C   UNL     1       9.136   0.736  -1.135  1.00  0.00     0.051 A 
ATOM     11  C   UNL     1       7.229  -0.596  -1.650  1.00  0.00     0.166 A 
ATOM     12  C   UNL     1       8.576  -0.358  -1.775  1.00  0.00     0.165 A 
ATOM     13  O   UNL     1       6.916  -1.733  -2.374  1.00  0.00    -0.454 OA
ATOM     14  O   UNL     1       9.091  -1.367  -2.590  1.00  0.00    -0.454 OA
ATOM     15  C   UNL     1       8.031  -2.046  -3.224  1.00  0.00     0.468 C 
ENDBRANCH   6   7
ENDBRANCH   1   6
TORSDOF 4
ENDMDL
MODEL 3
REMARK VINA RESULT:      -7.5      1.982      2.905
REMARK SMILES O=C(O)CCc1ccc2c(c1)OCO2
REMARK SMILES IDX 4 1 2 2 1 3 3 4 5 6 6 7 7 8 11 9 8 10 10 11 9 12 12 13 14 14
REMARK SMILES IDX 13 15
REMARK H PARENT 3 5
REMARK Flexibility Score: inf
ROOT
ATOM      1  C   UNL     1       6.394   1.253   0.676  1.00  0.00     0.127 C 
ENDROOT
BRANCH   1   2
ATOM      2  C   UNL     1       5.167   1.280   1.457  1.00  0.00     0.303 C 
ATOM      3  O   UNL     1       4.260   2.106   1.341  1.00  0.00    -0.252 OA
BRANCH   2   4
ATOM      4  O   UNL     1       4.999   0.279   2.428  1.00  0.00    -0.481 OA
ATOM      5  H   UNL     1       5.843  -0.143   2.783  1.00  0.00     0.296 HD
ENDBRANCH   2   4
ENDBRANCH   1   2
BRANCH   1   6
ATOM      6  C   UNL     1       6.210   0.784  -0.714  1.00  0.00     0.047 C 
BRANCH   6   7
ATOM      7  C   UNL     1       6.972  -0.393  -1.137  1.00  0.00    -0.043 A 
ATOM      8  C   UNL     1       7.270  -0.622  -2.472  1.00  0.00     0.008 A 
ATOM      9  C   UNL     1       7.381  -1.328  -0.224  1.00  0.00     0.054 A 
ATOM     10  C   UNL     1       7.955  -1.746  -2.876  1.00  0.00     0.051 A 
ATOM     11  C   UNL     1       8.071  -2.464  -0.606  1.00  0.00     0.166 A 
ATOM     12  C   UNL     1       8.360  -2.676  -1.933  1.00  0.00     0.165 A 
ATOM     13  O   UNL     1       8.574  -3.523   0.128  1.00  0.00    -0.454 OA
ATOM     14  O   UNL     1       9.051  -3.887  -2.005  1.00  0.00    -0.454 OA
ATOM     15  C   UNL     1       8.920  -4.577  -0.784  1.00  0.00     0.468 C 
ENDBRANCH   6   7
ENDBRANCH   1   6
TORSDOF 4
ENDMDL
MODEL 4
REMARK VINA RESULT:      -7.5      1.813      5.264
REMARK SMILES O=C(O)CCc1ccc2c(c1)OCO2
REMARK SMILES IDX 4 1 2 2 1 3 3 4 5 6 6 7 7 8 11 9 8 10 10 11 9 12 12 13 14 14
REMARK SMILES IDX 13 15
REMARK H PARENT 3 5
REMARK Flexibility Score: inf
ROOT
ATOM      1  C   UNL     1       8.226  -0.224  -2.840  1.00  0.00     0.127 C 
ENDROOT
BRANCH   1   2
ATOM      2  C   UNL     1       8.470  -1.646  -3.030  1.00  0.00     0.303 C 
ATOM      3  O   UNL     1       9.560  -2.208  -2.911  1.00  0.00    -0.252 OA
BRANCH   2   4
ATOM      4  O   UNL     1       7.371  -2.447  -3.379  1.00  0.00    -0.481 OA
ATOM      5  H   UNL     1       6.546  -1.960  -3.693  1.00  0.00     0.296 HD
ENDBRANCH   2   4
ENDBRANCH   1   2
BRANCH   1   6
ATOM      6  C   UNL     1       8.681   0.293  -1.532  1.00  0.00     0.047 C 
BRANCH   6   7
ATOM      7  C   UNL     1       7.736   0.235  -0.415  1.00  0.00    -0.043 A 
ATOM      8  C   UNL     1       7.780  -0.790   0.519  1.00  0.00     0.008 A 
ATOM      9  C   UNL     1       6.750   1.176  -0.281  1.00  0.00     0.054 A 
ATOM     10  C   UNL     1       6.869  -0.866   1.549  1.00  0.00     0.051 A 
ATOM     11  C   UNL     1       5.826   1.120   0.745  1.00  0.00     0.166 A 
ATOM     12  C   UNL     1       5.882   0.100   1.664  1.00  0.00     0.165 A 
ATOM     13  O   UNL     1       4.764   1.946   1.072  1.00  0.00    -0.454 OA
ATOM     14  O   UNL     1       4.836   0.309   2.563  1.00  0.00    -0.454 OA
ATOM     15  C   UNL     1       3.946   1.266   2.035  1.00  0.00     0.468 C 
ENDBRANCH   6   7
ENDBRANCH   1   6
TORSDOF 4
ENDMDL
MODEL 5
REMARK VINA RESULT:      -7.4      0.945      2.114
REMARK SMILES O=C(O)CCc1ccc2c(c1)OCO2
REMARK SMILES IDX 4 1 2 2 1 3 3 4 5 6 6 7 7 8 11 9 8 10 10 11 9 12 12 13 14 14
REMARK SMILES IDX 13 15
REMARK H PARENT 3 5
REMARK Flexibility Score: inf
ROOT
ATOM      1  C   UNL     1       5.348   2.791   0.226  1.00  0.00     0.127 C 
ENDROOT
BRANCH   1   2
ATOM      2  C   UNL     1       6.156   3.751   0.963  1.00  0.00     0.303 C 
ATOM      3  O   UNL     1       6.259   3.810   2.189  1.00  0.00    -0.252 OA
BRANCH   2   4
ATOM      4  O   UNL     1       6.881   4.691   0.214  1.00  0.00    -0.481 OA
ATOM      5  H   UNL     1       6.369   5.178  -0.506  1.00  0.00     0.296 HD
ENDBRANCH   2   4
ENDBRANCH   1   2
BRANCH   1   6
ATOM      6  C   UNL     1       5.327   1.440   0.826  1.00  0.00     0.047 C 
BRANCH   6   7
ATOM      7  C   UNL     1       6.169   0.412   0.209  1.00  0.00    -0.043 A 
ATOM      8  C   UNL     1       6.411   0.396  -1.156  1.00  0.00     0.008 A 
ATOM      9  C   UNL     1       6.714  -0.592   0.964  1.00  0.00     0.054 A 
ATOM     10  C   UNL     1       7.173  -0.590  -1.742  1.00  0.00     0.051 A 
ATOM     11  C   UNL     1       7.482  -1.592   0.398  1.00  0.00     0.166 A 
ATOM     12  C   UNL     1       7.714  -1.594  -0.956  1.00  0.00     0.165 A 
ATOM     13  O   UNL     1       8.122  -2.685   0.955  1.00  0.00    -0.454 OA
ATOM     14  O   UNL     1       8.509  -2.709  -1.226  1.00  0.00    -0.454 OA
ATOM     15  C   UNL     1       8.512  -3.567  -0.109  1.00  0.00     0.468 C 
ENDBRANCH   6   7
ENDBRANCH   1   6
TORSDOF 4
ENDMDL
