@<TRIPOS>MOLECULE
/home/cewinharhar/GITHUB/reincatalyze/data/processed/docking_pred/2023-May-17-1006_maxeplen10_maxtrainstep1000_seadep16_gamma099_lrac9e-4_lrcr1e-3_sub6/2f41e52dfc6618f39d2325611a45b0a1c53476a0_ligand_6.pdbqt
 15 16 0 0 0
SMALL
GASTEIGER

@<TRIPOS>ATOM
      1  C          4.6970    1.8750    0.6750 C.3     1  UNL1        0.1270
      2  C          4.4000    1.1700    1.9120 C.2     1  UNL1        0.3030
      3  O          5.1340    0.3470    2.4620 O.2     1  UNL1       -0.2520
      4  O          3.1730    1.4480    2.5340 O.3     1  UNL1       -0.4810
      5  H          3.1670    1.4180    3.5420 H       1  UNL1        0.2960
      6  C          6.1200    2.2450    0.5220 C.3     1  UNL1        0.0470
      7  C          6.9760    1.3380   -0.2470 C.2     1  UNL1       -0.0430
      8  C          8.3370    1.5680   -0.3830 C.2     1  UNL1        0.0080
      9  C          6.4460    0.2520   -0.8900 C.2     1  UNL1        0.0540
     10  C          9.1360    0.7360   -1.1350 C.2     1  UNL1        0.0510
     11  C          7.2290   -0.5960   -1.6500 C.2     1  UNL1        0.1660
     12  C          8.5760   -0.3580   -1.7750 C.2     1  UNL1        0.1650
     13  O          6.9160   -1.7330   -2.3740 O.2     1  UNL1       -0.4540
     14  O          9.0910   -1.3670   -2.5900 O.2     1  UNL1       -0.4540
     15  C          8.0310   -2.0460   -3.2240 C.3     1  UNL1        0.4680
@<TRIPOS>BOND
     1    15    14    1
     2    15    13    1
     3    14    12    1
     4    13    11    1
     5    12    11    2
     6    12    10    1
     7    11     9    1
     8    10     8    2
     9     9     7    2
    10     8     7    1
    11     7     6    1
    12     6     1    1
    13     1     2    1
    14     2     3    2
    15     2     4    1
    16     4     5    1
