@<TRIPOS>MOLECULE
/home/cewinharhar/GITHUB/reincatalyze/data/processed/docking_pred/2023-May-17-1006_maxeplen10_maxtrainstep1000_seadep16_gamma099_lrac9e-4_lrcr1e-3_sub6/2f41e52dfc6618f39d2325611a45b0a1c53476a0_ligand_6.pdbqt
 15 16 0 0 0
SMALL
GASTEIGER

@<TRIPOS>ATOM
      1  C          5.4090    2.8740    0.1210 C.3     1  UNL1        0.1270
      2  C          6.2320    3.8590    0.8060 C.2     1  UNL1        0.3030
      3  O          6.8610    4.7700    0.2640 O.2     1  UNL1       -0.2520
      4  O          6.3200    3.7650    2.2040 O.3     1  UNL1       -0.4810
      5  H          5.5140    4.0780    2.7230 H       1  UNL1        0.2960
      6  C          5.3400    1.5670    0.8080 C.3     1  UNL1        0.0470
      7  C          6.1240    0.4640    0.2470 C.2     1  UNL1       -0.0430
      8  C          6.5890   -0.5730    1.0410 C.2     1  UNL1        0.0080
      9  C          6.4550    0.4470   -1.0820 C.2     1  UNL1        0.0540
     10  C          7.3560   -1.5910    0.5210 C.2     1  UNL1        0.0510
     11  C          7.2240   -0.5650   -1.6260 C.2     1  UNL1        0.1660
     12  C          7.6760   -1.5870   -0.8270 C.2     1  UNL1        0.1650
     13  O          7.6720   -0.7860   -2.9160 O.2     1  UNL1       -0.4540
     14  O          8.4130   -2.4440   -1.6460 O.2     1  UNL1       -0.4540
     15  C          8.6840   -1.8040   -2.8720 C.3     1  UNL1        0.4680
@<TRIPOS>BOND
     1    13    15    1
     2    13    11    1
     3    15    14    1
     4    14    12    1
     5    11     9    1
     6    11    12    2
     7     9     7    2
     8    12    10    1
     9     1     2    1
    10     1     6    1
    11     7     6    1
    12     7     8    1
    13     3     2    2
    14    10     8    2
    15     2     4    1
    16     4     5    1
