@<TRIPOS>MOLECULE
/home/cewinharhar/GITHUB/reincatalyze/data/processed/docking_pred/2023-May-17-1006_maxeplen10_maxtrainstep1000_seadep16_gamma099_lrac9e-4_lrcr1e-3_sub6/2f41e52dfc6618f39d2325611a45b0a1c53476a0_ligand_6.pdbqt
 15 16 0 0 0
SMALL
GASTEIGER

@<TRIPOS>ATOM
      1  C          6.3940    1.2530    0.6760 C.3     1  UNL1        0.1270
      2  C          5.1670    1.2800    1.4570 C.2     1  UNL1        0.3030
      3  O          4.2600    2.1060    1.3410 O.2     1  UNL1       -0.2520
      4  O          4.9990    0.2790    2.4280 O.3     1  UNL1       -0.4810
      5  H          5.8430   -0.1430    2.7830 H       1  UNL1        0.2960
      6  C          6.2100    0.7840   -0.7140 C.3     1  UNL1        0.0470
      7  C          6.9720   -0.3930   -1.1370 C.2     1  UNL1       -0.0430
      8  C          7.2700   -0.6220   -2.4720 C.2     1  UNL1        0.0080
      9  C          7.3810   -1.3280   -0.2240 C.2     1  UNL1        0.0540
     10  C          7.9550   -1.7460   -2.8760 C.2     1  UNL1        0.0510
     11  C          8.0710   -2.4640   -0.6060 C.2     1  UNL1        0.1660
     12  C          8.3600   -2.6760   -1.9330 C.2     1  UNL1        0.1650
     13  O          8.5740   -3.5230    0.1280 O.2     1  UNL1       -0.4540
     14  O          9.0510   -3.8870   -2.0050 O.2     1  UNL1       -0.4540
     15  C          8.9200   -4.5770   -0.7840 C.3     1  UNL1        0.4680
@<TRIPOS>BOND
     1    10     8    1
     2    10    12    2
     3     8     7    2
     4    14    12    1
     5    14    15    1
     6    12    11    1
     7     7     6    1
     8     7     9    1
     9    15    13    1
    10     6     1    1
    11    11     9    2
    12    11    13    1
    13     1     2    1
    14     3     2    2
    15     2     4    1
    16     4     5    1
