MODEL 1
REMARK VINA RESULT:      -7.3      0.000      0.000
REMARK SMILES O=C(O)CCc1ccc2c(c1)OCO2
REMARK SMILES IDX 4 1 2 2 1 3 3 4 5 6 6 7 7 8 11 9 8 10 10 11 9 12 12 13 14 14
REMARK SMILES IDX 13 15
REMARK H PARENT 3 5
REMARK Flexibility Score: inf
ROOT
ATOM      1  C   UNL     1       4.687   1.837   0.687  1.00  0.00     0.127 C 
ENDROOT
BRANCH   1   2
ATOM      2  C   UNL     1       4.397   1.138   1.929  1.00  0.00     0.303 C 
ATOM      3  O   UNL     1       5.134   0.317   2.479  1.00  0.00    -0.252 OA
BRANCH   2   4
ATOM      4  O   UNL     1       3.174   1.420   2.557  1.00  0.00    -0.481 OA
ATOM      5  H   UNL     1       3.172   2.197   3.199  1.00  0.00     0.296 HD
ENDBRANCH   2   4
ENDBRANCH   1   2
BRANCH   1   6
ATOM      6  C   UNL     1       6.107   2.219   0.531  1.00  0.00     0.047 C 
BRANCH   6   7
ATOM      7  C   UNL     1       6.970   1.318  -0.236  1.00  0.00    -0.043 A 
ATOM      8  C   UNL     1       8.330   1.553  -0.367  1.00  0.00     0.008 A 
ATOM      9  C   UNL     1       6.447   0.230  -0.884  1.00  0.00     0.054 A 
ATOM     10  C   UNL     1       9.136   0.727  -1.118  1.00  0.00     0.051 A 
ATOM     11  C   UNL     1       7.237  -0.613  -1.642  1.00  0.00     0.166 A 
ATOM     12  C   UNL     1       8.583  -0.368  -1.762  1.00  0.00     0.165 A 
ATOM     13  O   UNL     1       6.932  -1.750  -2.370  1.00  0.00    -0.454 OA
ATOM     14  O   UNL     1       9.105  -1.374  -2.577  1.00  0.00    -0.454 OA
ATOM     15  C   UNL     1       8.051  -2.056  -3.216  1.00  0.00     0.468 C 
ENDBRANCH   6   7
ENDBRANCH   1   6
TORSDOF 4
ENDMDL
MODEL 2
REMARK VINA RESULT:      -7.3      2.122      2.534
REMARK SMILES O=C(O)CCc1ccc2c(c1)OCO2
REMARK SMILES IDX 4 1 2 2 1 3 3 4 5 6 6 7 7 8 11 9 8 10 10 11 9 12 12 13 14 14
REMARK SMILES IDX 13 15
REMARK H PARENT 3 5
REMARK Flexibility Score: inf
ROOT
ATOM      1  C   UNL     1       5.421   2.889   0.074  1.00  0.00     0.127 C 
ENDROOT
BRANCH   1   2
ATOM      2  C   UNL     1       6.243   3.861   0.778  1.00  0.00     0.303 C 
ATOM      3  O   UNL     1       6.922   4.743   0.249  1.00  0.00    -0.252 OA
BRANCH   2   4
ATOM      4  O   UNL     1       6.267   3.790   2.180  1.00  0.00    -0.481 OA
ATOM      5  H   UNL     1       7.075   3.347   2.590  1.00  0.00     0.296 HD
ENDBRANCH   2   4
ENDBRANCH   1   2
BRANCH   1   6
ATOM      6  C   UNL     1       5.338   1.574   0.746  1.00  0.00     0.047 C 
BRANCH   6   7
ATOM      7  C   UNL     1       6.102   0.468   0.166  1.00  0.00    -0.043 A 
ATOM      8  C   UNL     1       6.476  -0.631   0.924  1.00  0.00     0.008 A 
ATOM      9  C   UNL     1       6.506   0.506  -1.143  1.00  0.00     0.054 A 
ATOM     10  C   UNL     1       7.225  -1.655   0.389  1.00  0.00     0.051 A 
ATOM     11  C   UNL     1       7.258  -0.510  -1.701  1.00  0.00     0.166 A 
ATOM     12  C   UNL     1       7.620  -1.594  -0.937  1.00  0.00     0.165 A 
ATOM     13  O   UNL     1       7.768  -0.682  -2.976  1.00  0.00    -0.454 OA
ATOM     14  O   UNL     1       8.363  -2.439  -1.763  1.00  0.00    -0.454 OA
ATOM     15  C   UNL     1       8.730  -1.747  -2.935  1.00  0.00     0.468 C 
ENDBRANCH   6   7
ENDBRANCH   1   6
TORSDOF 4
ENDMDL
MODEL 3
REMARK VINA RESULT:      -7.1      2.990      3.785
REMARK SMILES O=C(O)CCc1ccc2c(c1)OCO2
REMARK SMILES IDX 4 1 2 2 1 3 3 4 5 6 6 7 7 8 11 9 8 10 10 11 9 12 12 13 14 14
REMARK SMILES IDX 13 15
REMARK H PARENT 3 5
REMARK Flexibility Score: inf
ROOT
ATOM      1  C   UNL     1       5.123   2.761   0.057  1.00  0.00     0.127 C 
ENDROOT
BRANCH   1   2
ATOM      2  C   UNL     1       6.100   3.645   0.675  1.00  0.00     0.303 C 
ATOM      3  O   UNL     1       6.843   4.424   0.075  1.00  0.00    -0.252 OA
BRANCH   2   4
ATOM      4  O   UNL     1       6.208   3.609   2.074  1.00  0.00    -0.481 OA
ATOM      5  H   UNL     1       5.590   4.222   2.584  1.00  0.00     0.296 HD
ENDBRANCH   2   4
ENDBRANCH   1   2
BRANCH   1   6
ATOM      6  C   UNL     1       5.708   1.533  -0.523  1.00  0.00     0.047 C 
BRANCH   6   7
ATOM      7  C   UNL     1       6.309   0.568   0.399  1.00  0.00    -0.043 A 
ATOM      8  C   UNL     1       5.650   0.154   1.547  1.00  0.00     0.008 A 
ATOM      9  C   UNL     1       7.566   0.072   0.173  1.00  0.00     0.054 A 
ATOM     10  C   UNL     1       6.230  -0.725   2.434  1.00  0.00     0.051 A 
ATOM     11  C   UNL     1       8.167  -0.812   1.048  1.00  0.00     0.166 A 
ATOM     12  C   UNL     1       7.501  -1.214   2.181  1.00  0.00     0.165 A 
ATOM     13  O   UNL     1       9.404  -1.431   1.023  1.00  0.00    -0.454 OA
ATOM     14  O   UNL     1       8.350  -2.093   2.856  1.00  0.00    -0.454 OA
ATOM     15  C   UNL     1       9.649  -1.998   2.319  1.00  0.00     0.468 C 
ENDBRANCH   6   7
ENDBRANCH   1   6
TORSDOF 4
ENDMDL
MODEL 4
REMARK VINA RESULT:      -7.1      4.452      4.947
REMARK SMILES O=C(O)CCc1ccc2c(c1)OCO2
REMARK SMILES IDX 4 1 2 2 1 3 3 4 5 6 6 7 7 8 11 9 8 10 10 11 9 12 12 13 14 14
REMARK SMILES IDX 13 15
REMARK H PARENT 3 5
REMARK Flexibility Score: inf
ROOT
ATOM      1  C   UNL     1       6.419   0.222   1.002  1.00  0.00     0.127 C 
ENDROOT
BRANCH   1   2
ATOM      2  C   UNL     1       5.282   0.866   1.641  1.00  0.00     0.303 C 
ATOM      3  O   UNL     1       4.519   0.336   2.451  1.00  0.00    -0.252 OA
BRANCH   2   4
ATOM      4  O   UNL     1       5.030   2.206   1.307  1.00  0.00    -0.481 OA
ATOM      5  H   UNL     1       5.453   2.901   1.903  1.00  0.00     0.296 HD
ENDBRANCH   2   4
ENDBRANCH   1   2
BRANCH   1   6
ATOM      6  C   UNL     1       6.579  -1.204   1.360  1.00  0.00     0.047 C 
BRANCH   6   7
ATOM      7  C   UNL     1       7.679  -1.557   2.261  1.00  0.00    -0.043 A 
ATOM      8  C   UNL     1       7.635  -1.250   3.612  1.00  0.00     0.008 A 
ATOM      9  C   UNL     1       8.806  -2.170   1.783  1.00  0.00     0.054 A 
ATOM     10  C   UNL     1       8.683  -1.549   4.454  1.00  0.00     0.051 A 
ATOM     11  C   UNL     1       9.870  -2.479   2.609  1.00  0.00     0.166 A 
ATOM     12  C   UNL     1       9.813  -2.171   3.947  1.00  0.00     0.165 A 
ATOM     13  O   UNL     1      11.087  -3.087   2.352  1.00  0.00    -0.454 OA
ATOM     14  O   UNL     1      11.015  -2.598   4.511  1.00  0.00    -0.454 OA
ATOM     15  C   UNL     1      11.941  -2.882   3.487  1.00  0.00     0.468 C 
ENDBRANCH   6   7
ENDBRANCH   1   6
TORSDOF 4
ENDMDL
MODEL 5
REMARK VINA RESULT:      -7.1      2.489      2.826
REMARK SMILES O=C(O)CCc1ccc2c(c1)OCO2
REMARK SMILES IDX 4 1 2 2 1 3 3 4 5 6 6 7 7 8 11 9 8 10 10 11 9 12 12 13 14 14
REMARK SMILES IDX 13 15
REMARK H PARENT 3 5
REMARK Flexibility Score: inf
ROOT
ATOM      1  C   UNL     1       5.384   2.833   0.081  1.00  0.00     0.127 C 
ENDROOT
BRANCH   1   2
ATOM      2  C   UNL     1       6.245   3.714   0.854  1.00  0.00     0.303 C 
ATOM      3  O   UNL     1       6.482   3.609   2.059  1.00  0.00    -0.252 OA
BRANCH   2   4
ATOM      4  O   UNL     1       6.861   4.775   0.172  1.00  0.00    -0.481 OA
ATOM      5  H   UNL     1       6.276   5.570  -0.035  1.00  0.00     0.296 HD
ENDBRANCH   2   4
ENDBRANCH   1   2
BRANCH   1   6
ATOM      6  C   UNL     1       5.269   1.467   0.636  1.00  0.00     0.047 C 
BRANCH   6   7
ATOM      7  C   UNL     1       6.154   0.437   0.089  1.00  0.00    -0.043 A 
ATOM      8  C   UNL     1       6.496   0.414  -1.254  1.00  0.00     0.008 A 
ATOM      9  C   UNL     1       6.642  -0.563   0.888  1.00  0.00     0.054 A 
ATOM     10  C   UNL     1       7.300  -0.575  -1.777  1.00  0.00     0.051 A 
ATOM     11  C   UNL     1       7.450  -1.565   0.385  1.00  0.00     0.166 A 
ATOM     12  C   UNL     1       7.782  -1.575  -0.948  1.00  0.00     0.165 A 
ATOM     13  O   UNL     1       8.047  -2.656   0.993  1.00  0.00    -0.454 OA
ATOM     14  O   UNL     1       8.594  -2.691  -1.153  1.00  0.00    -0.454 OA
ATOM     15  C   UNL     1       8.514  -3.543  -0.034  1.00  0.00     0.468 C 
ENDBRANCH   6   7
ENDBRANCH   1   6
TORSDOF 4
ENDMDL
