@<TRIPOS>MOLECULE
/home/cewinharhar/GITHUB/reincatalyze/data/processed/docking_pred/2023-May-17-1006_maxeplen10_maxtrainstep1000_seadep16_gamma099_lrac9e-4_lrcr1e-3_sub6/30246d56752cb6be0208f58fab85103c625ac011_ligand_6.pdbqt
 15 16 0 0 0
SMALL
GASTEIGER

@<TRIPOS>ATOM
      1  C          5.1230    2.7610    0.0570 C.3     1  UNL1        0.1270
      2  C          6.1000    3.6450    0.6750 C.2     1  UNL1        0.3030
      3  O          6.8430    4.4240    0.0750 O.2     1  UNL1       -0.2520
      4  O          6.2080    3.6090    2.0740 O.3     1  UNL1       -0.4810
      5  H          5.5900    4.2220    2.5840 H       1  UNL1        0.2960
      6  C          5.7080    1.5330   -0.5230 C.3     1  UNL1        0.0470
      7  C          6.3090    0.5680    0.3990 C.2     1  UNL1       -0.0430
      8  C          5.6500    0.1540    1.5470 C.2     1  UNL1        0.0080
      9  C          7.5660    0.0720    0.1730 C.2     1  UNL1        0.0540
     10  C          6.2300   -0.7250    2.4340 C.2     1  UNL1        0.0510
     11  C          8.1670   -0.8120    1.0480 C.2     1  UNL1        0.1660
     12  C          7.5010   -1.2140    2.1810 C.2     1  UNL1        0.1650
     13  O          9.4040   -1.4310    1.0230 O.2     1  UNL1       -0.4540
     14  O          8.3500   -2.0930    2.8560 O.2     1  UNL1       -0.4540
     15  C          9.6490   -1.9980    2.3190 C.3     1  UNL1        0.4680
@<TRIPOS>BOND
     1     6     1    1
     2     6     7    1
     3     1     2    1
     4     3     2    2
     5     9     7    2
     6     9    11    1
     7     7     8    1
     8     2     4    1
     9    13    11    1
    10    13    15    1
    11    11    12    2
    12     8    10    2
    13     4     5    1
    14    12    10    1
    15    12    14    1
    16    15    14    1
