@<TRIPOS>MOLECULE
/home/cewinharhar/GITHUB/reincatalyze/data/processed/docking_pred/2023-May-17-1006_maxeplen10_maxtrainstep1000_seadep16_gamma099_lrac9e-4_lrcr1e-3_sub6/30246d56752cb6be0208f58fab85103c625ac011_ligand_6.pdbqt
 15 16 0 0 0
SMALL
GASTEIGER

@<TRIPOS>ATOM
      1  C          5.3840    2.8330    0.0810 C.3     1  UNL1        0.1270
      2  C          6.2450    3.7140    0.8540 C.2     1  UNL1        0.3030
      3  O          6.4820    3.6090    2.0590 O.2     1  UNL1       -0.2520
      4  O          6.8610    4.7750    0.1720 O.3     1  UNL1       -0.4810
      5  H          6.2760    5.5700   -0.0350 H       1  UNL1        0.2960
      6  C          5.2690    1.4670    0.6360 C.3     1  UNL1        0.0470
      7  C          6.1540    0.4370    0.0890 C.2     1  UNL1       -0.0430
      8  C          6.4960    0.4140   -1.2540 C.2     1  UNL1        0.0080
      9  C          6.6420   -0.5630    0.8880 C.2     1  UNL1        0.0540
     10  C          7.3000   -0.5750   -1.7770 C.2     1  UNL1        0.0510
     11  C          7.4500   -1.5650    0.3850 C.2     1  UNL1        0.1660
     12  C          7.7820   -1.5750   -0.9480 C.2     1  UNL1        0.1650
     13  O          8.0470   -2.6560    0.9930 O.2     1  UNL1       -0.4540
     14  O          8.5940   -2.6910   -1.1530 O.2     1  UNL1       -0.4540
     15  C          8.5140   -3.5430   -0.0340 C.3     1  UNL1        0.4680
@<TRIPOS>BOND
     1    10     8    1
     2    10    12    2
     3     8     7    2
     4    14    12    1
     5    14    15    1
     6    12    11    1
     7     5     4    1
     8    15    13    1
     9     1     6    1
    10     1     2    1
    11     7     6    1
    12     7     9    1
    13     4     2    1
    14    11     9    2
    15    11    13    1
    16     2     3    2
