@<TRIPOS>MOLECULE
/home/cewinharhar/GITHUB/reincatalyze/data/processed/docking_pred/2023-May-17-1006_maxeplen10_maxtrainstep1000_seadep16_gamma099_lrac9e-4_lrcr1e-3_sub6/30246d56752cb6be0208f58fab85103c625ac011_ligand_6.pdbqt
 15 16 0 0 0
SMALL
GASTEIGER

@<TRIPOS>ATOM
      1  C          5.4210    2.8890    0.0740 C.3     1  UNL1        0.1270
      2  C          6.2430    3.8610    0.7780 C.2     1  UNL1        0.3030
      3  O          6.9220    4.7430    0.2490 O.2     1  UNL1       -0.2520
      4  O          6.2670    3.7900    2.1800 O.3     1  UNL1       -0.4810
      5  H          7.0750    3.3470    2.5900 H       1  UNL1        0.2960
      6  C          5.3380    1.5740    0.7460 C.3     1  UNL1        0.0470
      7  C          6.1020    0.4680    0.1660 C.2     1  UNL1       -0.0430
      8  C          6.4760   -0.6310    0.9240 C.2     1  UNL1        0.0080
      9  C          6.5060    0.5060   -1.1430 C.2     1  UNL1        0.0540
     10  C          7.2250   -1.6550    0.3890 C.2     1  UNL1        0.0510
     11  C          7.2580   -0.5100   -1.7010 C.2     1  UNL1        0.1660
     12  C          7.6200   -1.5940   -0.9370 C.2     1  UNL1        0.1650
     13  O          7.7680   -0.6820   -2.9760 O.2     1  UNL1       -0.4540
     14  O          8.3630   -2.4390   -1.7630 O.2     1  UNL1       -0.4540
     15  C          8.7300   -1.7470   -2.9350 C.3     1  UNL1        0.4680
@<TRIPOS>BOND
     1    13    15    1
     2    13    11    1
     3    15    14    1
     4    14    12    1
     5    11     9    1
     6    11    12    2
     7     9     7    2
     8    12    10    1
     9     1     6    1
    10     1     2    1
    11     7     6    1
    12     7     8    1
    13     3     2    2
    14    10     8    2
    15     2     4    1
    16     4     5    1
