@<TRIPOS>MOLECULE
/home/cewinharhar/GITHUB/reincatalyze/data/processed/docking_pred/2023-May-17-1006_maxeplen10_maxtrainstep1000_seadep16_gamma099_lrac9e-4_lrcr1e-3_sub6/30246d56752cb6be0208f58fab85103c625ac011_ligand_6.pdbqt
 15 16 0 0 0
SMALL
GASTEIGER

@<TRIPOS>ATOM
      1  C          6.4190    0.2220    1.0020 C.3     1  UNL1        0.1270
      2  C          5.2820    0.8660    1.6410 C.2     1  UNL1        0.3030
      3  O          4.5190    0.3360    2.4510 O.2     1  UNL1       -0.2520
      4  O          5.0300    2.2060    1.3070 O.3     1  UNL1       -0.4810
      5  H          5.4530    2.9010    1.9030 H       1  UNL1        0.2960
      6  C          6.5790   -1.2040    1.3600 C.3     1  UNL1        0.0470
      7  C          7.6790   -1.5570    2.2610 C.2     1  UNL1       -0.0430
      8  C          7.6350   -1.2500    3.6120 C.2     1  UNL1        0.0080
      9  C          8.8060   -2.1700    1.7830 C.2     1  UNL1        0.0540
     10  C          8.6830   -1.5490    4.4540 C.2     1  UNL1        0.0510
     11  C          9.8700   -2.4790    2.6090 C.2     1  UNL1        0.1660
     12  C          9.8130   -2.1710    3.9470 C.2     1  UNL1        0.1650
     13  O         11.0870   -3.0870    2.3520 O.2     1  UNL1       -0.4540
     14  O         11.0150   -2.5980    4.5110 O.2     1  UNL1       -0.4540
     15  C         11.9410   -2.8820    3.4870 C.3     1  UNL1        0.4680
@<TRIPOS>BOND
     1     1     6    1
     2     1     2    1
     3     4     2    1
     4     4     5    1
     5     6     7    1
     6     2     3    2
     7     9     7    2
     8     9    11    1
     9     7     8    1
    10    13    11    1
    11    13    15    1
    12    11    12    2
    13    15    14    1
    14     8    10    2
    15    12    10    1
    16    12    14    1
