@<TRIPOS>MOLECULE
/home/cewinharhar/GITHUB/reincatalyze/data/processed/docking_pred/2023-May-17-1006_maxeplen10_maxtrainstep1000_seadep16_gamma099_lrac9e-4_lrcr1e-3_sub6/30246d56752cb6be0208f58fab85103c625ac011_ligand_6.pdbqt
 15 16 0 0 0
SMALL
GASTEIGER

@<TRIPOS>ATOM
      1  C          4.6870    1.8370    0.6870 C.3     1  UNL1        0.1270
      2  C          4.3970    1.1380    1.9290 C.2     1  UNL1        0.3030
      3  O          5.1340    0.3170    2.4790 O.2     1  UNL1       -0.2520
      4  O          3.1740    1.4200    2.5570 O.3     1  UNL1       -0.4810
      5  H          3.1720    2.1970    3.1990 H       1  UNL1        0.2960
      6  C          6.1070    2.2190    0.5310 C.3     1  UNL1        0.0470
      7  C          6.9700    1.3180   -0.2360 C.2     1  UNL1       -0.0430
      8  C          8.3300    1.5530   -0.3670 C.2     1  UNL1        0.0080
      9  C          6.4470    0.2300   -0.8840 C.2     1  UNL1        0.0540
     10  C          9.1360    0.7270   -1.1180 C.2     1  UNL1        0.0510
     11  C          7.2370   -0.6130   -1.6420 C.2     1  UNL1        0.1660
     12  C          8.5830   -0.3680   -1.7620 C.2     1  UNL1        0.1650
     13  O          6.9320   -1.7500   -2.3700 O.2     1  UNL1       -0.4540
     14  O          9.1050   -1.3740   -2.5770 O.2     1  UNL1       -0.4540
     15  C          8.0510   -2.0560   -3.2160 C.3     1  UNL1        0.4680
@<TRIPOS>BOND
     1    15    14    1
     2    15    13    1
     3    14    12    1
     4    13    11    1
     5    12    11    2
     6    12    10    1
     7    11     9    1
     8    10     8    2
     9     9     7    2
    10     8     7    1
    11     7     6    1
    12     6     1    1
    13     1     2    1
    14     2     3    2
    15     2     4    1
    16     4     5    1
