@<TRIPOS>MOLECULE
/home/cewinharhar/GITHUB/reincatalyze/data/processed/docking_pred/2023-May-17-1006_maxeplen10_maxtrainstep1000_seadep16_gamma099_lrac9e-4_lrcr1e-3_sub6/306d1dfeb5e1085b4f3e24b09348dc81ae645662_ligand_6.pdbqt
 15 16 0 0 0
SMALL
GASTEIGER

@<TRIPOS>ATOM
      1  C          4.7040    1.8810    0.6820 C.3     1  UNL1        0.1270
      2  C          4.3950    1.1680    1.9110 C.2     1  UNL1        0.3030
      3  O          5.1160    0.3290    2.4550 O.2     1  UNL1       -0.2520
      4  O          3.1710    1.4570    2.5340 O.3     1  UNL1       -0.4810
      5  H          3.2240    1.9460    3.4150 H       1  UNL1        0.2960
      6  C          6.1310    2.2370    0.5370 C.3     1  UNL1        0.0470
      7  C          6.9800    1.3310   -0.2390 C.2     1  UNL1       -0.0430
      8  C          8.3440    1.5470   -0.3670 C.2     1  UNL1        0.0080
      9  C          6.4400    0.2580   -0.8980 C.2     1  UNL1        0.0540
     10  C          9.1370    0.7160   -1.1270 C.2     1  UNL1        0.0510
     11  C          7.2170   -0.5890   -1.6650 C.2     1  UNL1        0.1660
     12  C          8.5680   -0.3640   -1.7820 C.2     1  UNL1        0.1650
     13  O          6.8950   -1.7140   -2.4040 O.2     1  UNL1       -0.4540
     14  O          9.0740   -1.3690   -2.6070 O.2     1  UNL1       -0.4540
     15  C          8.0090   -2.0280   -3.2530 C.3     1  UNL1        0.4680
@<TRIPOS>BOND
     1    15    14    1
     2    15    13    1
     3    14    12    1
     4    13    11    1
     5    12    11    2
     6    12    10    1
     7    11     9    1
     8    10     8    2
     9     9     7    2
    10     8     7    1
    11     7     6    1
    12     6     1    1
    13     1     2    1
    14     2     3    2
    15     2     4    1
    16     4     5    1
