@<TRIPOS>MOLECULE
/home/cewinharhar/GITHUB/reincatalyze/data/processed/docking_pred/2023-May-17-1006_maxeplen10_maxtrainstep1000_seadep16_gamma099_lrac9e-4_lrcr1e-3_sub6/306d1dfeb5e1085b4f3e24b09348dc81ae645662_ligand_6.pdbqt
 15 16 0 0 0
SMALL
GASTEIGER

@<TRIPOS>ATOM
      1  C          8.2260   -0.2160   -2.8450 C.3     1  UNL1        0.1270
      2  C          8.4560   -1.6370   -3.0510 C.2     1  UNL1        0.3030
      3  O          9.5400   -2.2120   -2.9340 O.2     1  UNL1       -0.2520
      4  O          7.3520   -2.4230   -3.4150 O.3     1  UNL1       -0.4810
      5  H          6.9760   -3.0220   -2.6970 H       1  UNL1        0.2960
      6  C          8.6880    0.2830   -1.5330 C.3     1  UNL1        0.0470
      7  C          7.7440    0.2250   -0.4150 C.2     1  UNL1       -0.0430
      8  C          7.7810   -0.8040    0.5130 C.2     1  UNL1        0.0080
      9  C          6.7640    1.1720   -0.2760 C.2     1  UNL1        0.0540
     10  C          6.8710   -0.8800    1.5440 C.2     1  UNL1        0.0510
     11  C          5.8410    1.1180    0.7500 C.2     1  UNL1        0.1660
     12  C          5.8910    0.0920    1.6630 C.2     1  UNL1        0.1650
     13  O          4.7850    1.9480    1.0820 O.2     1  UNL1       -0.4540
     14  O          4.8460    0.3040    2.5650 O.2     1  UNL1       -0.4540
     15  C          3.9620    1.2690    2.0420 C.3     1  UNL1        0.4680
@<TRIPOS>BOND
     1     4     2    1
     2     4     5    1
     3     2     3    2
     4     2     1    1
     5     1     6    1
     6     6     7    1
     7     7     9    2
     8     7     8    1
     9     9    11    1
    10     8    10    2
    11    11    13    1
    12    11    12    2
    13    13    15    1
    14    10    12    1
    15    12    14    1
    16    15    14    1
