@<TRIPOS>MOLECULE
/home/cewinharhar/GITHUB/reincatalyze/data/processed/docking_pred/2023-May-17-1006_maxeplen10_maxtrainstep1000_seadep16_gamma099_lrac9e-4_lrcr1e-3_sub6/306d1dfeb5e1085b4f3e24b09348dc81ae645662_ligand_6.pdbqt
 15 16 0 0 0
SMALL
GASTEIGER

@<TRIPOS>ATOM
      1  C          5.3820    2.8310    0.0770 C.3     1  UNL1        0.1270
      2  C          6.1160    3.8390    0.8250 C.2     1  UNL1        0.3030
      3  O          6.1440    3.9440    2.0530 O.2     1  UNL1       -0.2520
      4  O          6.8590    4.7750    0.0870 O.3     1  UNL1       -0.4810
      5  H          6.5630    5.7360    0.1620 H       1  UNL1        0.2960
      6  C          5.3770    1.4960    0.7140 C.3     1  UNL1        0.0470
      7  C          6.2180    0.4580    0.1150 C.2     1  UNL1       -0.0430
      8  C          6.5210    0.4610   -1.2380 C.2     1  UNL1        0.0080
      9  C          6.7010   -0.5750    0.8740 C.2     1  UNL1        0.0540
     10  C          7.2820   -0.5350   -1.8090 C.2     1  UNL1        0.0510
     11  C          7.4670   -1.5850    0.3230 C.2     1  UNL1        0.1660
     12  C          7.7610   -1.5680   -1.0200 C.2     1  UNL1        0.1650
     13  O          8.0520   -2.7060    0.8850 O.2     1  UNL1       -0.4540
     14  O          8.5360   -2.7000   -1.2770 O.2     1  UNL1       -0.4540
     15  C          8.4650   -3.5790   -0.1780 C.3     1  UNL1        0.4680
@<TRIPOS>BOND
     1    10     8    1
     2    10    12    2
     3    14    12    1
     4    14    15    1
     5     8     7    2
     6    12    11    1
     7    15    13    1
     8     1     6    1
     9     1     2    1
    10     4     5    1
    11     4     2    1
    12     7     6    1
    13     7     9    1
    14    11     9    2
    15    11    13    1
    16     2     3    2
