@<TRIPOS>MOLECULE
/home/cewinharhar/GITHUB/reincatalyze/data/processed/docking_pred/2023-May-17-1006_maxeplen10_maxtrainstep1000_seadep16_gamma099_lrac9e-4_lrcr1e-3_sub6/31018d4d3337f577513d0037205f1d699057d88b_ligand_6.pdbqt
 15 16 0 0 0
SMALL
GASTEIGER

@<TRIPOS>ATOM
      1  C          4.6990    1.8880    0.6820 C.3     1  UNL1        0.1270
      2  C          4.4040    1.1700    1.9130 C.2     1  UNL1        0.3030
      3  O          5.1400    0.3440    2.4550 O.2     1  UNL1       -0.2520
      4  O          3.1770    1.4410    2.5380 O.3     1  UNL1       -0.4810
      5  H          3.1240    2.3020    3.0610 H       1  UNL1        0.2960
      6  C          6.1240    2.2490    0.5240 C.3     1  UNL1        0.0470
      7  C          6.9730    1.3360   -0.2440 C.2     1  UNL1       -0.0430
      8  C          8.3360    1.5500   -0.3730 C.2     1  UNL1        0.0080
      9  C          6.4320    0.2590   -0.8960 C.2     1  UNL1        0.0540
     10  C          9.1300    0.7120   -1.1250 C.2     1  UNL1        0.0510
     11  C          7.2090   -0.5950   -1.6560 C.2     1  UNL1        0.1660
     12  C          8.5600   -0.3720   -1.7730 C.2     1  UNL1        0.1650
     13  O          6.8870   -1.7250   -2.3870 O.2     1  UNL1       -0.4540
     14  O          9.0660   -1.3830   -2.5910 O.2     1  UNL1       -0.4540
     15  C          8.0010   -2.0460   -3.2320 C.3     1  UNL1        0.4680
@<TRIPOS>BOND
     1    15    14    1
     2    15    13    1
     3    14    12    1
     4    13    11    1
     5    12    11    2
     6    12    10    1
     7    11     9    1
     8    10     8    2
     9     9     7    2
    10     8     7    1
    11     7     6    1
    12     6     1    1
    13     1     2    1
    14     2     3    2
    15     2     4    1
    16     4     5    1
