MODEL 1
REMARK VINA RESULT:      -7.7      0.000      0.000
REMARK SMILES O=C(O)CCc1ccc2c(c1)OCO2
REMARK SMILES IDX 4 1 2 2 1 3 3 4 5 6 6 7 7 8 11 9 8 10 10 11 9 12 12 13 14 14
REMARK SMILES IDX 13 15
REMARK H PARENT 3 5
REMARK Flexibility Score: inf
ROOT
ATOM      1  C   UNL     1       5.378   2.895   0.095  1.00  0.00     0.127 C 
ENDROOT
BRANCH   1   2
ATOM      2  C   UNL     1       6.205   3.868   0.792  1.00  0.00     0.303 C 
ATOM      3  O   UNL     1       6.848   4.775   0.260  1.00  0.00    -0.252 OA
BRANCH   2   4
ATOM      4  O   UNL     1       6.279   3.767   2.190  1.00  0.00    -0.481 OA
ATOM      5  H   UNL     1       7.100   4.161   2.622  1.00  0.00     0.296 HD
ENDBRANCH   2   4
ENDBRANCH   1   2
BRANCH   1   6
ATOM      6  C   UNL     1       5.292   1.584   0.774  1.00  0.00     0.047 C 
BRANCH   6   7
ATOM      7  C   UNL     1       6.082   0.482   0.220  1.00  0.00    -0.043 A 
ATOM      8  C   UNL     1       6.535  -0.557   1.017  1.00  0.00     0.008 A 
ATOM      9  C   UNL     1       6.431   0.468  -1.105  1.00  0.00     0.054 A 
ATOM     10  C   UNL     1       7.308  -1.575   0.505  1.00  0.00     0.051 A 
ATOM     11  C   UNL     1       7.206  -0.543  -1.641  1.00  0.00     0.166 A 
ATOM     12  C   UNL     1       7.646  -1.568  -0.839  1.00  0.00     0.165 A 
ATOM     13  O   UNL     1       7.672  -0.761  -2.926  1.00  0.00    -0.454 OA
ATOM     14  O   UNL     1       8.394  -2.423  -1.651  1.00  0.00    -0.454 OA
ATOM     15  C   UNL     1       8.682  -1.780  -2.871  1.00  0.00     0.468 C 
ENDBRANCH   6   7
ENDBRANCH   1   6
TORSDOF 4
ENDMDL
MODEL 2
REMARK VINA RESULT:      -7.6      2.121      2.507
REMARK SMILES O=C(O)CCc1ccc2c(c1)OCO2
REMARK SMILES IDX 4 1 2 2 1 3 3 4 5 6 6 7 7 8 11 9 8 10 10 11 9 12 12 13 14 14
REMARK SMILES IDX 13 15
REMARK H PARENT 3 5
REMARK Flexibility Score: inf
ROOT
ATOM      1  C   UNL     1       4.699   1.888   0.682  1.00  0.00     0.127 C 
ENDROOT
BRANCH   1   2
ATOM      2  C   UNL     1       4.404   1.170   1.913  1.00  0.00     0.303 C 
ATOM      3  O   UNL     1       5.140   0.344   2.455  1.00  0.00    -0.252 OA
BRANCH   2   4
ATOM      4  O   UNL     1       3.177   1.441   2.538  1.00  0.00    -0.481 OA
ATOM      5  H   UNL     1       3.124   2.302   3.061  1.00  0.00     0.296 HD
ENDBRANCH   2   4
ENDBRANCH   1   2
BRANCH   1   6
ATOM      6  C   UNL     1       6.124   2.249   0.524  1.00  0.00     0.047 C 
BRANCH   6   7
ATOM      7  C   UNL     1       6.973   1.336  -0.244  1.00  0.00    -0.043 A 
ATOM      8  C   UNL     1       8.336   1.550  -0.373  1.00  0.00     0.008 A 
ATOM      9  C   UNL     1       6.432   0.259  -0.896  1.00  0.00     0.054 A 
ATOM     10  C   UNL     1       9.130   0.712  -1.125  1.00  0.00     0.051 A 
ATOM     11  C   UNL     1       7.209  -0.595  -1.656  1.00  0.00     0.166 A 
ATOM     12  C   UNL     1       8.560  -0.372  -1.773  1.00  0.00     0.165 A 
ATOM     13  O   UNL     1       6.887  -1.725  -2.387  1.00  0.00    -0.454 OA
ATOM     14  O   UNL     1       9.066  -1.383  -2.591  1.00  0.00    -0.454 OA
ATOM     15  C   UNL     1       8.001  -2.046  -3.232  1.00  0.00     0.468 C 
ENDBRANCH   6   7
ENDBRANCH   1   6
TORSDOF 4
ENDMDL
MODEL 3
REMARK VINA RESULT:      -7.5      1.975      2.894
REMARK SMILES O=C(O)CCc1ccc2c(c1)OCO2
REMARK SMILES IDX 4 1 2 2 1 3 3 4 5 6 6 7 7 8 11 9 8 10 10 11 9 12 12 13 14 14
REMARK SMILES IDX 13 15
REMARK H PARENT 3 5
REMARK Flexibility Score: inf
ROOT
ATOM      1  C   UNL     1       6.417   1.293   0.689  1.00  0.00     0.127 C 
ENDROOT
BRANCH   1   2
ATOM      2  C   UNL     1       5.169   1.338   1.436  1.00  0.00     0.303 C 
ATOM      3  O   UNL     1       4.262   2.155   1.267  1.00  0.00    -0.252 OA
BRANCH   2   4
ATOM      4  O   UNL     1       4.980   0.369   2.434  1.00  0.00    -0.481 OA
ATOM      5  H   UNL     1       5.089  -0.592   2.148  1.00  0.00     0.296 HD
ENDBRANCH   2   4
ENDBRANCH   1   2
BRANCH   1   6
ATOM      6  C   UNL     1       6.264   0.837  -0.709  1.00  0.00     0.047 C 
BRANCH   6   7
ATOM      7  C   UNL     1       7.009  -0.356  -1.117  1.00  0.00    -0.043 A 
ATOM      8  C   UNL     1       7.301  -0.607  -2.449  1.00  0.00     0.008 A 
ATOM      9  C   UNL     1       7.407  -1.284  -0.191  1.00  0.00     0.054 A 
ATOM     10  C   UNL     1       7.970  -1.746  -2.838  1.00  0.00     0.051 A 
ATOM     11  C   UNL     1       8.081  -2.434  -0.559  1.00  0.00     0.166 A 
ATOM     12  C   UNL     1       8.364  -2.669  -1.882  1.00  0.00     0.165 A 
ATOM     13  O   UNL     1       8.571  -3.490   0.189  1.00  0.00    -0.454 OA
ATOM     14  O   UNL     1       9.039  -3.890  -1.939  1.00  0.00    -0.454 OA
ATOM     15  C   UNL     1       8.901  -4.561  -0.708  1.00  0.00     0.468 C 
ENDBRANCH   6   7
ENDBRANCH   1   6
TORSDOF 4
ENDMDL
MODEL 4
REMARK VINA RESULT:      -7.5      1.809      5.287
REMARK SMILES O=C(O)CCc1ccc2c(c1)OCO2
REMARK SMILES IDX 4 1 2 2 1 3 3 4 5 6 6 7 7 8 11 9 8 10 10 11 9 12 12 13 14 14
REMARK SMILES IDX 13 15
REMARK H PARENT 3 5
REMARK Flexibility Score: inf
ROOT
ATOM      1  C   UNL     1       8.301  -0.316  -2.812  1.00  0.00     0.127 C 
ENDROOT
BRANCH   1   2
ATOM      2  C   UNL     1       8.469  -1.741  -3.054  1.00  0.00     0.303 C 
ATOM      3  O   UNL     1       9.538  -2.352  -3.025  1.00  0.00    -0.252 OA
BRANCH   2   4
ATOM      4  O   UNL     1       7.315  -2.485  -3.345  1.00  0.00    -0.481 OA
ATOM      5  H   UNL     1       7.378  -3.481  -3.201  1.00  0.00     0.296 HD
ENDBRANCH   2   4
ENDBRANCH   1   2
BRANCH   1   6
ATOM      6  C   UNL     1       8.760   0.123  -1.477  1.00  0.00     0.047 C 
BRANCH   6   7
ATOM      7  C   UNL     1       7.786   0.093  -0.383  1.00  0.00    -0.043 A 
ATOM      8  C   UNL     1       7.743  -0.958   0.520  1.00  0.00     0.008 A 
ATOM      9  C   UNL     1       6.859   1.092  -0.243  1.00  0.00     0.054 A 
ATOM     10  C   UNL     1       6.805  -1.006   1.527  1.00  0.00     0.051 A 
ATOM     11  C   UNL     1       5.909   1.065   0.761  1.00  0.00     0.166 A 
ATOM     12  C   UNL     1       5.878   0.017   1.649  1.00  0.00     0.165 A 
ATOM     13  O   UNL     1       4.894   1.947   1.088  1.00  0.00    -0.454 OA
ATOM     14  O   UNL     1       4.826   0.267   2.531  1.00  0.00    -0.454 OA
ATOM     15  C   UNL     1       4.011   1.293   2.012  1.00  0.00     0.468 C 
ENDBRANCH   6   7
ENDBRANCH   1   6
TORSDOF 4
ENDMDL
MODEL 5
REMARK VINA RESULT:      -7.4      0.997      2.135
REMARK SMILES O=C(O)CCc1ccc2c(c1)OCO2
REMARK SMILES IDX 4 1 2 2 1 3 3 4 5 6 6 7 7 8 11 9 8 10 10 11 9 12 12 13 14 14
REMARK SMILES IDX 13 15
REMARK H PARENT 3 5
REMARK Flexibility Score: inf
ROOT
ATOM      1  C   UNL     1       5.558   2.673   0.141  1.00  0.00     0.127 C 
ENDROOT
BRANCH   1   2
ATOM      2  C   UNL     1       6.258   3.645   0.966  1.00  0.00     0.303 C 
ATOM      3  O   UNL     1       6.403   3.578   2.188  1.00  0.00    -0.252 OA
BRANCH   2   4
ATOM      4  O   UNL     1       6.818   4.757   0.316  1.00  0.00    -0.481 OA
ATOM      5  H   UNL     1       7.826   4.800   0.297  1.00  0.00     0.296 HD
ENDBRANCH   2   4
ENDBRANCH   1   2
BRANCH   1   6
ATOM      6  C   UNL     1       5.499   1.318   0.730  1.00  0.00     0.047 C 
BRANCH   6   7
ATOM      7  C   UNL     1       6.320   0.275   0.111  1.00  0.00    -0.043 A 
ATOM      8  C   UNL     1       6.557   0.254  -1.255  1.00  0.00     0.008 A 
ATOM      9  C   UNL     1       6.849  -0.738   0.865  1.00  0.00     0.054 A 
ATOM     10  C   UNL     1       7.298  -0.746  -1.843  1.00  0.00     0.051 A 
ATOM     11  C   UNL     1       7.597  -1.752   0.297  1.00  0.00     0.166 A 
ATOM     12  C   UNL     1       7.824  -1.760  -1.058  1.00  0.00     0.165 A 
ATOM     13  O   UNL     1       8.219  -2.857   0.852  1.00  0.00    -0.454 OA
ATOM     14  O   UNL     1       8.598  -2.890  -1.331  1.00  0.00    -0.454 OA
ATOM     15  C   UNL     1       8.589  -3.747  -0.212  1.00  0.00     0.468 C 
ENDBRANCH   6   7
ENDBRANCH   1   6
TORSDOF 4
ENDMDL
