@<TRIPOS>MOLECULE
/home/cewinharhar/GITHUB/reincatalyze/data/processed/docking_pred/2023-May-17-1006_maxeplen10_maxtrainstep1000_seadep16_gamma099_lrac9e-4_lrcr1e-3_sub6/31018d4d3337f577513d0037205f1d699057d88b_ligand_6.pdbqt
 15 16 0 0 0
SMALL
GASTEIGER

@<TRIPOS>ATOM
      1  C          5.5580    2.6730    0.1410 C.3     1  UNL1        0.1270
      2  C          6.2580    3.6450    0.9660 C.2     1  UNL1        0.3030
      3  O          6.4030    3.5780    2.1880 O.2     1  UNL1       -0.2520
      4  O          6.8180    4.7570    0.3160 O.3     1  UNL1       -0.4810
      5  H          7.8260    4.8000    0.2970 H       1  UNL1        0.2960
      6  C          5.4990    1.3180    0.7300 C.3     1  UNL1        0.0470
      7  C          6.3200    0.2750    0.1110 C.2     1  UNL1       -0.0430
      8  C          6.5570    0.2540   -1.2550 C.2     1  UNL1        0.0080
      9  C          6.8490   -0.7380    0.8650 C.2     1  UNL1        0.0540
     10  C          7.2980   -0.7460   -1.8430 C.2     1  UNL1        0.0510
     11  C          7.5970   -1.7520    0.2970 C.2     1  UNL1        0.1660
     12  C          7.8240   -1.7600   -1.0580 C.2     1  UNL1        0.1650
     13  O          8.2190   -2.8570    0.8520 O.2     1  UNL1       -0.4540
     14  O          8.5980   -2.8900   -1.3310 O.2     1  UNL1       -0.4540
     15  C          8.5890   -3.7470   -0.2120 C.3     1  UNL1        0.4680
@<TRIPOS>BOND
     1    10     8    1
     2    10    12    2
     3    14    12    1
     4    14    15    1
     5     8     7    2
     6    12    11    1
     7    15    13    1
     8     7     6    1
     9     7     9    1
    10     1     6    1
    11     1     2    1
    12     5     4    1
    13    11    13    1
    14    11     9    2
    15     4     2    1
    16     2     3    2
