@<TRIPOS>MOLECULE
/home/cewinharhar/GITHUB/reincatalyze/data/processed/docking_pred/2023-May-17-1006_maxeplen10_maxtrainstep1000_seadep16_gamma099_lrac9e-4_lrcr1e-3_sub6/31018d4d3337f577513d0037205f1d699057d88b_ligand_6.pdbqt
 15 16 0 0 0
SMALL
GASTEIGER

@<TRIPOS>ATOM
      1  C          8.3010   -0.3160   -2.8120 C.3     1  UNL1        0.1270
      2  C          8.4690   -1.7410   -3.0540 C.2     1  UNL1        0.3030
      3  O          9.5380   -2.3520   -3.0250 O.2     1  UNL1       -0.2520
      4  O          7.3150   -2.4850   -3.3450 O.3     1  UNL1       -0.4810
      5  H          7.3780   -3.4810   -3.2010 H       1  UNL1        0.2960
      6  C          8.7600    0.1230   -1.4770 C.3     1  UNL1        0.0470
      7  C          7.7860    0.0930   -0.3830 C.2     1  UNL1       -0.0430
      8  C          7.7430   -0.9580    0.5200 C.2     1  UNL1        0.0080
      9  C          6.8590    1.0920   -0.2430 C.2     1  UNL1        0.0540
     10  C          6.8050   -1.0060    1.5270 C.2     1  UNL1        0.0510
     11  C          5.9090    1.0650    0.7610 C.2     1  UNL1        0.1660
     12  C          5.8780    0.0170    1.6490 C.2     1  UNL1        0.1650
     13  O          4.8940    1.9470    1.0880 O.2     1  UNL1       -0.4540
     14  O          4.8260    0.2670    2.5310 O.2     1  UNL1       -0.4540
     15  C          4.0110    1.2930    2.0120 C.3     1  UNL1        0.4680
@<TRIPOS>BOND
     1     4     5    1
     2     4     2    1
     3     2     3    2
     4     2     1    1
     5     1     6    1
     6     6     7    1
     7     7     9    2
     8     7     8    1
     9     9    11    1
    10     8    10    2
    11    11    13    1
    12    11    12    2
    13    13    15    1
    14    10    12    1
    15    12    14    1
    16    15    14    1
