@<TRIPOS>MOLECULE
/home/cewinharhar/GITHUB/reincatalyze/data/processed/docking_pred/2023-May-17-1006_maxeplen10_maxtrainstep1000_seadep16_gamma099_lrac9e-4_lrcr1e-3_sub6/31018d4d3337f577513d0037205f1d699057d88b_ligand_6.pdbqt
 15 16 0 0 0
SMALL
GASTEIGER

@<TRIPOS>ATOM
      1  C          5.3780    2.8950    0.0950 C.3     1  UNL1        0.1270
      2  C          6.2050    3.8680    0.7920 C.2     1  UNL1        0.3030
      3  O          6.8480    4.7750    0.2600 O.2     1  UNL1       -0.2520
      4  O          6.2790    3.7670    2.1900 O.3     1  UNL1       -0.4810
      5  H          7.1000    4.1610    2.6220 H       1  UNL1        0.2960
      6  C          5.2920    1.5840    0.7740 C.3     1  UNL1        0.0470
      7  C          6.0820    0.4820    0.2200 C.2     1  UNL1       -0.0430
      8  C          6.5350   -0.5570    1.0170 C.2     1  UNL1        0.0080
      9  C          6.4310    0.4680   -1.1050 C.2     1  UNL1        0.0540
     10  C          7.3080   -1.5750    0.5050 C.2     1  UNL1        0.0510
     11  C          7.2060   -0.5430   -1.6410 C.2     1  UNL1        0.1660
     12  C          7.6460   -1.5680   -0.8390 C.2     1  UNL1        0.1650
     13  O          7.6720   -0.7610   -2.9260 O.2     1  UNL1       -0.4540
     14  O          8.3940   -2.4230   -1.6510 O.2     1  UNL1       -0.4540
     15  C          8.6820   -1.7800   -2.8710 C.3     1  UNL1        0.4680
@<TRIPOS>BOND
     1    13    15    1
     2    13    11    1
     3    15    14    1
     4    14    12    1
     5    11     9    1
     6    11    12    2
     7     9     7    2
     8    12    10    1
     9     1     6    1
    10     1     2    1
    11     7     6    1
    12     7     8    1
    13     3     2    2
    14    10     8    2
    15     2     4    1
    16     4     5    1
