@<TRIPOS>MOLECULE
/home/cewinharhar/GITHUB/reincatalyze/data/processed/docking_pred/2023-May-17-1006_maxeplen10_maxtrainstep1000_seadep16_gamma099_lrac9e-4_lrcr1e-3_sub6/31018d4d3337f577513d0037205f1d699057d88b_ligand_6.pdbqt
 15 16 0 0 0
SMALL
GASTEIGER

@<TRIPOS>ATOM
      1  C          6.4170    1.2930    0.6890 C.3     1  UNL1        0.1270
      2  C          5.1690    1.3380    1.4360 C.2     1  UNL1        0.3030
      3  O          4.2620    2.1550    1.2670 O.2     1  UNL1       -0.2520
      4  O          4.9800    0.3690    2.4340 O.3     1  UNL1       -0.4810
      5  H          5.0890   -0.5920    2.1480 H       1  UNL1        0.2960
      6  C          6.2640    0.8370   -0.7090 C.3     1  UNL1        0.0470
      7  C          7.0090   -0.3560   -1.1170 C.2     1  UNL1       -0.0430
      8  C          7.3010   -0.6070   -2.4490 C.2     1  UNL1        0.0080
      9  C          7.4070   -1.2840   -0.1910 C.2     1  UNL1        0.0540
     10  C          7.9700   -1.7460   -2.8380 C.2     1  UNL1        0.0510
     11  C          8.0810   -2.4340   -0.5590 C.2     1  UNL1        0.1660
     12  C          8.3640   -2.6690   -1.8820 C.2     1  UNL1        0.1650
     13  O          8.5710   -3.4900    0.1890 O.2     1  UNL1       -0.4540
     14  O          9.0390   -3.8900   -1.9390 O.2     1  UNL1       -0.4540
     15  C          8.9010   -4.5610   -0.7080 C.3     1  UNL1        0.4680
@<TRIPOS>BOND
     1    10     8    1
     2    10    12    2
     3     8     7    2
     4    14    12    1
     5    14    15    1
     6    12    11    1
     7     7     6    1
     8     7     9    1
     9     6     1    1
    10    15    13    1
    11    11     9    2
    12    11    13    1
    13     1     2    1
    14     3     2    2
    15     2     4    1
    16     5     4    1
