@<TRIPOS>MOLECULE
/home/cewinharhar/GITHUB/reincatalyze/data/processed/docking_pred/2023-May-17-1006_maxeplen10_maxtrainstep1000_seadep16_gamma099_lrac9e-4_lrcr1e-3_sub6/3109bb1a4c888d48ff6ee722b945383cff227a99_ligand_6.pdbqt
 15 16 0 0 0
SMALL
GASTEIGER

@<TRIPOS>ATOM
      1  C          5.4160    2.8750    0.1220 C.3     1  UNL1        0.1270
      2  C          6.2430    3.8480    0.8200 C.2     1  UNL1        0.3030
      3  O          6.8740    4.7640    0.2900 O.2     1  UNL1       -0.2520
      4  O          6.3310    3.7350    2.2160 O.3     1  UNL1       -0.4810
      5  H          6.2990    2.7990    2.5900 H       1  UNL1        0.2960
      6  C          5.3400    1.5600    0.7930 C.3     1  UNL1        0.0470
      7  C          6.1210    0.4620    0.2220 C.2     1  UNL1       -0.0430
      8  C          6.5800   -0.5860    1.0060 C.2     1  UNL1        0.0080
      9  C          6.4560    0.4570   -1.1060 C.2     1  UNL1        0.0540
     10  C          7.3450   -1.6010    0.4770 C.2     1  UNL1        0.0510
     11  C          7.2230   -0.5510   -1.6590 C.2     1  UNL1        0.1660
     12  C          7.6700   -1.5830   -0.8700 C.2     1  UNL1        0.1650
     13  O          7.6750   -0.7590   -2.9500 O.2     1  UNL1       -0.4540
     14  O          8.4070   -2.4330   -1.6970 O.2     1  UNL1       -0.4540
     15  C          8.6830   -1.7800   -2.9140 C.3     1  UNL1        0.4680
@<TRIPOS>BOND
     1    13    15    1
     2    13    11    1
     3    15    14    1
     4    14    12    1
     5    11     9    1
     6    11    12    2
     7     9     7    2
     8    12    10    1
     9     1     6    1
    10     1     2    1
    11     7     6    1
    12     7     8    1
    13     3     2    2
    14    10     8    2
    15     2     4    1
    16     4     5    1
