@<TRIPOS>MOLECULE
/home/cewinharhar/GITHUB/reincatalyze/data/processed/docking_pred/2023-May-17-1006_maxeplen10_maxtrainstep1000_seadep16_gamma099_lrac9e-4_lrcr1e-3_sub6/3109bb1a4c888d48ff6ee722b945383cff227a99_ligand_6.pdbqt
 15 16 0 0 0
SMALL
GASTEIGER

@<TRIPOS>ATOM
      1  C          6.4350    1.3340    0.7240 C.3     1  UNL1        0.1270
      2  C          5.1960    1.3340    1.4860 C.2     1  UNL1        0.3030
      3  O          4.2700    2.1360    1.3500 O.2     1  UNL1       -0.2520
      4  O          5.0390    0.3360    2.4600 O.3     1  UNL1       -0.4810
      5  H          4.4730   -0.4570    2.1990 H       1  UNL1        0.2960
      6  C          6.2720    0.9240   -0.6870 C.3     1  UNL1        0.0470
      7  C          7.0070   -0.2600   -1.1380 C.2     1  UNL1       -0.0430
      8  C          7.2730   -0.4800   -2.4810 C.2     1  UNL1        0.0080
      9  C          7.4220   -1.2090   -0.2420 C.2     1  UNL1        0.0540
     10  C          7.9320   -1.6100   -2.9090 C.2     1  UNL1        0.0510
     11  C          8.0860   -2.3510   -0.6490 C.2     1  UNL1        0.1660
     12  C          8.3440   -2.5560   -1.9830 C.2     1  UNL1        0.1650
     13  O          8.5890   -3.4250    0.0640 O.2     1  UNL1       -0.4540
     14  O          9.0150   -3.7750   -2.0820 O.2     1  UNL1       -0.4540
     15  C          8.9000   -4.4750   -0.8640 C.3     1  UNL1        0.4680
@<TRIPOS>BOND
     1    10     8    1
     2    10    12    2
     3     8     7    2
     4    14    12    1
     5    14    15    1
     6    12    11    1
     7     7     6    1
     8     7     9    1
     9    15    13    1
    10     6     1    1
    11    11     9    2
    12    11    13    1
    13     1     2    1
    14     3     2    2
    15     2     4    1
    16     5     4    1
