MODEL 1
REMARK VINA RESULT:      -7.7      0.000      0.000
REMARK SMILES O=C(O)CCc1ccc2c(c1)OCO2
REMARK SMILES IDX 4 1 2 2 1 3 3 4 5 6 6 7 7 8 11 9 8 10 10 11 9 12 12 13 14 14
REMARK SMILES IDX 13 15
REMARK H PARENT 3 5
REMARK Flexibility Score: inf
ROOT
ATOM      1  C   UNL     1       5.416   2.875   0.122  1.00  0.00     0.127 C 
ENDROOT
BRANCH   1   2
ATOM      2  C   UNL     1       6.243   3.848   0.820  1.00  0.00     0.303 C 
ATOM      3  O   UNL     1       6.874   4.764   0.290  1.00  0.00    -0.252 OA
BRANCH   2   4
ATOM      4  O   UNL     1       6.331   3.735   2.216  1.00  0.00    -0.481 OA
ATOM      5  H   UNL     1       6.299   2.799   2.590  1.00  0.00     0.296 HD
ENDBRANCH   2   4
ENDBRANCH   1   2
BRANCH   1   6
ATOM      6  C   UNL     1       5.340   1.560   0.793  1.00  0.00     0.047 C 
BRANCH   6   7
ATOM      7  C   UNL     1       6.121   0.462   0.222  1.00  0.00    -0.043 A 
ATOM      8  C   UNL     1       6.580  -0.586   1.006  1.00  0.00     0.008 A 
ATOM      9  C   UNL     1       6.456   0.457  -1.106  1.00  0.00     0.054 A 
ATOM     10  C   UNL     1       7.345  -1.601   0.477  1.00  0.00     0.051 A 
ATOM     11  C   UNL     1       7.223  -0.551  -1.659  1.00  0.00     0.166 A 
ATOM     12  C   UNL     1       7.670  -1.583  -0.870  1.00  0.00     0.165 A 
ATOM     13  O   UNL     1       7.675  -0.759  -2.950  1.00  0.00    -0.454 OA
ATOM     14  O   UNL     1       8.407  -2.433  -1.697  1.00  0.00    -0.454 OA
ATOM     15  C   UNL     1       8.683  -1.780  -2.914  1.00  0.00     0.468 C 
ENDBRANCH   6   7
ENDBRANCH   1   6
TORSDOF 4
ENDMDL
MODEL 2
REMARK VINA RESULT:      -7.6      2.116      2.512
REMARK SMILES O=C(O)CCc1ccc2c(c1)OCO2
REMARK SMILES IDX 4 1 2 2 1 3 3 4 5 6 6 7 7 8 11 9 8 10 10 11 9 12 12 13 14 14
REMARK SMILES IDX 13 15
REMARK H PARENT 3 5
REMARK Flexibility Score: inf
ROOT
ATOM      1  C   UNL     1       4.747   1.888   0.699  1.00  0.00     0.127 C 
ENDROOT
BRANCH   1   2
ATOM      2  C   UNL     1       4.423   1.162   1.917  1.00  0.00     0.303 C 
ATOM      3  O   UNL     1       5.141   0.322   2.464  1.00  0.00    -0.252 OA
BRANCH   2   4
ATOM      4  O   UNL     1       3.189   1.440   2.524  1.00  0.00    -0.481 OA
ATOM      5  H   UNL     1       3.112   1.210   3.503  1.00  0.00     0.296 HD
ENDBRANCH   2   4
ENDBRANCH   1   2
BRANCH   1   6
ATOM      6  C   UNL     1       6.180   2.226   0.564  1.00  0.00     0.047 C 
BRANCH   6   7
ATOM      7  C   UNL     1       7.018   1.319  -0.223  1.00  0.00    -0.043 A 
ATOM      8  C   UNL     1       8.377   1.545  -0.385  1.00  0.00     0.008 A 
ATOM      9  C   UNL     1       6.473   0.235  -0.859  1.00  0.00     0.054 A 
ATOM     10  C   UNL     1       9.160   0.714  -1.154  1.00  0.00     0.051 A 
ATOM     11  C   UNL     1       7.239  -0.613  -1.635  1.00  0.00     0.166 A 
ATOM     12  C   UNL     1       8.585  -0.377  -1.786  1.00  0.00     0.165 A 
ATOM     13  O   UNL     1       6.910  -1.747  -2.356  1.00  0.00    -0.454 OA
ATOM     14  O   UNL     1       9.080  -1.386  -2.613  1.00  0.00    -0.454 OA
ATOM     15  C   UNL     1       8.007  -2.061  -3.227  1.00  0.00     0.468 C 
ENDBRANCH   6   7
ENDBRANCH   1   6
TORSDOF 4
ENDMDL
MODEL 3
REMARK VINA RESULT:      -7.4      1.794      5.289
REMARK SMILES O=C(O)CCc1ccc2c(c1)OCO2
REMARK SMILES IDX 4 1 2 2 1 3 3 4 5 6 6 7 7 8 11 9 8 10 10 11 9 12 12 13 14 14
REMARK SMILES IDX 13 15
REMARK H PARENT 3 5
REMARK Flexibility Score: inf
ROOT
ATOM      1  C   UNL     1       8.312  -0.320  -2.837  1.00  0.00     0.127 C 
ENDROOT
BRANCH   1   2
ATOM      2  C   UNL     1       8.470  -1.748  -3.064  1.00  0.00     0.303 C 
ATOM      3  O   UNL     1       9.536  -2.366  -3.033  1.00  0.00    -0.252 OA
BRANCH   2   4
ATOM      4  O   UNL     1       7.310  -2.488  -3.344  1.00  0.00    -0.481 OA
ATOM      5  H   UNL     1       6.931  -3.027  -2.581  1.00  0.00     0.296 HD
ENDBRANCH   2   4
ENDBRANCH   1   2
BRANCH   1   6
ATOM      6  C   UNL     1       8.766   0.129  -1.504  1.00  0.00     0.047 C 
BRANCH   6   7
ATOM      7  C   UNL     1       7.794   0.094  -0.409  1.00  0.00    -0.043 A 
ATOM      8  C   UNL     1       7.742  -0.969   0.479  1.00  0.00     0.008 A 
ATOM      9  C   UNL     1       6.876   1.098  -0.255  1.00  0.00     0.054 A 
ATOM     10  C   UNL     1       6.804  -1.022   1.487  1.00  0.00     0.051 A 
ATOM     11  C   UNL     1       5.927   1.067   0.749  1.00  0.00     0.166 A 
ATOM     12  C   UNL     1       5.887   0.008   1.623  1.00  0.00     0.165 A 
ATOM     13  O   UNL     1       4.920   1.954   1.089  1.00  0.00    -0.454 OA
ATOM     14  O   UNL     1       4.838   0.256   2.510  1.00  0.00    -0.454 OA
ATOM     15  C   UNL     1       4.033   1.296   2.006  1.00  0.00     0.468 C 
ENDBRANCH   6   7
ENDBRANCH   1   6
TORSDOF 4
ENDMDL
MODEL 4
REMARK VINA RESULT:      -7.4      1.954      2.851
REMARK SMILES O=C(O)CCc1ccc2c(c1)OCO2
REMARK SMILES IDX 4 1 2 2 1 3 3 4 5 6 6 7 7 8 11 9 8 10 10 11 9 12 12 13 14 14
REMARK SMILES IDX 13 15
REMARK H PARENT 3 5
REMARK Flexibility Score: inf
ROOT
ATOM      1  C   UNL     1       6.435   1.334   0.724  1.00  0.00     0.127 C 
ENDROOT
BRANCH   1   2
ATOM      2  C   UNL     1       5.196   1.334   1.486  1.00  0.00     0.303 C 
ATOM      3  O   UNL     1       4.270   2.136   1.350  1.00  0.00    -0.252 OA
BRANCH   2   4
ATOM      4  O   UNL     1       5.039   0.336   2.460  1.00  0.00    -0.481 OA
ATOM      5  H   UNL     1       4.473  -0.457   2.199  1.00  0.00     0.296 HD
ENDBRANCH   2   4
ENDBRANCH   1   2
BRANCH   1   6
ATOM      6  C   UNL     1       6.272   0.924  -0.687  1.00  0.00     0.047 C 
BRANCH   6   7
ATOM      7  C   UNL     1       7.007  -0.260  -1.138  1.00  0.00    -0.043 A 
ATOM      8  C   UNL     1       7.273  -0.480  -2.481  1.00  0.00     0.008 A 
ATOM      9  C   UNL     1       7.422  -1.209  -0.242  1.00  0.00     0.054 A 
ATOM     10  C   UNL     1       7.932  -1.610  -2.909  1.00  0.00     0.051 A 
ATOM     11  C   UNL     1       8.086  -2.351  -0.649  1.00  0.00     0.166 A 
ATOM     12  C   UNL     1       8.344  -2.556  -1.983  1.00  0.00     0.165 A 
ATOM     13  O   UNL     1       8.589  -3.425   0.064  1.00  0.00    -0.454 OA
ATOM     14  O   UNL     1       9.015  -3.775  -2.082  1.00  0.00    -0.454 OA
ATOM     15  C   UNL     1       8.900  -4.475  -0.864  1.00  0.00     0.468 C 
ENDBRANCH   6   7
ENDBRANCH   1   6
TORSDOF 4
ENDMDL
MODEL 5
REMARK VINA RESULT:      -7.4      0.972      2.092
REMARK SMILES O=C(O)CCc1ccc2c(c1)OCO2
REMARK SMILES IDX 4 1 2 2 1 3 3 4 5 6 6 7 7 8 11 9 8 10 10 11 9 12 12 13 14 14
REMARK SMILES IDX 13 15
REMARK H PARENT 3 5
REMARK Flexibility Score: inf
ROOT
ATOM      1  C   UNL     1       5.634   2.655   0.076  1.00  0.00     0.127 C 
ENDROOT
BRANCH   1   2
ATOM      2  C   UNL     1       6.190   3.737   0.873  1.00  0.00     0.303 C 
ATOM      3  O   UNL     1       6.101   3.845   2.098  1.00  0.00    -0.252 OA
BRANCH   2   4
ATOM      4  O   UNL     1       6.887   4.747   0.192  1.00  0.00    -0.481 OA
ATOM      5  H   UNL     1       7.696   4.453  -0.333  1.00  0.00     0.296 HD
ENDBRANCH   2   4
ENDBRANCH   1   2
BRANCH   1   6
ATOM      6  C   UNL     1       5.715   1.329   0.725  1.00  0.00     0.047 C 
BRANCH   6   7
ATOM      7  C   UNL     1       6.460   0.279   0.028  1.00  0.00    -0.043 A 
ATOM      8  C   UNL     1       6.543   0.245  -1.356  1.00  0.00     0.008 A 
ATOM      9  C   UNL     1       7.069  -0.730   0.727  1.00  0.00     0.054 A 
ATOM     10  C   UNL     1       7.213  -0.762  -2.014  1.00  0.00     0.051 A 
ATOM     11  C   UNL     1       7.747  -1.750   0.088  1.00  0.00     0.166 A 
ATOM     12  C   UNL     1       7.822  -1.770  -1.284  1.00  0.00     0.165 A 
ATOM     13  O   UNL     1       8.425  -2.852   0.580  1.00  0.00    -0.454 OA
ATOM     14  O   UNL     1       8.558  -2.904  -1.631  1.00  0.00    -0.454 OA
ATOM     15  C   UNL     1       8.673  -3.752  -0.511  1.00  0.00     0.468 C 
ENDBRANCH   6   7
ENDBRANCH   1   6
TORSDOF 4
ENDMDL
