@<TRIPOS>MOLECULE
/home/cewinharhar/GITHUB/reincatalyze/data/processed/docking_pred/2023-May-17-1006_maxeplen10_maxtrainstep1000_seadep16_gamma099_lrac9e-4_lrcr1e-3_sub6/3109bb1a4c888d48ff6ee722b945383cff227a99_ligand_6.pdbqt
 15 16 0 0 0
SMALL
GASTEIGER

@<TRIPOS>ATOM
      1  C          5.6340    2.6550    0.0760 C.3     1  UNL1        0.1270
      2  C          6.1900    3.7370    0.8730 C.2     1  UNL1        0.3030
      3  O          6.1010    3.8450    2.0980 O.2     1  UNL1       -0.2520
      4  O          6.8870    4.7470    0.1920 O.3     1  UNL1       -0.4810
      5  H          7.6960    4.4530   -0.3330 H       1  UNL1        0.2960
      6  C          5.7150    1.3290    0.7250 C.3     1  UNL1        0.0470
      7  C          6.4600    0.2790    0.0280 C.2     1  UNL1       -0.0430
      8  C          6.5430    0.2450   -1.3560 C.2     1  UNL1        0.0080
      9  C          7.0690   -0.7300    0.7270 C.2     1  UNL1        0.0540
     10  C          7.2130   -0.7620   -2.0140 C.2     1  UNL1        0.0510
     11  C          7.7470   -1.7500    0.0880 C.2     1  UNL1        0.1660
     12  C          7.8220   -1.7700   -1.2840 C.2     1  UNL1        0.1650
     13  O          8.4250   -2.8520    0.5800 O.2     1  UNL1       -0.4540
     14  O          8.5580   -2.9040   -1.6310 O.2     1  UNL1       -0.4540
     15  C          8.6730   -3.7520   -0.5110 C.3     1  UNL1        0.4680
@<TRIPOS>BOND
     1    10     8    1
     2    10    12    2
     3    14    12    1
     4    14    15    1
     5     8     7    2
     6    12    11    1
     7    15    13    1
     8     5     4    1
     9     7     6    1
    10     7     9    1
    11     1     6    1
    12     1     2    1
    13    11    13    1
    14    11     9    2
    15     4     2    1
    16     2     3    2
