@<TRIPOS>MOLECULE
/home/cewinharhar/GITHUB/reincatalyze/data/processed/docking_pred/2023-May-17-1006_maxeplen10_maxtrainstep1000_seadep16_gamma099_lrac9e-4_lrcr1e-3_sub6/3109bb1a4c888d48ff6ee722b945383cff227a99_ligand_6.pdbqt
 15 16 0 0 0
SMALL
GASTEIGER

@<TRIPOS>ATOM
      1  C          4.7470    1.8880    0.6990 C.3     1  UNL1        0.1270
      2  C          4.4230    1.1620    1.9170 C.2     1  UNL1        0.3030
      3  O          5.1410    0.3220    2.4640 O.2     1  UNL1       -0.2520
      4  O          3.1890    1.4400    2.5240 O.3     1  UNL1       -0.4810
      5  H          3.1120    1.2100    3.5030 H       1  UNL1        0.2960
      6  C          6.1800    2.2260    0.5640 C.3     1  UNL1        0.0470
      7  C          7.0180    1.3190   -0.2230 C.2     1  UNL1       -0.0430
      8  C          8.3770    1.5450   -0.3850 C.2     1  UNL1        0.0080
      9  C          6.4730    0.2350   -0.8590 C.2     1  UNL1        0.0540
     10  C          9.1600    0.7140   -1.1540 C.2     1  UNL1        0.0510
     11  C          7.2390   -0.6130   -1.6350 C.2     1  UNL1        0.1660
     12  C          8.5850   -0.3770   -1.7860 C.2     1  UNL1        0.1650
     13  O          6.9100   -1.7470   -2.3560 O.2     1  UNL1       -0.4540
     14  O          9.0800   -1.3860   -2.6130 O.2     1  UNL1       -0.4540
     15  C          8.0070   -2.0610   -3.2270 C.3     1  UNL1        0.4680
@<TRIPOS>BOND
     1    15    14    1
     2    15    13    1
     3    14    12    1
     4    13    11    1
     5    12    11    2
     6    12    10    1
     7    11     9    1
     8    10     8    2
     9     9     7    2
    10     8     7    1
    11     7     6    1
    12     6     1    1
    13     1     2    1
    14     2     3    2
    15     2     4    1
    16     4     5    1
