@<TRIPOS>MOLECULE
/home/cewinharhar/GITHUB/reincatalyze/data/processed/docking_pred/2023-May-17-1006_maxeplen10_maxtrainstep1000_seadep16_gamma099_lrac9e-4_lrcr1e-3_sub6/3109bb1a4c888d48ff6ee722b945383cff227a99_ligand_6.pdbqt
 15 16 0 0 0
SMALL
GASTEIGER

@<TRIPOS>ATOM
      1  C          8.3120   -0.3200   -2.8370 C.3     1  UNL1        0.1270
      2  C          8.4700   -1.7480   -3.0640 C.2     1  UNL1        0.3030
      3  O          9.5360   -2.3660   -3.0330 O.2     1  UNL1       -0.2520
      4  O          7.3100   -2.4880   -3.3440 O.3     1  UNL1       -0.4810
      5  H          6.9310   -3.0270   -2.5810 H       1  UNL1        0.2960
      6  C          8.7660    0.1290   -1.5040 C.3     1  UNL1        0.0470
      7  C          7.7940    0.0940   -0.4090 C.2     1  UNL1       -0.0430
      8  C          7.7420   -0.9690    0.4790 C.2     1  UNL1        0.0080
      9  C          6.8760    1.0980   -0.2550 C.2     1  UNL1        0.0540
     10  C          6.8040   -1.0220    1.4870 C.2     1  UNL1        0.0510
     11  C          5.9270    1.0670    0.7490 C.2     1  UNL1        0.1660
     12  C          5.8870    0.0080    1.6230 C.2     1  UNL1        0.1650
     13  O          4.9200    1.9540    1.0890 O.2     1  UNL1       -0.4540
     14  O          4.8380    0.2560    2.5100 O.2     1  UNL1       -0.4540
     15  C          4.0330    1.2960    2.0060 C.3     1  UNL1        0.4680
@<TRIPOS>BOND
     1     4     2    1
     2     4     5    1
     3     2     3    2
     4     2     1    1
     5     1     6    1
     6     6     7    1
     7     7     9    2
     8     7     8    1
     9     9    11    1
    10     8    10    2
    11    11    13    1
    12    11    12    2
    13    13    15    1
    14    10    12    1
    15    12    14    1
    16    15    14    1
