@<TRIPOS>MOLECULE
/home/cewinharhar/GITHUB/reincatalyze/data/processed/docking_pred/2023-May-17-1006_maxeplen10_maxtrainstep1000_seadep16_gamma099_lrac9e-4_lrcr1e-3_sub6/3110d36e974f17e9d190d2a4a051583463654b40_ligand_6.pdbqt
 15 16 0 0 0
SMALL
GASTEIGER

@<TRIPOS>ATOM
      1  C          6.1020    0.4900    0.3120 C.3     1  UNL1        0.1270
      2  C          5.2450    0.9370    1.4000 C.2     1  UNL1        0.3030
      3  O          5.0070    0.3050    2.4310 O.2     1  UNL1       -0.2520
      4  O          4.6360    2.1940    1.2650 O.3     1  UNL1       -0.4810
      5  H          4.8080    2.6820    0.3990 H       1  UNL1        0.2960
      6  C          7.2110    1.4180    0.0030 C.3     1  UNL1        0.0470
      7  C          8.3160    1.4970    0.9610 C.2     1  UNL1       -0.0430
      8  C          8.3610    2.4830    1.9350 C.2     1  UNL1        0.0080
      9  C          9.3620    0.6160    0.8970 C.2     1  UNL1        0.0540
     10  C          9.4170    2.5800    2.8130 C.2     1  UNL1        0.0510
     11  C         10.4320    0.6940    1.7680 C.2     1  UNL1        0.1660
     12  C         10.4630    1.6760    2.7290 C.2     1  UNL1        0.1650
     13  O         11.5780   -0.0730    1.8880 O.2     1  UNL1       -0.4540
     14  O         11.6490    1.5020    3.4450 O.2     1  UNL1       -0.4540
     15  C         12.4980    0.6240    2.7420 C.3     1  UNL1        0.4680
@<TRIPOS>BOND
     1     6     1    1
     2     6     7    1
     3     1     2    1
     4     5     4    1
     5     9     7    2
     6     9    11    1
     7     7     8    1
     8     4     2    1
     9     2     3    2
    10    11    13    1
    11    11    12    2
    12    13    15    1
    13     8    10    2
    14    12    10    1
    15    12    14    1
    16    15    14    1
