MODEL 1
REMARK VINA RESULT:      -7.7      0.000      0.000
REMARK SMILES O=C(O)CCc1ccc2c(c1)OCO2
REMARK SMILES IDX 4 1 2 2 1 3 3 4 5 6 6 7 7 8 11 9 8 10 10 11 9 12 12 13 14 14
REMARK SMILES IDX 13 15
REMARK H PARENT 3 5
REMARK Flexibility Score: inf
ROOT
ATOM      1  C   UNL     1       8.097  -0.521  -2.256  1.00  0.00     0.127 C 
ENDROOT
BRANCH   1   2
ATOM      2  C   UNL     1       8.367  -1.785  -2.923  1.00  0.00     0.303 C 
ATOM      3  O   UNL     1       9.477  -2.304  -3.053  1.00  0.00    -0.252 OA
BRANCH   2   4
ATOM      4  O   UNL     1       7.272  -2.475  -3.465  1.00  0.00    -0.481 OA
ATOM      5  H   UNL     1       7.178  -3.443  -3.198  1.00  0.00     0.296 HD
ENDBRANCH   2   4
ENDBRANCH   1   2
BRANCH   1   6
ATOM      6  C   UNL     1       6.906  -0.548  -1.380  1.00  0.00     0.047 C 
BRANCH   6   7
ATOM      7  C   UNL     1       6.647   0.633  -0.553  1.00  0.00    -0.043 A 
ATOM      8  C   UNL     1       5.507   1.402  -0.725  1.00  0.00     0.008 A 
ATOM      9  C   UNL     1       7.550   1.035   0.395  1.00  0.00     0.054 A 
ATOM     10  C   UNL     1       5.280   2.533   0.027  1.00  0.00     0.051 A 
ATOM     11  C   UNL     1       7.343   2.166   1.162  1.00  0.00     0.166 A 
ATOM     12  C   UNL     1       6.208   2.919   0.981  1.00  0.00     0.165 A 
ATOM     13  O   UNL     1       8.103   2.752   2.159  1.00  0.00    -0.454 OA
ATOM     14  O   UNL     1       6.280   3.981   1.884  1.00  0.00    -0.454 OA
ATOM     15  C   UNL     1       7.587   4.070   2.402  1.00  0.00     0.468 C 
ENDBRANCH   6   7
ENDBRANCH   1   6
TORSDOF 4
ENDMDL
MODEL 2
REMARK VINA RESULT:      -7.5      1.930      5.648
REMARK SMILES O=C(O)CCc1ccc2c(c1)OCO2
REMARK SMILES IDX 4 1 2 2 1 3 3 4 5 6 6 7 7 8 11 9 8 10 10 11 9 12 12 13 14 14
REMARK SMILES IDX 13 15
REMARK H PARENT 3 5
REMARK Flexibility Score: inf
ROOT
ATOM      1  C   UNL     1       4.732   1.907   0.790  1.00  0.00     0.127 C 
ENDROOT
BRANCH   1   2
ATOM      2  C   UNL     1       4.360   1.141   1.969  1.00  0.00     0.303 C 
ATOM      3  O   UNL     1       5.032   0.246   2.485  1.00  0.00    -0.252 OA
BRANCH   2   4
ATOM      4  O   UNL     1       3.131   1.446   2.575  1.00  0.00    -0.481 OA
ATOM      5  H   UNL     1       3.162   2.100   3.342  1.00  0.00     0.296 HD
ENDBRANCH   2   4
ENDBRANCH   1   2
BRANCH   1   6
ATOM      6  C   UNL     1       6.171   2.237   0.717  1.00  0.00     0.047 C 
BRANCH   6   7
ATOM      7  C   UNL     1       7.030   1.349  -0.069  1.00  0.00    -0.043 A 
ATOM      8  C   UNL     1       8.401   1.542  -0.140  1.00  0.00     0.008 A 
ATOM      9  C   UNL     1       6.495   0.317  -0.794  1.00  0.00     0.054 A 
ATOM     10  C   UNL     1       9.206   0.730  -0.907  1.00  0.00     0.051 A 
ATOM     11  C   UNL     1       7.283  -0.511  -1.571  1.00  0.00     0.166 A 
ATOM     12  C   UNL     1       8.640  -0.308  -1.630  1.00  0.00     0.165 A 
ATOM     13  O   UNL     1       6.966  -1.595  -2.371  1.00  0.00    -0.454 OA
ATOM     14  O   UNL     1       9.157  -1.286  -2.482  1.00  0.00    -0.454 OA
ATOM     15  C   UNL     1       8.104  -1.894  -3.193  1.00  0.00     0.468 C 
ENDBRANCH   6   7
ENDBRANCH   1   6
TORSDOF 4
ENDMDL
MODEL 3
REMARK VINA RESULT:      -7.3      2.002      2.109
REMARK SMILES O=C(O)CCc1ccc2c(c1)OCO2
REMARK SMILES IDX 4 1 2 2 1 3 3 4 5 6 6 7 7 8 11 9 8 10 10 11 9 12 12 13 14 14
REMARK SMILES IDX 13 15
REMARK H PARENT 3 5
REMARK Flexibility Score: inf
ROOT
ATOM      1  C   UNL     1       8.081  -1.262  -0.172  1.00  0.00     0.127 C 
ENDROOT
BRANCH   1   2
ATOM      2  C   UNL     1       7.971  -2.441   0.674  1.00  0.00     0.303 C 
ATOM      3  O   UNL     1       8.806  -3.343   0.760  1.00  0.00    -0.252 OA
BRANCH   2   4
ATOM      4  O   UNL     1       6.815  -2.563   1.460  1.00  0.00    -0.481 OA
ATOM      5  H   UNL     1       6.081  -1.896   1.280  1.00  0.00     0.296 HD
ENDBRANCH   2   4
ENDBRANCH   1   2
BRANCH   1   6
ATOM      6  C   UNL     1       6.782  -0.643  -0.510  1.00  0.00     0.047 C 
BRANCH   6   7
ATOM      7  C   UNL     1       6.507   0.691   0.029  1.00  0.00    -0.043 A 
ATOM      8  C   UNL     1       5.461   1.464  -0.449  1.00  0.00     0.008 A 
ATOM      9  C   UNL     1       7.307   1.232   1.001  1.00  0.00     0.054 A 
ATOM     10  C   UNL     1       5.223   2.733   0.032  1.00  0.00     0.051 A 
ATOM     11  C   UNL     1       7.087   2.502   1.499  1.00  0.00     0.166 A 
ATOM     12  C   UNL     1       6.045   3.257   1.017  1.00  0.00     0.165 A 
ATOM     13  O   UNL     1       7.752   3.239   2.464  1.00  0.00    -0.454 OA
ATOM     14  O   UNL     1       6.078   4.473   1.701  1.00  0.00    -0.454 OA
ATOM     15  C   UNL     1       7.310   4.601   2.373  1.00  0.00     0.468 C 
ENDBRANCH   6   7
ENDBRANCH   1   6
TORSDOF 4
ENDMDL
MODEL 4
REMARK VINA RESULT:      -7.3      1.405      5.733
REMARK SMILES O=C(O)CCc1ccc2c(c1)OCO2
REMARK SMILES IDX 4 1 2 2 1 3 3 4 5 6 6 7 7 8 11 9 8 10 10 11 9 12 12 13 14 14
REMARK SMILES IDX 13 15
REMARK H PARENT 3 5
REMARK Flexibility Score: inf
ROOT
ATOM      1  C   UNL     1       5.341   2.886   0.071  1.00  0.00     0.127 C 
ENDROOT
BRANCH   1   2
ATOM      2  C   UNL     1       6.174   3.859   0.761  1.00  0.00     0.303 C 
ATOM      3  O   UNL     1       6.805   4.772   0.224  1.00  0.00    -0.252 OA
BRANCH   2   4
ATOM      4  O   UNL     1       6.269   3.752   2.157  1.00  0.00    -0.481 OA
ATOM      5  H   UNL     1       6.290   4.620   2.670  1.00  0.00     0.296 HD
ENDBRANCH   2   4
ENDBRANCH   1   2
BRANCH   1   6
ATOM      6  C   UNL     1       5.262   1.575   0.751  1.00  0.00     0.047 C 
BRANCH   6   7
ATOM      7  C   UNL     1       6.047   0.473   0.190  1.00  0.00    -0.043 A 
ATOM      8  C   UNL     1       6.462  -0.593   0.974  1.00  0.00     0.008 A 
ATOM      9  C   UNL     1       6.431   0.484  -1.124  1.00  0.00     0.054 A 
ATOM     10  C   UNL     1       7.231  -1.612   0.456  1.00  0.00     0.051 A 
ATOM     11  C   UNL     1       7.201  -0.527  -1.665  1.00  0.00     0.166 A 
ATOM     12  C   UNL     1       7.604  -1.579  -0.877  1.00  0.00     0.165 A 
ATOM     13  O   UNL     1       7.697  -0.722  -2.943  1.00  0.00    -0.454 OA
ATOM     14  O   UNL     1       8.357  -2.427  -1.691  1.00  0.00    -0.454 OA
ATOM     15  C   UNL     1       8.687  -1.760  -2.887  1.00  0.00     0.468 C 
ENDBRANCH   6   7
ENDBRANCH   1   6
TORSDOF 4
ENDMDL
MODEL 5
REMARK VINA RESULT:      -7.1      3.299      4.932
REMARK SMILES O=C(O)CCc1ccc2c(c1)OCO2
REMARK SMILES IDX 4 1 2 2 1 3 3 4 5 6 6 7 7 8 11 9 8 10 10 11 9 12 12 13 14 14
REMARK SMILES IDX 13 15
REMARK H PARENT 3 5
REMARK Flexibility Score: inf
ROOT
ATOM      1  C   UNL     1       6.102   0.490   0.312  1.00  0.00     0.127 C 
ENDROOT
BRANCH   1   2
ATOM      2  C   UNL     1       5.245   0.937   1.400  1.00  0.00     0.303 C 
ATOM      3  O   UNL     1       5.007   0.305   2.431  1.00  0.00    -0.252 OA
BRANCH   2   4
ATOM      4  O   UNL     1       4.636   2.194   1.265  1.00  0.00    -0.481 OA
ATOM      5  H   UNL     1       4.808   2.682   0.399  1.00  0.00     0.296 HD
ENDBRANCH   2   4
ENDBRANCH   1   2
BRANCH   1   6
ATOM      6  C   UNL     1       7.211   1.418   0.003  1.00  0.00     0.047 C 
BRANCH   6   7
ATOM      7  C   UNL     1       8.316   1.497   0.961  1.00  0.00    -0.043 A 
ATOM      8  C   UNL     1       8.361   2.483   1.935  1.00  0.00     0.008 A 
ATOM      9  C   UNL     1       9.362   0.616   0.897  1.00  0.00     0.054 A 
ATOM     10  C   UNL     1       9.417   2.580   2.813  1.00  0.00     0.051 A 
ATOM     11  C   UNL     1      10.432   0.694   1.768  1.00  0.00     0.166 A 
ATOM     12  C   UNL     1      10.463   1.676   2.729  1.00  0.00     0.165 A 
ATOM     13  O   UNL     1      11.578  -0.073   1.888  1.00  0.00    -0.454 OA
ATOM     14  O   UNL     1      11.649   1.502   3.445  1.00  0.00    -0.454 OA
ATOM     15  C   UNL     1      12.498   0.624   2.742  1.00  0.00     0.468 C 
ENDBRANCH   6   7
ENDBRANCH   1   6
TORSDOF 4
ENDMDL
