@<TRIPOS>MOLECULE
/home/cewinharhar/GITHUB/reincatalyze/data/processed/docking_pred/2023-May-17-1006_maxeplen10_maxtrainstep1000_seadep16_gamma099_lrac9e-4_lrcr1e-3_sub6/3110d36e974f17e9d190d2a4a051583463654b40_ligand_6.pdbqt
 15 16 0 0 0
SMALL
GASTEIGER

@<TRIPOS>ATOM
      1  C          5.3410    2.8860    0.0710 C.3     1  UNL1        0.1270
      2  C          6.1740    3.8590    0.7610 C.2     1  UNL1        0.3030
      3  O          6.8050    4.7720    0.2240 O.2     1  UNL1       -0.2520
      4  O          6.2690    3.7520    2.1570 O.3     1  UNL1       -0.4810
      5  H          6.2900    4.6200    2.6700 H       1  UNL1        0.2960
      6  C          5.2620    1.5750    0.7510 C.3     1  UNL1        0.0470
      7  C          6.0470    0.4730    0.1900 C.2     1  UNL1       -0.0430
      8  C          6.4620   -0.5930    0.9740 C.2     1  UNL1        0.0080
      9  C          6.4310    0.4840   -1.1240 C.2     1  UNL1        0.0540
     10  C          7.2310   -1.6120    0.4560 C.2     1  UNL1        0.0510
     11  C          7.2010   -0.5270   -1.6650 C.2     1  UNL1        0.1660
     12  C          7.6040   -1.5790   -0.8770 C.2     1  UNL1        0.1650
     13  O          7.6970   -0.7220   -2.9430 O.2     1  UNL1       -0.4540
     14  O          8.3570   -2.4270   -1.6910 O.2     1  UNL1       -0.4540
     15  C          8.6870   -1.7600   -2.8870 C.3     1  UNL1        0.4680
@<TRIPOS>BOND
     1    13    15    1
     2    13    11    1
     3    15    14    1
     4    14    12    1
     5    11     9    1
     6    11    12    2
     7     9     7    2
     8    12    10    1
     9     1     6    1
    10     1     2    1
    11     7     6    1
    12     7     8    1
    13     3     2    2
    14    10     8    2
    15     2     4    1
    16     4     5    1
