@<TRIPOS>MOLECULE
/home/cewinharhar/GITHUB/reincatalyze/data/processed/docking_pred/2023-May-17-1006_maxeplen10_maxtrainstep1000_seadep16_gamma099_lrac9e-4_lrcr1e-3_sub6/3110d36e974f17e9d190d2a4a051583463654b40_ligand_6.pdbqt
 15 16 0 0 0
SMALL
GASTEIGER

@<TRIPOS>ATOM
      1  C          4.7320    1.9070    0.7900 C.3     1  UNL1        0.1270
      2  C          4.3600    1.1410    1.9690 C.2     1  UNL1        0.3030
      3  O          5.0320    0.2460    2.4850 O.2     1  UNL1       -0.2520
      4  O          3.1310    1.4460    2.5750 O.3     1  UNL1       -0.4810
      5  H          3.1620    2.1000    3.3420 H       1  UNL1        0.2960
      6  C          6.1710    2.2370    0.7170 C.3     1  UNL1        0.0470
      7  C          7.0300    1.3490   -0.0690 C.2     1  UNL1       -0.0430
      8  C          8.4010    1.5420   -0.1400 C.2     1  UNL1        0.0080
      9  C          6.4950    0.3170   -0.7940 C.2     1  UNL1        0.0540
     10  C          9.2060    0.7300   -0.9070 C.2     1  UNL1        0.0510
     11  C          7.2830   -0.5110   -1.5710 C.2     1  UNL1        0.1660
     12  C          8.6400   -0.3080   -1.6300 C.2     1  UNL1        0.1650
     13  O          6.9660   -1.5950   -2.3710 O.2     1  UNL1       -0.4540
     14  O          9.1570   -1.2860   -2.4820 O.2     1  UNL1       -0.4540
     15  C          8.1040   -1.8940   -3.1930 C.3     1  UNL1        0.4680
@<TRIPOS>BOND
     1    15    14    1
     2    15    13    1
     3    14    12    1
     4    13    11    1
     5    12    11    2
     6    12    10    1
     7    11     9    1
     8    10     8    2
     9     9     7    2
    10     8     7    1
    11     7     6    1
    12     6     1    1
    13     1     2    1
    14     2     3    2
    15     2     4    1
    16     4     5    1
