@<TRIPOS>MOLECULE
/home/cewinharhar/GITHUB/reincatalyze/data/processed/docking_pred/2023-May-17-1006_maxeplen10_maxtrainstep1000_seadep16_gamma099_lrac9e-4_lrcr1e-3_sub6/3110d36e974f17e9d190d2a4a051583463654b40_ligand_6.pdbqt
 15 16 0 0 0
SMALL
GASTEIGER

@<TRIPOS>ATOM
      1  C          8.0970   -0.5210   -2.2560 C.3     1  UNL1        0.1270
      2  C          8.3670   -1.7850   -2.9230 C.2     1  UNL1        0.3030
      3  O          9.4770   -2.3040   -3.0530 O.2     1  UNL1       -0.2520
      4  O          7.2720   -2.4750   -3.4650 O.3     1  UNL1       -0.4810
      5  H          7.1780   -3.4430   -3.1980 H       1  UNL1        0.2960
      6  C          6.9060   -0.5480   -1.3800 C.3     1  UNL1        0.0470
      7  C          6.6470    0.6330   -0.5530 C.2     1  UNL1       -0.0430
      8  C          5.5070    1.4020   -0.7250 C.2     1  UNL1        0.0080
      9  C          7.5500    1.0350    0.3950 C.2     1  UNL1        0.0540
     10  C          5.2800    2.5330    0.0270 C.2     1  UNL1        0.0510
     11  C          7.3430    2.1660    1.1620 C.2     1  UNL1        0.1660
     12  C          6.2080    2.9190    0.9810 C.2     1  UNL1        0.1650
     13  O          8.1030    2.7520    2.1590 O.2     1  UNL1       -0.4540
     14  O          6.2800    3.9810    1.8840 O.2     1  UNL1       -0.4540
     15  C          7.5870    4.0700    2.4020 C.3     1  UNL1        0.4680
@<TRIPOS>BOND
     1     4     5    1
     2     4     2    1
     3     3     2    2
     4     2     1    1
     5     1     6    1
     6     6     7    1
     7     8     7    2
     8     8    10    1
     9     7     9    1
    10    10    12    2
    11     9    11    2
    12    12    11    1
    13    12    14    1
    14    11    13    1
    15    14    15    1
    16    13    15    1
