@<TRIPOS>MOLECULE
/home/cewinharhar/GITHUB/reincatalyze/data/processed/docking_pred/2023-May-17-1006_maxeplen10_maxtrainstep1000_seadep16_gamma099_lrac9e-4_lrcr1e-3_sub6/3110d36e974f17e9d190d2a4a051583463654b40_ligand_6.pdbqt
 15 16 0 0 0
SMALL
GASTEIGER

@<TRIPOS>ATOM
      1  C          8.0810   -1.2620   -0.1720 C.3     1  UNL1        0.1270
      2  C          7.9710   -2.4410    0.6740 C.2     1  UNL1        0.3030
      3  O          8.8060   -3.3430    0.7600 O.2     1  UNL1       -0.2520
      4  O          6.8150   -2.5630    1.4600 O.3     1  UNL1       -0.4810
      5  H          6.0810   -1.8960    1.2800 H       1  UNL1        0.2960
      6  C          6.7820   -0.6430   -0.5100 C.3     1  UNL1        0.0470
      7  C          6.5070    0.6910    0.0290 C.2     1  UNL1       -0.0430
      8  C          5.4610    1.4640   -0.4490 C.2     1  UNL1        0.0080
      9  C          7.3070    1.2320    1.0010 C.2     1  UNL1        0.0540
     10  C          5.2230    2.7330    0.0320 C.2     1  UNL1        0.0510
     11  C          7.0870    2.5020    1.4990 C.2     1  UNL1        0.1660
     12  C          6.0450    3.2570    1.0170 C.2     1  UNL1        0.1650
     13  O          7.7520    3.2390    2.4640 O.2     1  UNL1       -0.4540
     14  O          6.0780    4.4730    1.7010 O.2     1  UNL1       -0.4540
     15  C          7.3100    4.6010    2.3730 C.3     1  UNL1        0.4680
@<TRIPOS>BOND
     1     6     1    1
     2     6     7    1
     3     8     7    2
     4     8    10    1
     5     1     2    1
     6     7     9    1
     7    10    12    2
     8     2     3    2
     9     2     4    1
    10     9    11    2
    11    12    11    1
    12    12    14    1
    13     5     4    1
    14    11    13    1
    15    14    15    1
    16    15    13    1
