@<TRIPOS>MOLECULE
/home/cewinharhar/GITHUB/reincatalyze/data/processed/docking_pred/2023-May-17-1006_maxeplen10_maxtrainstep1000_seadep16_gamma099_lrac9e-4_lrcr1e-3_sub6/3162da3d825baae428df1736f889259fa2bb10a2_ligand_6.pdbqt
 15 16 0 0 0
SMALL
GASTEIGER

@<TRIPOS>ATOM
      1  C          5.3470    2.8660    0.1350 C.3     1  UNL1        0.1270
      2  C          6.1110    3.8710    0.8580 C.2     1  UNL1        0.3030
      3  O          6.1510    3.9980    2.0830 O.2     1  UNL1       -0.2520
      4  O          6.8690    4.7740    0.0960 O.3     1  UNL1       -0.4810
      5  H          7.2260    4.4270   -0.7810 H       1  UNL1        0.2960
      6  C          5.3520    1.5330    0.7760 C.3     1  UNL1        0.0470
      7  C          6.2000    0.4990    0.1800 C.2     1  UNL1       -0.0430
      8  C          6.4980    0.4970   -1.1740 C.2     1  UNL1        0.0080
      9  C          6.6940   -0.5260    0.9420 C.2     1  UNL1        0.0540
     10  C          7.2650   -0.4950   -1.7430 C.2     1  UNL1        0.0510
     11  C          7.4670   -1.5320    0.3940 C.2     1  UNL1        0.1660
     12  C          7.7550   -1.5200   -0.9500 C.2     1  UNL1        0.1650
     13  O          8.0630   -2.6460    0.9600 O.2     1  UNL1       -0.4540
     14  O          8.5400   -2.6470   -1.2040 O.2     1  UNL1       -0.4540
     15  C          8.4800   -3.5200   -0.1000 C.3     1  UNL1        0.4680
@<TRIPOS>BOND
     1    10     8    1
     2    10    12    2
     3    14    12    1
     4    14    15    1
     5     8     7    2
     6    12    11    1
     7     5     4    1
     8    15    13    1
     9     4     2    1
    10     1     6    1
    11     1     2    1
    12     7     6    1
    13     7     9    1
    14    11     9    2
    15    11    13    1
    16     2     3    2
