@<TRIPOS>MOLECULE
/home/cewinharhar/GITHUB/reincatalyze/data/processed/docking_pred/2023-May-17-1006_maxeplen10_maxtrainstep1000_seadep16_gamma099_lrac9e-4_lrcr1e-3_sub6/3162da3d825baae428df1736f889259fa2bb10a2_ligand_6.pdbqt
 15 16 0 0 0
SMALL
GASTEIGER

@<TRIPOS>ATOM
      1  C          6.4020    1.3160    0.7390 C.3     1  UNL1        0.1270
      2  C          5.2540    1.1160    1.6110 C.2     1  UNL1        0.3030
      3  O          5.1430    0.2280    2.4580 O.2     1  UNL1       -0.2520
      4  O          4.1810    2.0100    1.4780 O.3     1  UNL1       -0.4810
      5  H          3.2770    1.5980    1.3060 H       1  UNL1        0.2960
      6  C          6.1830    0.8690   -0.6530 C.3     1  UNL1        0.0470
      7  C          6.9510   -0.2860   -1.1220 C.2     1  UNL1       -0.0430
      8  C          7.2490   -0.4610   -2.4650 C.2     1  UNL1        0.0080
      9  C          7.3660   -1.2540   -0.2460 C.2     1  UNL1        0.0540
     10  C          7.9410   -1.5650   -2.9120 C.2     1  UNL1        0.0510
     11  C          8.0620   -2.3690   -0.6720 C.2     1  UNL1        0.1660
     12  C          8.3510   -2.5290   -2.0060 C.2     1  UNL1        0.1650
     13  O          8.5720   -3.4540    0.0200 O.2     1  UNL1       -0.4540
     14  O          9.0490   -3.7320   -2.1250 O.2     1  UNL1       -0.4540
     15  C          8.9230   -4.4700   -0.9310 C.3     1  UNL1        0.4680
@<TRIPOS>BOND
     1    10     8    1
     2    10    12    2
     3     8     7    2
     4    14    12    1
     5    14    15    1
     6    12    11    1
     7     7     6    1
     8     7     9    1
     9    15    13    1
    10    11     9    2
    11    11    13    1
    12     6     1    1
    13     1     2    1
    14     5     4    1
    15     4     2    1
    16     2     3    2
