@<TRIPOS>MOLECULE
/home/cewinharhar/GITHUB/reincatalyze/data/processed/docking_pred/2023-May-17-1006_maxeplen10_maxtrainstep1000_seadep16_gamma099_lrac9e-4_lrcr1e-3_sub6/3162da3d825baae428df1736f889259fa2bb10a2_ligand_6.pdbqt
 15 16 0 0 0
SMALL
GASTEIGER

@<TRIPOS>ATOM
      1  C          4.6440    1.8340    0.6660 C.3     1  UNL1        0.1270
      2  C          4.3850    1.1430    1.9190 C.2     1  UNL1        0.3030
      3  O          5.1420    0.3380    2.4640 O.2     1  UNL1       -0.2520
      4  O          3.1690    1.4150    2.5650 O.3     1  UNL1       -0.4810
      5  H          3.1290    1.1960    3.5490 H       1  UNL1        0.2960
      6  C          6.0550    2.2370    0.4830 C.3     1  UNL1        0.0470
      7  C          6.9270    1.3280   -0.2630 C.2     1  UNL1       -0.0430
      8  C          8.2920    1.5510   -0.3620 C.2     1  UNL1        0.0080
      9  C          6.4100    0.2430   -0.9210 C.2     1  UNL1        0.0540
     10  C          9.1080    0.7170   -1.0930 C.2     1  UNL1        0.0510
     11  C          7.2100   -0.6080   -1.6600 C.2     1  UNL1        0.1660
     12  C          8.5610   -0.3740   -1.7480 C.2     1  UNL1        0.1650
     13  O          6.9120   -1.7430   -2.3930 O.2     1  UNL1       -0.4540
     14  O          9.0930   -1.3860   -2.5490 O.2     1  UNL1       -0.4540
     15  C          8.0480   -2.0600   -3.2120 C.3     1  UNL1        0.4680
@<TRIPOS>BOND
     1    15    14    1
     2    15    13    1
     3    14    12    1
     4    13    11    1
     5    12    11    2
     6    12    10    1
     7    11     9    1
     8    10     8    2
     9     9     7    2
    10     8     7    1
    11     7     6    1
    12     6     1    1
    13     1     2    1
    14     2     3    2
    15     2     4    1
    16     4     5    1
