MODEL 1
REMARK VINA RESULT:      -7.7      0.000      0.000
REMARK SMILES O=C(O)CCc1ccc2c(c1)OCO2
REMARK SMILES IDX 4 1 2 2 1 3 3 4 5 6 6 7 7 8 11 9 8 10 10 11 9 12 12 13 14 14
REMARK SMILES IDX 13 15
REMARK H PARENT 3 5
REMARK Flexibility Score: inf
ROOT
ATOM      1  C   UNL     1       5.416   2.868   0.121  1.00  0.00     0.127 C 
ENDROOT
BRANCH   1   2
ATOM      2  C   UNL     1       6.244   3.854   0.797  1.00  0.00     0.303 C 
ATOM      3  O   UNL     1       6.890   4.747   0.246  1.00  0.00    -0.252 OA
BRANCH   2   4
ATOM      4  O   UNL     1       6.314   3.785   2.197  1.00  0.00    -0.481 OA
ATOM      5  H   UNL     1       6.867   4.496   2.651  1.00  0.00     0.296 HD
ENDBRANCH   2   4
ENDBRANCH   1   2
BRANCH   1   6
ATOM      6  C   UNL     1       5.359   1.560   0.807  1.00  0.00     0.047 C 
BRANCH   6   7
ATOM      7  C   UNL     1       6.135   0.459   0.232  1.00  0.00    -0.043 A 
ATOM      8  C   UNL     1       6.587  -0.594   1.012  1.00  0.00     0.008 A 
ATOM      9  C   UNL     1       6.471   0.458  -1.096  1.00  0.00     0.054 A 
ATOM     10  C   UNL     1       7.348  -1.611   0.480  1.00  0.00     0.051 A 
ATOM     11  C   UNL     1       7.232  -0.552  -1.652  1.00  0.00     0.166 A 
ATOM     12  C   UNL     1       7.673  -1.590  -0.867  1.00  0.00     0.165 A 
ATOM     13  O   UNL     1       7.684  -0.757  -2.944  1.00  0.00    -0.454 OA
ATOM     14  O   UNL     1       8.406  -2.440  -1.697  1.00  0.00    -0.454 OA
ATOM     15  C   UNL     1       8.686  -1.785  -2.912  1.00  0.00     0.468 C 
ENDBRANCH   6   7
ENDBRANCH   1   6
TORSDOF 4
ENDMDL
MODEL 2
REMARK VINA RESULT:      -7.6      2.125      2.508
REMARK SMILES O=C(O)CCc1ccc2c(c1)OCO2
REMARK SMILES IDX 4 1 2 2 1 3 3 4 5 6 6 7 7 8 11 9 8 10 10 11 9 12 12 13 14 14
REMARK SMILES IDX 13 15
REMARK H PARENT 3 5
REMARK Flexibility Score: inf
ROOT
ATOM      1  C   UNL     1       4.644   1.834   0.666  1.00  0.00     0.127 C 
ENDROOT
BRANCH   1   2
ATOM      2  C   UNL     1       4.385   1.143   1.919  1.00  0.00     0.303 C 
ATOM      3  O   UNL     1       5.142   0.338   2.464  1.00  0.00    -0.252 OA
BRANCH   2   4
ATOM      4  O   UNL     1       3.169   1.415   2.565  1.00  0.00    -0.481 OA
ATOM      5  H   UNL     1       3.129   1.196   3.549  1.00  0.00     0.296 HD
ENDBRANCH   2   4
ENDBRANCH   1   2
BRANCH   1   6
ATOM      6  C   UNL     1       6.055   2.237   0.483  1.00  0.00     0.047 C 
BRANCH   6   7
ATOM      7  C   UNL     1       6.927   1.328  -0.263  1.00  0.00    -0.043 A 
ATOM      8  C   UNL     1       8.292   1.551  -0.362  1.00  0.00     0.008 A 
ATOM      9  C   UNL     1       6.410   0.243  -0.921  1.00  0.00     0.054 A 
ATOM     10  C   UNL     1       9.108   0.717  -1.093  1.00  0.00     0.051 A 
ATOM     11  C   UNL     1       7.210  -0.608  -1.660  1.00  0.00     0.166 A 
ATOM     12  C   UNL     1       8.561  -0.374  -1.748  1.00  0.00     0.165 A 
ATOM     13  O   UNL     1       6.912  -1.743  -2.393  1.00  0.00    -0.454 OA
ATOM     14  O   UNL     1       9.093  -1.386  -2.549  1.00  0.00    -0.454 OA
ATOM     15  C   UNL     1       8.048  -2.060  -3.212  1.00  0.00     0.468 C 
ENDBRANCH   6   7
ENDBRANCH   1   6
TORSDOF 4
ENDMDL
MODEL 3
REMARK VINA RESULT:      -7.5      1.993      2.959
REMARK SMILES O=C(O)CCc1ccc2c(c1)OCO2
REMARK SMILES IDX 4 1 2 2 1 3 3 4 5 6 6 7 7 8 11 9 8 10 10 11 9 12 12 13 14 14
REMARK SMILES IDX 13 15
REMARK H PARENT 3 5
REMARK Flexibility Score: inf
ROOT
ATOM      1  C   UNL     1       6.402   1.316   0.739  1.00  0.00     0.127 C 
ENDROOT
BRANCH   1   2
ATOM      2  C   UNL     1       5.254   1.116   1.611  1.00  0.00     0.303 C 
ATOM      3  O   UNL     1       5.143   0.228   2.458  1.00  0.00    -0.252 OA
BRANCH   2   4
ATOM      4  O   UNL     1       4.181   2.010   1.478  1.00  0.00    -0.481 OA
ATOM      5  H   UNL     1       3.277   1.598   1.306  1.00  0.00     0.296 HD
ENDBRANCH   2   4
ENDBRANCH   1   2
BRANCH   1   6
ATOM      6  C   UNL     1       6.183   0.869  -0.653  1.00  0.00     0.047 C 
BRANCH   6   7
ATOM      7  C   UNL     1       6.951  -0.286  -1.122  1.00  0.00    -0.043 A 
ATOM      8  C   UNL     1       7.249  -0.461  -2.465  1.00  0.00     0.008 A 
ATOM      9  C   UNL     1       7.366  -1.254  -0.246  1.00  0.00     0.054 A 
ATOM     10  C   UNL     1       7.941  -1.565  -2.912  1.00  0.00     0.051 A 
ATOM     11  C   UNL     1       8.062  -2.369  -0.672  1.00  0.00     0.166 A 
ATOM     12  C   UNL     1       8.351  -2.529  -2.006  1.00  0.00     0.165 A 
ATOM     13  O   UNL     1       8.572  -3.454   0.020  1.00  0.00    -0.454 OA
ATOM     14  O   UNL     1       9.049  -3.732  -2.125  1.00  0.00    -0.454 OA
ATOM     15  C   UNL     1       8.923  -4.470  -0.931  1.00  0.00     0.468 C 
ENDBRANCH   6   7
ENDBRANCH   1   6
TORSDOF 4
ENDMDL
MODEL 4
REMARK VINA RESULT:      -7.4      1.788      5.259
REMARK SMILES O=C(O)CCc1ccc2c(c1)OCO2
REMARK SMILES IDX 4 1 2 2 1 3 3 4 5 6 6 7 7 8 11 9 8 10 10 11 9 12 12 13 14 14
REMARK SMILES IDX 13 15
REMARK H PARENT 3 5
REMARK Flexibility Score: inf
ROOT
ATOM      1  C   UNL     1       8.318  -0.199  -2.828  1.00  0.00     0.127 C 
ENDROOT
BRANCH   1   2
ATOM      2  C   UNL     1       8.532  -1.626  -3.011  1.00  0.00     0.303 C 
ATOM      3  O   UNL     1       9.617  -2.204  -2.932  1.00  0.00    -0.252 OA
BRANCH   2   4
ATOM      4  O   UNL     1       7.407  -2.414  -3.302  1.00  0.00    -0.481 OA
ATOM      5  H   UNL     1       7.120  -3.062  -2.584  1.00  0.00     0.296 HD
ENDBRANCH   2   4
ENDBRANCH   1   2
BRANCH   1   6
ATOM      6  C   UNL     1       8.736   0.306  -1.503  1.00  0.00     0.047 C 
BRANCH   6   7
ATOM      7  C   UNL     1       7.764   0.224  -0.410  1.00  0.00    -0.043 A 
ATOM      8  C   UNL     1       7.732  -0.862   0.452  1.00  0.00     0.008 A 
ATOM      9  C   UNL     1       6.827   1.207  -0.230  1.00  0.00     0.054 A 
ATOM     10  C   UNL     1       6.796  -0.957   1.457  1.00  0.00     0.051 A 
ATOM     11  C   UNL     1       5.879   1.133   0.772  1.00  0.00     0.166 A 
ATOM     12  C   UNL     1       5.860   0.051   1.619  1.00  0.00     0.165 A 
ATOM     13  O   UNL     1       4.856   1.991   1.134  1.00  0.00    -0.454 OA
ATOM     14  O   UNL     1       4.807   0.256   2.512  1.00  0.00    -0.454 OA
ATOM     15  C   UNL     1       3.981   1.293   2.034  1.00  0.00     0.468 C 
ENDBRANCH   6   7
ENDBRANCH   1   6
TORSDOF 4
ENDMDL
