@<TRIPOS>MOLECULE
/home/cewinharhar/GITHUB/reincatalyze/data/processed/docking_pred/2023-May-17-1006_maxeplen10_maxtrainstep1000_seadep16_gamma099_lrac9e-4_lrcr1e-3_sub6/3162da3d825baae428df1736f889259fa2bb10a2_ligand_6.pdbqt
 15 16 0 0 0
SMALL
GASTEIGER

@<TRIPOS>ATOM
      1  C          8.3180   -0.1990   -2.8280 C.3     1  UNL1        0.1270
      2  C          8.5320   -1.6260   -3.0110 C.2     1  UNL1        0.3030
      3  O          9.6170   -2.2040   -2.9320 O.2     1  UNL1       -0.2520
      4  O          7.4070   -2.4140   -3.3020 O.3     1  UNL1       -0.4810
      5  H          7.1200   -3.0620   -2.5840 H       1  UNL1        0.2960
      6  C          8.7360    0.3060   -1.5030 C.3     1  UNL1        0.0470
      7  C          7.7640    0.2240   -0.4100 C.2     1  UNL1       -0.0430
      8  C          7.7320   -0.8620    0.4520 C.2     1  UNL1        0.0080
      9  C          6.8270    1.2070   -0.2300 C.2     1  UNL1        0.0540
     10  C          6.7960   -0.9570    1.4570 C.2     1  UNL1        0.0510
     11  C          5.8790    1.1330    0.7720 C.2     1  UNL1        0.1660
     12  C          5.8600    0.0510    1.6190 C.2     1  UNL1        0.1650
     13  O          4.8560    1.9910    1.1340 O.2     1  UNL1       -0.4540
     14  O          4.8070    0.2560    2.5120 O.2     1  UNL1       -0.4540
     15  C          3.9810    1.2930    2.0340 C.3     1  UNL1        0.4680
@<TRIPOS>BOND
     1     4     2    1
     2     4     5    1
     3     2     3    2
     4     2     1    1
     5     1     6    1
     6     6     7    1
     7     7     9    2
     8     7     8    1
     9     9    11    1
    10     8    10    2
    11    11    13    1
    12    11    12    2
    13    13    15    1
    14    10    12    1
    15    12    14    1
    16    15    14    1
