@<TRIPOS>MOLECULE
/home/cewinharhar/GITHUB/reincatalyze/data/processed/docking_pred/2023-May-17-1006_maxeplen10_maxtrainstep1000_seadep16_gamma099_lrac9e-4_lrcr1e-3_sub6/3162da3d825baae428df1736f889259fa2bb10a2_ligand_6.pdbqt
 15 16 0 0 0
SMALL
GASTEIGER

@<TRIPOS>ATOM
      1  C          5.4160    2.8680    0.1210 C.3     1  UNL1        0.1270
      2  C          6.2440    3.8540    0.7970 C.2     1  UNL1        0.3030
      3  O          6.8900    4.7470    0.2460 O.2     1  UNL1       -0.2520
      4  O          6.3140    3.7850    2.1970 O.3     1  UNL1       -0.4810
      5  H          6.8670    4.4960    2.6510 H       1  UNL1        0.2960
      6  C          5.3590    1.5600    0.8070 C.3     1  UNL1        0.0470
      7  C          6.1350    0.4590    0.2320 C.2     1  UNL1       -0.0430
      8  C          6.5870   -0.5940    1.0120 C.2     1  UNL1        0.0080
      9  C          6.4710    0.4580   -1.0960 C.2     1  UNL1        0.0540
     10  C          7.3480   -1.6110    0.4800 C.2     1  UNL1        0.0510
     11  C          7.2320   -0.5520   -1.6520 C.2     1  UNL1        0.1660
     12  C          7.6730   -1.5900   -0.8670 C.2     1  UNL1        0.1650
     13  O          7.6840   -0.7570   -2.9440 O.2     1  UNL1       -0.4540
     14  O          8.4060   -2.4400   -1.6970 O.2     1  UNL1       -0.4540
     15  C          8.6860   -1.7850   -2.9120 C.3     1  UNL1        0.4680
@<TRIPOS>BOND
     1    13    15    1
     2    13    11    1
     3    15    14    1
     4    14    12    1
     5    11     9    1
     6    11    12    2
     7     9     7    2
     8    12    10    1
     9     1     2    1
    10     1     6    1
    11     7     6    1
    12     7     8    1
    13     3     2    2
    14    10     8    2
    15     2     4    1
    16     4     5    1
