@<TRIPOS>MOLECULE
/home/cewinharhar/GITHUB/reincatalyze/data/processed/docking_pred/2023-May-17-1006_maxeplen10_maxtrainstep1000_seadep16_gamma099_lrac9e-4_lrcr1e-3_sub6/31638bda67923b1bb66f4f033a77b51352de91e4_ligand_6.pdbqt
 15 16 0 0 0
SMALL
GASTEIGER

@<TRIPOS>ATOM
      1  C          8.3080   -0.3290   -2.8100 C.3     1  UNL1        0.1270
      2  C          8.4670   -1.7540   -3.0560 C.2     1  UNL1        0.3030
      3  O          9.5330   -2.3710   -3.0340 O.2     1  UNL1       -0.2520
      4  O          7.3080   -2.4910   -3.3460 O.3     1  UNL1       -0.4810
      5  H          6.9300   -3.0400   -2.5890 H       1  UNL1        0.2960
      6  C          8.7630    0.1020   -1.4700 C.3     1  UNL1        0.0470
      7  C          7.7830    0.0780   -0.3820 C.2     1  UNL1       -0.0430
      8  C          7.7230   -0.9760    0.5160 C.2     1  UNL1        0.0080
      9  C          6.8650    1.0860   -0.2440 C.2     1  UNL1        0.0540
     10  C          6.7780   -1.0180    1.5170 C.2     1  UNL1        0.0510
     11  C          5.9090    1.0660    0.7540 C.2     1  UNL1        0.1660
     12  C          5.8620    0.0150    1.6370 C.2     1  UNL1        0.1650
     13  O          4.9020    1.9570    1.0790 O.2     1  UNL1       -0.4540
     14  O          4.8070    0.2720    2.5140 O.2     1  UNL1       -0.4540
     15  C          4.0070    1.3090    1.9950 C.3     1  UNL1        0.4680
@<TRIPOS>BOND
     1     4     2    1
     2     4     5    1
     3     2     3    2
     4     2     1    1
     5     1     6    1
     6     6     7    1
     7     7     9    2
     8     7     8    1
     9     9    11    1
    10     8    10    2
    11    11    13    1
    12    11    12    2
    13    13    15    1
    14    10    12    1
    15    12    14    1
    16    15    14    1
