@<TRIPOS>MOLECULE
/home/cewinharhar/GITHUB/reincatalyze/data/processed/docking_pred/2023-May-17-1006_maxeplen10_maxtrainstep1000_seadep16_gamma099_lrac9e-4_lrcr1e-3_sub6/31638bda67923b1bb66f4f033a77b51352de91e4_ligand_6.pdbqt
 15 16 0 0 0
SMALL
GASTEIGER

@<TRIPOS>ATOM
      1  C          5.4160    2.8680    0.1310 C.3     1  UNL1        0.1270
      2  C          6.2500    3.8460    0.8120 C.2     1  UNL1        0.3030
      3  O          6.8840    4.7520    0.2670 O.2     1  UNL1       -0.2520
      4  O          6.3410    3.7530    2.2100 O.3     1  UNL1       -0.4810
      5  H          5.4780    3.5850    2.7020 H       1  UNL1        0.2960
      6  C          5.3390    1.5620    0.8190 C.3     1  UNL1        0.0470
      7  C          6.1190    0.4550    0.2610 C.2     1  UNL1       -0.0430
      8  C          6.5790   -0.5810    1.0590 C.2     1  UNL1        0.0080
      9  C          6.4510    0.4330   -1.0670 C.2     1  UNL1        0.0540
     10  C          7.3430   -1.6040    0.5420 C.2     1  UNL1        0.0510
     11  C          7.2160   -0.5840   -1.6070 C.2     1  UNL1        0.1660
     12  C          7.6640   -1.6050   -0.8050 C.2     1  UNL1        0.1650
     13  O          7.6660   -0.8090   -2.8970 O.2     1  UNL1       -0.4540
     14  O          8.3990   -2.4660   -1.6220 O.2     1  UNL1       -0.4540
     15  C          8.6740   -1.8310   -2.8490 C.3     1  UNL1        0.4680
@<TRIPOS>BOND
     1    13    15    1
     2    13    11    1
     3    15    14    1
     4    14    12    1
     5    11     9    1
     6    11    12    2
     7     9     7    2
     8    12    10    1
     9     1     2    1
    10     1     6    1
    11     7     6    1
    12     7     8    1
    13     3     2    2
    14    10     8    2
    15     2     4    1
    16     4     5    1
