@<TRIPOS>MOLECULE
/home/cewinharhar/GITHUB/reincatalyze/data/processed/docking_pred/2023-May-17-1006_maxeplen10_maxtrainstep1000_seadep16_gamma099_lrac9e-4_lrcr1e-3_sub6/31638bda67923b1bb66f4f033a77b51352de91e4_ligand_6.pdbqt
 15 16 0 0 0
SMALL
GASTEIGER

@<TRIPOS>ATOM
      1  C          6.4370    1.3030    0.7520 C.3     1  UNL1        0.1270
      2  C          5.1760    1.3300    1.4770 C.2     1  UNL1        0.3030
      3  O          4.2700    2.1490    1.3100 O.2     1  UNL1       -0.2520
      4  O          4.9710    0.3390    2.4500 O.3     1  UNL1       -0.4810
      5  H          5.0860   -0.6150    2.1450 H       1  UNL1        0.2960
      6  C          6.3040    0.9260   -0.6710 C.3     1  UNL1        0.0470
      7  C          7.0280   -0.2620   -1.1280 C.2     1  UNL1       -0.0430
      8  C          7.2940   -0.4760   -2.4720 C.2     1  UNL1        0.0080
      9  C          7.4320   -1.2210   -0.2380 C.2     1  UNL1        0.0540
     10  C          7.9430   -1.6100   -2.9070 C.2     1  UNL1        0.0510
     11  C          8.0860   -2.3660   -0.6510 C.2     1  UNL1        0.1660
     12  C          8.3440   -2.5650   -1.9860 C.2     1  UNL1        0.1650
     13  O          8.5770   -3.4500    0.0560 O.2     1  UNL1       -0.4540
     14  O          9.0030   -3.7900   -2.0910 O.2     1  UNL1       -0.4540
     15  C          8.8800   -4.4970   -0.8790 C.3     1  UNL1        0.4680
@<TRIPOS>BOND
     1    10     8    1
     2    10    12    2
     3     8     7    2
     4    14    12    1
     5    14    15    1
     6    12    11    1
     7     7     6    1
     8     7     9    1
     9    15    13    1
    10     6     1    1
    11    11     9    2
    12    11    13    1
    13     1     2    1
    14     3     2    2
    15     2     4    1
    16     5     4    1
