MODEL 1
REMARK VINA RESULT:      -7.6      0.000      0.000
REMARK SMILES O=C(O)CCc1ccc2c(c1)OCO2
REMARK SMILES IDX 4 1 2 2 1 3 3 4 5 6 6 7 7 8 11 9 8 10 10 11 9 12 12 13 14 14
REMARK SMILES IDX 13 15
REMARK H PARENT 3 5
REMARK Flexibility Score: inf
ROOT
ATOM      1  C   UNL     1       5.416   2.868   0.131  1.00  0.00     0.127 C 
ENDROOT
BRANCH   1   2
ATOM      2  C   UNL     1       6.250   3.846   0.812  1.00  0.00     0.303 C 
ATOM      3  O   UNL     1       6.884   4.752   0.267  1.00  0.00    -0.252 OA
BRANCH   2   4
ATOM      4  O   UNL     1       6.341   3.753   2.210  1.00  0.00    -0.481 OA
ATOM      5  H   UNL     1       5.478   3.585   2.702  1.00  0.00     0.296 HD
ENDBRANCH   2   4
ENDBRANCH   1   2
BRANCH   1   6
ATOM      6  C   UNL     1       5.339   1.562   0.819  1.00  0.00     0.047 C 
BRANCH   6   7
ATOM      7  C   UNL     1       6.119   0.455   0.261  1.00  0.00    -0.043 A 
ATOM      8  C   UNL     1       6.579  -0.581   1.059  1.00  0.00     0.008 A 
ATOM      9  C   UNL     1       6.451   0.433  -1.067  1.00  0.00     0.054 A 
ATOM     10  C   UNL     1       7.343  -1.604   0.542  1.00  0.00     0.051 A 
ATOM     11  C   UNL     1       7.216  -0.584  -1.607  1.00  0.00     0.166 A 
ATOM     12  C   UNL     1       7.664  -1.605  -0.805  1.00  0.00     0.165 A 
ATOM     13  O   UNL     1       7.666  -0.809  -2.897  1.00  0.00    -0.454 OA
ATOM     14  O   UNL     1       8.399  -2.466  -1.622  1.00  0.00    -0.454 OA
ATOM     15  C   UNL     1       8.674  -1.831  -2.849  1.00  0.00     0.468 C 
ENDBRANCH   6   7
ENDBRANCH   1   6
TORSDOF 4
ENDMDL
MODEL 2
REMARK VINA RESULT:      -7.6      2.128      2.520
REMARK SMILES O=C(O)CCc1ccc2c(c1)OCO2
REMARK SMILES IDX 4 1 2 2 1 3 3 4 5 6 6 7 7 8 11 9 8 10 10 11 9 12 12 13 14 14
REMARK SMILES IDX 13 15
REMARK H PARENT 3 5
REMARK Flexibility Score: inf
ROOT
ATOM      1  C   UNL     1       4.691   1.857   0.678  1.00  0.00     0.127 C 
ENDROOT
BRANCH   1   2
ATOM      2  C   UNL     1       4.399   1.158   1.919  1.00  0.00     0.303 C 
ATOM      3  O   UNL     1       5.135   0.338   2.471  1.00  0.00    -0.252 OA
BRANCH   2   4
ATOM      4  O   UNL     1       3.174   1.440   2.545  1.00  0.00    -0.481 OA
ATOM      5  H   UNL     1       2.458   0.735   2.461  1.00  0.00     0.296 HD
ENDBRANCH   2   4
ENDBRANCH   1   2
BRANCH   1   6
ATOM      6  C   UNL     1       6.112   2.233   0.521  1.00  0.00     0.047 C 
BRANCH   6   7
ATOM      7  C   UNL     1       6.972   1.327  -0.244  1.00  0.00    -0.043 A 
ATOM      8  C   UNL     1       8.332   1.558  -0.377  1.00  0.00     0.008 A 
ATOM      9  C   UNL     1       6.445   0.237  -0.885  1.00  0.00     0.054 A 
ATOM     10  C   UNL     1       9.135   0.727  -1.125  1.00  0.00     0.051 A 
ATOM     11  C   UNL     1       7.232  -0.611  -1.641  1.00  0.00     0.166 A 
ATOM     12  C   UNL     1       8.579  -0.370  -1.764  1.00  0.00     0.165 A 
ATOM     13  O   UNL     1       6.923  -1.751  -2.363  1.00  0.00    -0.454 OA
ATOM     14  O   UNL     1       9.097  -1.380  -2.575  1.00  0.00    -0.454 OA
ATOM     15  C   UNL     1       8.041  -2.063  -3.209  1.00  0.00     0.468 C 
ENDBRANCH   6   7
ENDBRANCH   1   6
TORSDOF 4
ENDMDL
MODEL 3
REMARK VINA RESULT:      -7.5      0.945      2.105
REMARK SMILES O=C(O)CCc1ccc2c(c1)OCO2
REMARK SMILES IDX 4 1 2 2 1 3 3 4 5 6 6 7 7 8 11 9 8 10 10 11 9 12 12 13 14 14
REMARK SMILES IDX 13 15
REMARK H PARENT 3 5
REMARK Flexibility Score: inf
ROOT
ATOM      1  C   UNL     1       5.487   2.741   0.122  1.00  0.00     0.127 C 
ENDROOT
BRANCH   1   2
ATOM      2  C   UNL     1       6.197   3.733   0.915  1.00  0.00     0.303 C 
ATOM      3  O   UNL     1       6.273   3.748   2.144  1.00  0.00    -0.252 OA
BRANCH   2   4
ATOM      4  O   UNL     1       6.852   4.763   0.221  1.00  0.00    -0.481 OA
ATOM      5  H   UNL     1       6.368   5.647   0.176  1.00  0.00     0.296 HD
ENDBRANCH   2   4
ENDBRANCH   1   2
BRANCH   1   6
ATOM      6  C   UNL     1       5.453   1.396   0.735  1.00  0.00     0.047 C 
BRANCH   6   7
ATOM      7  C   UNL     1       6.271   0.350   0.116  1.00  0.00    -0.043 A 
ATOM      8  C   UNL     1       6.494   0.318  -1.252  1.00  0.00     0.008 A 
ATOM      9  C   UNL     1       6.810  -0.656   0.873  1.00  0.00     0.054 A 
ATOM     10  C   UNL     1       7.232  -0.685  -1.839  1.00  0.00     0.051 A 
ATOM     11  C   UNL     1       7.555  -1.673   0.306  1.00  0.00     0.166 A 
ATOM     12  C   UNL     1       7.769  -1.691  -1.051  1.00  0.00     0.165 A 
ATOM     13  O   UNL     1       8.185  -2.771   0.864  1.00  0.00    -0.454 OA
ATOM     14  O   UNL     1       8.542  -2.821  -1.322  1.00  0.00    -0.454 OA
ATOM     15  C   UNL     1       8.547  -3.669  -0.197  1.00  0.00     0.468 C 
ENDBRANCH   6   7
ENDBRANCH   1   6
TORSDOF 4
ENDMDL
MODEL 4
REMARK VINA RESULT:      -7.5      1.796      5.282
REMARK SMILES O=C(O)CCc1ccc2c(c1)OCO2
REMARK SMILES IDX 4 1 2 2 1 3 3 4 5 6 6 7 7 8 11 9 8 10 10 11 9 12 12 13 14 14
REMARK SMILES IDX 13 15
REMARK H PARENT 3 5
REMARK Flexibility Score: inf
ROOT
ATOM      1  C   UNL     1       8.308  -0.329  -2.810  1.00  0.00     0.127 C 
ENDROOT
BRANCH   1   2
ATOM      2  C   UNL     1       8.467  -1.754  -3.056  1.00  0.00     0.303 C 
ATOM      3  O   UNL     1       9.533  -2.371  -3.034  1.00  0.00    -0.252 OA
BRANCH   2   4
ATOM      4  O   UNL     1       7.308  -2.491  -3.346  1.00  0.00    -0.481 OA
ATOM      5  H   UNL     1       6.930  -3.040  -2.589  1.00  0.00     0.296 HD
ENDBRANCH   2   4
ENDBRANCH   1   2
BRANCH   1   6
ATOM      6  C   UNL     1       8.763   0.102  -1.470  1.00  0.00     0.047 C 
BRANCH   6   7
ATOM      7  C   UNL     1       7.783   0.078  -0.382  1.00  0.00    -0.043 A 
ATOM      8  C   UNL     1       7.723  -0.976   0.516  1.00  0.00     0.008 A 
ATOM      9  C   UNL     1       6.865   1.086  -0.244  1.00  0.00     0.054 A 
ATOM     10  C   UNL     1       6.778  -1.018   1.517  1.00  0.00     0.051 A 
ATOM     11  C   UNL     1       5.909   1.066   0.754  1.00  0.00     0.166 A 
ATOM     12  C   UNL     1       5.862   0.015   1.637  1.00  0.00     0.165 A 
ATOM     13  O   UNL     1       4.902   1.957   1.079  1.00  0.00    -0.454 OA
ATOM     14  O   UNL     1       4.807   0.272   2.514  1.00  0.00    -0.454 OA
ATOM     15  C   UNL     1       4.007   1.309   1.995  1.00  0.00     0.468 C 
ENDBRANCH   6   7
ENDBRANCH   1   6
TORSDOF 4
ENDMDL
MODEL 5
REMARK VINA RESULT:      -7.4      1.954      2.854
REMARK SMILES O=C(O)CCc1ccc2c(c1)OCO2
REMARK SMILES IDX 4 1 2 2 1 3 3 4 5 6 6 7 7 8 11 9 8 10 10 11 9 12 12 13 14 14
REMARK SMILES IDX 13 15
REMARK H PARENT 3 5
REMARK Flexibility Score: inf
ROOT
ATOM      1  C   UNL     1       6.437   1.303   0.752  1.00  0.00     0.127 C 
ENDROOT
BRANCH   1   2
ATOM      2  C   UNL     1       5.176   1.330   1.477  1.00  0.00     0.303 C 
ATOM      3  O   UNL     1       4.270   2.149   1.310  1.00  0.00    -0.252 OA
BRANCH   2   4
ATOM      4  O   UNL     1       4.971   0.339   2.450  1.00  0.00    -0.481 OA
ATOM      5  H   UNL     1       5.086  -0.615   2.145  1.00  0.00     0.296 HD
ENDBRANCH   2   4
ENDBRANCH   1   2
BRANCH   1   6
ATOM      6  C   UNL     1       6.304   0.926  -0.671  1.00  0.00     0.047 C 
BRANCH   6   7
ATOM      7  C   UNL     1       7.028  -0.262  -1.128  1.00  0.00    -0.043 A 
ATOM      8  C   UNL     1       7.294  -0.476  -2.472  1.00  0.00     0.008 A 
ATOM      9  C   UNL     1       7.432  -1.221  -0.238  1.00  0.00     0.054 A 
ATOM     10  C   UNL     1       7.943  -1.610  -2.907  1.00  0.00     0.051 A 
ATOM     11  C   UNL     1       8.086  -2.366  -0.651  1.00  0.00     0.166 A 
ATOM     12  C   UNL     1       8.344  -2.565  -1.986  1.00  0.00     0.165 A 
ATOM     13  O   UNL     1       8.577  -3.450   0.056  1.00  0.00    -0.454 OA
ATOM     14  O   UNL     1       9.003  -3.790  -2.091  1.00  0.00    -0.454 OA
ATOM     15  C   UNL     1       8.880  -4.497  -0.879  1.00  0.00     0.468 C 
ENDBRANCH   6   7
ENDBRANCH   1   6
TORSDOF 4
ENDMDL
