@<TRIPOS>MOLECULE
/home/cewinharhar/GITHUB/reincatalyze/data/processed/docking_pred/2023-May-17-1006_maxeplen10_maxtrainstep1000_seadep16_gamma099_lrac9e-4_lrcr1e-3_sub6/31638bda67923b1bb66f4f033a77b51352de91e4_ligand_6.pdbqt
 15 16 0 0 0
SMALL
GASTEIGER

@<TRIPOS>ATOM
      1  C          5.4870    2.7410    0.1220 C.3     1  UNL1        0.1270
      2  C          6.1970    3.7330    0.9150 C.2     1  UNL1        0.3030
      3  O          6.2730    3.7480    2.1440 O.2     1  UNL1       -0.2520
      4  O          6.8520    4.7630    0.2210 O.3     1  UNL1       -0.4810
      5  H          6.3680    5.6470    0.1760 H       1  UNL1        0.2960
      6  C          5.4530    1.3960    0.7350 C.3     1  UNL1        0.0470
      7  C          6.2710    0.3500    0.1160 C.2     1  UNL1       -0.0430
      8  C          6.4940    0.3180   -1.2520 C.2     1  UNL1        0.0080
      9  C          6.8100   -0.6560    0.8730 C.2     1  UNL1        0.0540
     10  C          7.2320   -0.6850   -1.8390 C.2     1  UNL1        0.0510
     11  C          7.5550   -1.6730    0.3060 C.2     1  UNL1        0.1660
     12  C          7.7690   -1.6910   -1.0510 C.2     1  UNL1        0.1650
     13  O          8.1850   -2.7710    0.8640 O.2     1  UNL1       -0.4540
     14  O          8.5420   -2.8210   -1.3220 O.2     1  UNL1       -0.4540
     15  C          8.5470   -3.6690   -0.1970 C.3     1  UNL1        0.4680
@<TRIPOS>BOND
     1    10     8    1
     2    10    12    2
     3    14    12    1
     4    14    15    1
     5     8     7    2
     6    12    11    1
     7    15    13    1
     8     7     6    1
     9     7     9    1
    10     1     6    1
    11     1     2    1
    12     5     4    1
    13     4     2    1
    14    11    13    1
    15    11     9    2
    16     2     3    2
