@<TRIPOS>MOLECULE
/home/cewinharhar/GITHUB/reincatalyze/data/processed/docking_pred/2023-May-17-1006_maxeplen10_maxtrainstep1000_seadep16_gamma099_lrac9e-4_lrcr1e-3_sub6/31638bda67923b1bb66f4f033a77b51352de91e4_ligand_6.pdbqt
 15 16 0 0 0
SMALL
GASTEIGER

@<TRIPOS>ATOM
      1  C          4.6910    1.8570    0.6780 C.3     1  UNL1        0.1270
      2  C          4.3990    1.1580    1.9190 C.2     1  UNL1        0.3030
      3  O          5.1350    0.3380    2.4710 O.2     1  UNL1       -0.2520
      4  O          3.1740    1.4400    2.5450 O.3     1  UNL1       -0.4810
      5  H          2.4580    0.7350    2.4610 H       1  UNL1        0.2960
      6  C          6.1120    2.2330    0.5210 C.3     1  UNL1        0.0470
      7  C          6.9720    1.3270   -0.2440 C.2     1  UNL1       -0.0430
      8  C          8.3320    1.5580   -0.3770 C.2     1  UNL1        0.0080
      9  C          6.4450    0.2370   -0.8850 C.2     1  UNL1        0.0540
     10  C          9.1350    0.7270   -1.1250 C.2     1  UNL1        0.0510
     11  C          7.2320   -0.6110   -1.6410 C.2     1  UNL1        0.1660
     12  C          8.5790   -0.3700   -1.7640 C.2     1  UNL1        0.1650
     13  O          6.9230   -1.7510   -2.3630 O.2     1  UNL1       -0.4540
     14  O          9.0970   -1.3800   -2.5750 O.2     1  UNL1       -0.4540
     15  C          8.0410   -2.0630   -3.2090 C.3     1  UNL1        0.4680
@<TRIPOS>BOND
     1    15    14    1
     2    15    13    1
     3    14    12    1
     4    13    11    1
     5    12    11    2
     6    12    10    1
     7    11     9    1
     8    10     8    2
     9     9     7    2
    10     8     7    1
    11     7     6    1
    12     6     1    1
    13     1     2    1
    14     2     3    2
    15     2     4    1
    16     5     4    1
