@<TRIPOS>MOLECULE
/home/cewinharhar/GITHUB/reincatalyze/data/processed/docking_pred/2023-May-17-1006_maxeplen10_maxtrainstep1000_seadep16_gamma099_lrac9e-4_lrcr1e-3_sub6/31de0aabf4a391366091aaa04775d5537fef7eaf_ligand_6.pdbqt
 15 16 0 0 0
SMALL
GASTEIGER

@<TRIPOS>ATOM
      1  C          5.4120    2.8700    0.1270 C.3     1  UNL1        0.1270
      2  C          6.2390    3.8520    0.8100 C.2     1  UNL1        0.3030
      3  O          6.8780    4.7540    0.2660 O.2     1  UNL1       -0.2520
      4  O          6.3180    3.7680    2.2090 O.3     1  UNL1       -0.4810
      5  H          7.1500    3.3390    2.5830 H       1  UNL1        0.2960
      6  C          5.3400    1.5630    0.8160 C.3     1  UNL1        0.0470
      7  C          6.1230    0.4590    0.2560 C.2     1  UNL1       -0.0430
      8  C          6.5780   -0.5820    1.0500 C.2     1  UNL1        0.0080
      9  C          6.4630    0.4440   -1.0710 C.2     1  UNL1        0.0540
     10  C          7.3440   -1.6020    0.5320 C.2     1  UNL1        0.0510
     11  C          7.2310   -0.5690   -1.6130 C.2     1  UNL1        0.1660
     12  C          7.6740   -1.5960   -0.8140 C.2     1  UNL1        0.1650
     13  O          7.6880   -0.7870   -2.9010 O.2     1  UNL1       -0.4540
     14  O          8.4130   -2.4520   -1.6310 O.2     1  UNL1       -0.4540
     15  C          8.6950   -1.8090   -2.8530 C.3     1  UNL1        0.4680
@<TRIPOS>BOND
     1    13    15    1
     2    13    11    1
     3    15    14    1
     4    14    12    1
     5    11     9    1
     6    11    12    2
     7     9     7    2
     8    12    10    1
     9     1     2    1
    10     1     6    1
    11     7     6    1
    12     7     8    1
    13     3     2    2
    14    10     8    2
    15     2     4    1
    16     4     5    1
