MODEL 1
REMARK VINA RESULT:      -7.7      0.000      0.000
REMARK SMILES O=C(O)CCc1ccc2c(c1)OCO2
REMARK SMILES IDX 4 1 2 2 1 3 3 4 5 6 6 7 7 8 11 9 8 10 10 11 9 12 12 13 14 14
REMARK SMILES IDX 13 15
REMARK H PARENT 3 5
REMARK Flexibility Score: inf
ROOT
ATOM      1  C   UNL     1       5.412   2.870   0.127  1.00  0.00     0.127 C 
ENDROOT
BRANCH   1   2
ATOM      2  C   UNL     1       6.239   3.852   0.810  1.00  0.00     0.303 C 
ATOM      3  O   UNL     1       6.878   4.754   0.266  1.00  0.00    -0.252 OA
BRANCH   2   4
ATOM      4  O   UNL     1       6.318   3.768   2.209  1.00  0.00    -0.481 OA
ATOM      5  H   UNL     1       7.150   3.339   2.583  1.00  0.00     0.296 HD
ENDBRANCH   2   4
ENDBRANCH   1   2
BRANCH   1   6
ATOM      6  C   UNL     1       5.340   1.563   0.816  1.00  0.00     0.047 C 
BRANCH   6   7
ATOM      7  C   UNL     1       6.123   0.459   0.256  1.00  0.00    -0.043 A 
ATOM      8  C   UNL     1       6.578  -0.582   1.050  1.00  0.00     0.008 A 
ATOM      9  C   UNL     1       6.463   0.444  -1.071  1.00  0.00     0.054 A 
ATOM     10  C   UNL     1       7.344  -1.602   0.532  1.00  0.00     0.051 A 
ATOM     11  C   UNL     1       7.231  -0.569  -1.613  1.00  0.00     0.166 A 
ATOM     12  C   UNL     1       7.674  -1.596  -0.814  1.00  0.00     0.165 A 
ATOM     13  O   UNL     1       7.688  -0.787  -2.901  1.00  0.00    -0.454 OA
ATOM     14  O   UNL     1       8.413  -2.452  -1.631  1.00  0.00    -0.454 OA
ATOM     15  C   UNL     1       8.695  -1.809  -2.853  1.00  0.00     0.468 C 
ENDBRANCH   6   7
ENDBRANCH   1   6
TORSDOF 4
ENDMDL
MODEL 2
REMARK VINA RESULT:      -7.6      2.128      2.523
REMARK SMILES O=C(O)CCc1ccc2c(c1)OCO2
REMARK SMILES IDX 4 1 2 2 1 3 3 4 5 6 6 7 7 8 11 9 8 10 10 11 9 12 12 13 14 14
REMARK SMILES IDX 13 15
REMARK H PARENT 3 5
REMARK Flexibility Score: inf
ROOT
ATOM      1  C   UNL     1       4.689   1.864   0.676  1.00  0.00     0.127 C 
ENDROOT
BRANCH   1   2
ATOM      2  C   UNL     1       4.393   1.167   1.917  1.00  0.00     0.303 C 
ATOM      3  O   UNL     1       5.126   0.345   2.470  1.00  0.00    -0.252 OA
BRANCH   2   4
ATOM      4  O   UNL     1       3.169   1.452   2.541  1.00  0.00    -0.481 OA
ATOM      5  H   UNL     1       2.351   1.022   2.135  1.00  0.00     0.296 HD
ENDBRANCH   2   4
ENDBRANCH   1   2
BRANCH   1   6
ATOM      6  C   UNL     1       6.110   2.241   0.523  1.00  0.00     0.047 C 
BRANCH   6   7
ATOM      7  C   UNL     1       6.971   1.340  -0.247  1.00  0.00    -0.043 A 
ATOM      8  C   UNL     1       8.328   1.582  -0.393  1.00  0.00     0.008 A 
ATOM      9  C   UNL     1       6.447   0.245  -0.882  1.00  0.00     0.054 A 
ATOM     10  C   UNL     1       9.131   0.756  -1.146  1.00  0.00     0.051 A 
ATOM     11  C   UNL     1       7.234  -0.599  -1.643  1.00  0.00     0.166 A 
ATOM     12  C   UNL     1       8.578  -0.347  -1.777  1.00  0.00     0.165 A 
ATOM     13  O   UNL     1       6.929  -1.743  -2.359  1.00  0.00    -0.454 OA
ATOM     14  O   UNL     1       9.098  -1.355  -2.591  1.00  0.00    -0.454 OA
ATOM     15  C   UNL     1       8.041  -2.048  -3.214  1.00  0.00     0.468 C 
ENDBRANCH   6   7
ENDBRANCH   1   6
TORSDOF 4
ENDMDL
MODEL 3
REMARK VINA RESULT:      -7.5      1.989      2.969
REMARK SMILES O=C(O)CCc1ccc2c(c1)OCO2
REMARK SMILES IDX 4 1 2 2 1 3 3 4 5 6 6 7 7 8 11 9 8 10 10 11 9 12 12 13 14 14
REMARK SMILES IDX 13 15
REMARK H PARENT 3 5
REMARK Flexibility Score: inf
ROOT
ATOM      1  C   UNL     1       6.432   1.312   0.701  1.00  0.00     0.127 C 
ENDROOT
BRANCH   1   2
ATOM      2  C   UNL     1       5.286   1.143   1.580  1.00  0.00     0.303 C 
ATOM      3  O   UNL     1       5.173   0.280   2.453  1.00  0.00    -0.252 OA
BRANCH   2   4
ATOM      4  O   UNL     1       4.215   2.037   1.423  1.00  0.00    -0.481 OA
ATOM      5  H   UNL     1       3.866   2.153   0.484  1.00  0.00     0.296 HD
ENDBRANCH   2   4
ENDBRANCH   1   2
BRANCH   1   6
ATOM      6  C   UNL     1       6.206   0.833  -0.679  1.00  0.00     0.047 C 
BRANCH   6   7
ATOM      7  C   UNL     1       6.967  -0.338  -1.122  1.00  0.00    -0.043 A 
ATOM      8  C   UNL     1       7.268  -0.542  -2.460  1.00  0.00     0.008 A 
ATOM      9  C   UNL     1       7.373  -1.290  -0.225  1.00  0.00     0.054 A 
ATOM     10  C   UNL     1       7.952  -1.660  -2.883  1.00  0.00     0.051 A 
ATOM     11  C   UNL     1       8.062  -2.419  -0.626  1.00  0.00     0.166 A 
ATOM     12  C   UNL     1       8.353  -2.608  -1.955  1.00  0.00     0.165 A 
ATOM     13  O   UNL     1       8.562  -3.493   0.090  1.00  0.00    -0.454 OA
ATOM     14  O   UNL     1       9.043  -3.819  -2.048  1.00  0.00    -0.454 OA
ATOM     15  C   UNL     1       8.908  -4.530  -0.840  1.00  0.00     0.468 C 
ENDBRANCH   6   7
ENDBRANCH   1   6
TORSDOF 4
ENDMDL
MODEL 4
REMARK VINA RESULT:      -7.4      1.791      5.282
REMARK SMILES O=C(O)CCc1ccc2c(c1)OCO2
REMARK SMILES IDX 4 1 2 2 1 3 3 4 5 6 6 7 7 8 11 9 8 10 10 11 9 12 12 13 14 14
REMARK SMILES IDX 13 15
REMARK H PARENT 3 5
REMARK Flexibility Score: inf
ROOT
ATOM      1  C   UNL     1       8.313  -0.320  -2.837  1.00  0.00     0.127 C 
ENDROOT
BRANCH   1   2
ATOM      2  C   UNL     1       8.471  -1.748  -3.065  1.00  0.00     0.303 C 
ATOM      3  O   UNL     1       9.538  -2.365  -3.034  1.00  0.00    -0.252 OA
BRANCH   2   4
ATOM      4  O   UNL     1       7.312  -2.489  -3.344  1.00  0.00    -0.481 OA
ATOM      5  H   UNL     1       6.670  -2.078  -4.004  1.00  0.00     0.296 HD
ENDBRANCH   2   4
ENDBRANCH   1   2
BRANCH   1   6
ATOM      6  C   UNL     1       8.767   0.128  -1.503  1.00  0.00     0.047 C 
BRANCH   6   7
ATOM      7  C   UNL     1       7.794   0.093  -0.409  1.00  0.00    -0.043 A 
ATOM      8  C   UNL     1       7.741  -0.970   0.479  1.00  0.00     0.008 A 
ATOM      9  C   UNL     1       6.877   1.099  -0.255  1.00  0.00     0.054 A 
ATOM     10  C   UNL     1       6.803  -1.021   1.487  1.00  0.00     0.051 A 
ATOM     11  C   UNL     1       5.927   1.068   0.748  1.00  0.00     0.166 A 
ATOM     12  C   UNL     1       5.887   0.009   1.623  1.00  0.00     0.165 A 
ATOM     13  O   UNL     1       4.921   1.955   1.088  1.00  0.00    -0.454 OA
ATOM     14  O   UNL     1       4.838   0.257   2.509  1.00  0.00    -0.454 OA
ATOM     15  C   UNL     1       4.033   1.298   2.005  1.00  0.00     0.468 C 
ENDBRANCH   6   7
ENDBRANCH   1   6
TORSDOF 4
ENDMDL
MODEL 5
REMARK VINA RESULT:      -7.4      1.025      1.958
REMARK SMILES O=C(O)CCc1ccc2c(c1)OCO2
REMARK SMILES IDX 4 1 2 2 1 3 3 4 5 6 6 7 7 8 11 9 8 10 10 11 9 12 12 13 14 14
REMARK SMILES IDX 13 15
REMARK H PARENT 3 5
REMARK Flexibility Score: inf
ROOT
ATOM      1  C   UNL     1       5.411   2.445   0.316  1.00  0.00     0.127 C 
ENDROOT
BRANCH   1   2
ATOM      2  C   UNL     1       6.255   3.504   0.847  1.00  0.00     0.303 C 
ATOM      3  O   UNL     1       6.641   4.495   0.224  1.00  0.00    -0.252 OA
BRANCH   2   4
ATOM      4  O   UNL     1       6.667   3.390   2.184  1.00  0.00    -0.481 OA
ATOM      5  H   UNL     1       7.548   3.821   2.417  1.00  0.00     0.296 HD
ENDBRANCH   2   4
ENDBRANCH   1   2
BRANCH   1   6
ATOM      6  C   UNL     1       5.602   1.137   0.977  1.00  0.00     0.047 C 
BRANCH   6   7
ATOM      7  C   UNL     1       6.387   0.126   0.265  1.00  0.00    -0.043 A 
ATOM      8  C   UNL     1       6.500   0.137  -1.117  1.00  0.00     0.008 A 
ATOM      9  C   UNL     1       7.004  -0.890   0.946  1.00  0.00     0.054 A 
ATOM     10  C   UNL     1       7.207  -0.833  -1.791  1.00  0.00     0.051 A 
ATOM     11  C   UNL     1       7.720  -1.874   0.291  1.00  0.00     0.166 A 
ATOM     12  C   UNL     1       7.824  -1.849  -1.079  1.00  0.00     0.165 A 
ATOM     13  O   UNL     1       8.413  -2.974   0.763  1.00  0.00    -0.454 OA
ATOM     14  O   UNL     1       8.594  -2.954  -1.445  1.00  0.00    -0.454 OA
ATOM     15  C   UNL     1       8.705  -3.834  -0.349  1.00  0.00     0.468 C 
ENDBRANCH   6   7
ENDBRANCH   1   6
TORSDOF 4
ENDMDL
