@<TRIPOS>MOLECULE
/home/cewinharhar/GITHUB/reincatalyze/data/processed/docking_pred/2023-May-17-1006_maxeplen10_maxtrainstep1000_seadep16_gamma099_lrac9e-4_lrcr1e-3_sub6/31de0aabf4a391366091aaa04775d5537fef7eaf_ligand_6.pdbqt
 15 16 0 0 0
SMALL
GASTEIGER

@<TRIPOS>ATOM
      1  C          6.4320    1.3120    0.7010 C.3     1  UNL1        0.1270
      2  C          5.2860    1.1430    1.5800 C.2     1  UNL1        0.3030
      3  O          5.1730    0.2800    2.4530 O.2     1  UNL1       -0.2520
      4  O          4.2150    2.0370    1.4230 O.3     1  UNL1       -0.4810
      5  H          3.8660    2.1530    0.4840 H       1  UNL1        0.2960
      6  C          6.2060    0.8330   -0.6790 C.3     1  UNL1        0.0470
      7  C          6.9670   -0.3380   -1.1220 C.2     1  UNL1       -0.0430
      8  C          7.2680   -0.5420   -2.4600 C.2     1  UNL1        0.0080
      9  C          7.3730   -1.2900   -0.2250 C.2     1  UNL1        0.0540
     10  C          7.9520   -1.6600   -2.8830 C.2     1  UNL1        0.0510
     11  C          8.0620   -2.4190   -0.6260 C.2     1  UNL1        0.1660
     12  C          8.3530   -2.6080   -1.9550 C.2     1  UNL1        0.1650
     13  O          8.5620   -3.4930    0.0900 O.2     1  UNL1       -0.4540
     14  O          9.0430   -3.8190   -2.0480 O.2     1  UNL1       -0.4540
     15  C          8.9080   -4.5300   -0.8400 C.3     1  UNL1        0.4680
@<TRIPOS>BOND
     1    10     8    1
     2    10    12    2
     3     8     7    2
     4    14    12    1
     5    14    15    1
     6    12    11    1
     7     7     6    1
     8     7     9    1
     9    15    13    1
    10     6     1    1
    11    11     9    2
    12    11    13    1
    13     5     4    1
    14     1     2    1
    15     4     2    1
    16     2     3    2
