@<TRIPOS>MOLECULE
/home/cewinharhar/GITHUB/reincatalyze/data/processed/docking_pred/2023-May-17-1006_maxeplen10_maxtrainstep1000_seadep16_gamma099_lrac9e-4_lrcr1e-3_sub6/31de0aabf4a391366091aaa04775d5537fef7eaf_ligand_6.pdbqt
 15 16 0 0 0
SMALL
GASTEIGER

@<TRIPOS>ATOM
      1  C          8.3130   -0.3200   -2.8370 C.3     1  UNL1        0.1270
      2  C          8.4710   -1.7480   -3.0650 C.2     1  UNL1        0.3030
      3  O          9.5380   -2.3650   -3.0340 O.2     1  UNL1       -0.2520
      4  O          7.3120   -2.4890   -3.3440 O.3     1  UNL1       -0.4810
      5  H          6.6700   -2.0780   -4.0040 H       1  UNL1        0.2960
      6  C          8.7670    0.1280   -1.5030 C.3     1  UNL1        0.0470
      7  C          7.7940    0.0930   -0.4090 C.2     1  UNL1       -0.0430
      8  C          7.7410   -0.9700    0.4790 C.2     1  UNL1        0.0080
      9  C          6.8770    1.0990   -0.2550 C.2     1  UNL1        0.0540
     10  C          6.8030   -1.0210    1.4870 C.2     1  UNL1        0.0510
     11  C          5.9270    1.0680    0.7480 C.2     1  UNL1        0.1660
     12  C          5.8870    0.0090    1.6230 C.2     1  UNL1        0.1650
     13  O          4.9210    1.9550    1.0880 O.2     1  UNL1       -0.4540
     14  O          4.8380    0.2570    2.5090 O.2     1  UNL1       -0.4540
     15  C          4.0330    1.2980    2.0050 C.3     1  UNL1        0.4680
@<TRIPOS>BOND
     1     5     4    1
     2     4     2    1
     3     2     3    2
     4     2     1    1
     5     1     6    1
     6     6     7    1
     7     7     9    2
     8     7     8    1
     9     9    11    1
    10     8    10    2
    11    11    13    1
    12    11    12    2
    13    13    15    1
    14    10    12    1
    15    12    14    1
    16    15    14    1
