@<TRIPOS>MOLECULE
/home/cewinharhar/GITHUB/reincatalyze/data/processed/docking_pred/2023-May-17-1006_maxeplen10_maxtrainstep1000_seadep16_gamma099_lrac9e-4_lrcr1e-3_sub6/31de0aabf4a391366091aaa04775d5537fef7eaf_ligand_6.pdbqt
 15 16 0 0 0
SMALL
GASTEIGER

@<TRIPOS>ATOM
      1  C          4.6890    1.8640    0.6760 C.3     1  UNL1        0.1270
      2  C          4.3930    1.1670    1.9170 C.2     1  UNL1        0.3030
      3  O          5.1260    0.3450    2.4700 O.2     1  UNL1       -0.2520
      4  O          3.1690    1.4520    2.5410 O.3     1  UNL1       -0.4810
      5  H          2.3510    1.0220    2.1350 H       1  UNL1        0.2960
      6  C          6.1100    2.2410    0.5230 C.3     1  UNL1        0.0470
      7  C          6.9710    1.3400   -0.2470 C.2     1  UNL1       -0.0430
      8  C          8.3280    1.5820   -0.3930 C.2     1  UNL1        0.0080
      9  C          6.4470    0.2450   -0.8820 C.2     1  UNL1        0.0540
     10  C          9.1310    0.7560   -1.1460 C.2     1  UNL1        0.0510
     11  C          7.2340   -0.5990   -1.6430 C.2     1  UNL1        0.1660
     12  C          8.5780   -0.3470   -1.7770 C.2     1  UNL1        0.1650
     13  O          6.9290   -1.7430   -2.3590 O.2     1  UNL1       -0.4540
     14  O          9.0980   -1.3550   -2.5910 O.2     1  UNL1       -0.4540
     15  C          8.0410   -2.0480   -3.2140 C.3     1  UNL1        0.4680
@<TRIPOS>BOND
     1    15    14    1
     2    15    13    1
     3    14    12    1
     4    13    11    1
     5    12    11    2
     6    12    10    1
     7    11     9    1
     8    10     8    2
     9     9     7    2
    10     8     7    1
    11     7     6    1
    12     6     1    1
    13     1     2    1
    14     2     3    2
    15     2     4    1
    16     5     4    1
