@<TRIPOS>MOLECULE
/home/cewinharhar/GITHUB/reincatalyze/data/processed/docking_pred/2023-May-17-1006_maxeplen10_maxtrainstep1000_seadep16_gamma099_lrac9e-4_lrcr1e-3_sub6/31de0aabf4a391366091aaa04775d5537fef7eaf_ligand_6.pdbqt
 15 16 0 0 0
SMALL
GASTEIGER

@<TRIPOS>ATOM
      1  C          5.4110    2.4450    0.3160 C.3     1  UNL1        0.1270
      2  C          6.2550    3.5040    0.8470 C.2     1  UNL1        0.3030
      3  O          6.6410    4.4950    0.2240 O.2     1  UNL1       -0.2520
      4  O          6.6670    3.3900    2.1840 O.3     1  UNL1       -0.4810
      5  H          7.5480    3.8210    2.4170 H       1  UNL1        0.2960
      6  C          5.6020    1.1370    0.9770 C.3     1  UNL1        0.0470
      7  C          6.3870    0.1260    0.2650 C.2     1  UNL1       -0.0430
      8  C          6.5000    0.1370   -1.1170 C.2     1  UNL1        0.0080
      9  C          7.0040   -0.8900    0.9460 C.2     1  UNL1        0.0540
     10  C          7.2070   -0.8330   -1.7910 C.2     1  UNL1        0.0510
     11  C          7.7200   -1.8740    0.2910 C.2     1  UNL1        0.1660
     12  C          7.8240   -1.8490   -1.0790 C.2     1  UNL1        0.1650
     13  O          8.4130   -2.9740    0.7630 O.2     1  UNL1       -0.4540
     14  O          8.5940   -2.9540   -1.4450 O.2     1  UNL1       -0.4540
     15  C          8.7050   -3.8340   -0.3490 C.3     1  UNL1        0.4680
@<TRIPOS>BOND
     1    10     8    1
     2    10    12    2
     3    14    12    1
     4    14    15    1
     5     8     7    2
     6    12    11    1
     7    15    13    1
     8     3     2    2
     9     7     9    1
    10     7     6    1
    11    11    13    1
    12    11     9    2
    13     1     2    1
    14     1     6    1
    15     2     4    1
    16     4     5    1
