@<TRIPOS>MOLECULE
/home/cewinharhar/GITHUB/reincatalyze/data/processed/docking_pred/2023-May-17-1006_maxeplen10_maxtrainstep1000_seadep16_gamma099_lrac9e-4_lrcr1e-3_sub6/32925d028e6f827171d23f19599134de0355568e_ligand_6.pdbqt
 15 16 0 0 0
SMALL
GASTEIGER

@<TRIPOS>ATOM
      1  C          5.4150    2.8790    0.1160 C.3     1  UNL1        0.1270
      2  C          6.2370    3.8570    0.8110 C.2     1  UNL1        0.3030
      3  O          6.8690    4.7710    0.2780 O.2     1  UNL1       -0.2520
      4  O          6.3190    3.7520    2.2080 O.3     1  UNL1       -0.4810
      5  H          7.0890    4.2350    2.6460 H       1  UNL1        0.2960
      6  C          5.3430    1.5660    0.7920 C.3     1  UNL1        0.0470
      7  C          6.1240    0.4660    0.2200 C.2     1  UNL1       -0.0430
      8  C          6.5840   -0.5800    1.0050 C.2     1  UNL1        0.0080
      9  C          6.4570    0.4610   -1.1080 C.2     1  UNL1        0.0540
     10  C          7.3490   -1.5950    0.4760 C.2     1  UNL1        0.0510
     11  C          7.2240   -0.5480   -1.6610 C.2     1  UNL1        0.1660
     12  C          7.6720   -1.5790   -0.8710 C.2     1  UNL1        0.1650
     13  O          7.6740   -0.7570   -2.9520 O.2     1  UNL1       -0.4540
     14  O          8.4080   -2.4300   -1.6980 O.2     1  UNL1       -0.4540
     15  C          8.6820   -1.7790   -2.9170 C.3     1  UNL1        0.4680
@<TRIPOS>BOND
     1    13    15    1
     2    13    11    1
     3    15    14    1
     4    14    12    1
     5    11     9    1
     6    11    12    2
     7     9     7    2
     8    12    10    1
     9     1     6    1
    10     1     2    1
    11     7     6    1
    12     7     8    1
    13     3     2    2
    14    10     8    2
    15     2     4    1
    16     4     5    1
