@<TRIPOS>MOLECULE
/home/cewinharhar/GITHUB/reincatalyze/data/processed/docking_pred/2023-May-17-1006_maxeplen10_maxtrainstep1000_seadep16_gamma099_lrac9e-4_lrcr1e-3_sub6/32925d028e6f827171d23f19599134de0355568e_ligand_6.pdbqt
 15 16 0 0 0
SMALL
GASTEIGER

@<TRIPOS>ATOM
      1  C          4.7330    1.8670    0.6950 C.3     1  UNL1        0.1270
      2  C          4.4160    1.1530    1.9210 C.2     1  UNL1        0.3030
      3  O          5.1360    0.3170    2.4710 O.2     1  UNL1       -0.2520
      4  O          3.1850    1.4380    2.5330 O.3     1  UNL1       -0.4810
      5  H          2.5140    1.9400    1.9720 H       1  UNL1        0.2960
      6  C          6.1620    2.2180    0.5570 C.3     1  UNL1        0.0470
      7  C          7.0090    1.3160   -0.2270 C.2     1  UNL1       -0.0430
      8  C          8.3660    1.5500   -0.3860 C.2     1  UNL1        0.0080
      9  C          6.4720    0.2280   -0.8620 C.2     1  UNL1        0.0540
     10  C          9.1560    0.7230   -1.1520 C.2     1  UNL1        0.0510
     11  C          7.2450   -0.6170   -1.6360 C.2     1  UNL1        0.1660
     12  C          8.5890   -0.3730   -1.7840 C.2     1  UNL1        0.1650
     13  O          6.9240   -1.7550   -2.3560 O.2     1  UNL1       -0.4540
     14  O          9.0930   -1.3800   -2.6080 O.2     1  UNL1       -0.4540
     15  C          8.0260   -2.0620   -3.2240 C.3     1  UNL1        0.4680
@<TRIPOS>BOND
     1    15    14    1
     2    15    13    1
     3    14    12    1
     4    13    11    1
     5    12    11    2
     6    12    10    1
     7    11     9    1
     8    10     8    2
     9     9     7    2
    10     8     7    1
    11     7     6    1
    12     6     1    1
    13     1     2    1
    14     2     3    2
    15     2     4    1
    16     5     4    1
