@<TRIPOS>MOLECULE
/home/cewinharhar/GITHUB/reincatalyze/data/processed/docking_pred/2023-May-17-1006_maxeplen10_maxtrainstep1000_seadep16_gamma099_lrac9e-4_lrcr1e-3_sub6/32925d028e6f827171d23f19599134de0355568e_ligand_6.pdbqt
 15 16 0 0 0
SMALL
GASTEIGER

@<TRIPOS>ATOM
      1  C          8.2980   -0.3220   -2.8430 C.3     1  UNL1        0.1270
      2  C          8.4640   -1.7500   -3.0680 C.2     1  UNL1        0.3030
      3  O          9.5320   -2.3630   -3.0250 O.2     1  UNL1       -0.2520
      4  O          7.3110   -2.4950   -3.3590 O.3     1  UNL1       -0.4810
      5  H          6.4910   -1.9650   -3.6150 H       1  UNL1        0.2960
      6  C          8.7580    0.1330   -1.5140 C.3     1  UNL1        0.0470
      7  C          7.7910    0.1000   -0.4140 C.2     1  UNL1       -0.0430
      8  C          7.7470   -0.9580    0.4800 C.2     1  UNL1        0.0080
      9  C          6.8710    1.1030   -0.2610 C.2     1  UNL1        0.0540
     10  C          6.8150   -1.0080    1.4930 C.2     1  UNL1        0.0510
     11  C          5.9270    1.0750    0.7480 C.2     1  UNL1        0.1660
     12  C          5.8950    0.0200    1.6280 C.2     1  UNL1        0.1650
     13  O          4.9200    1.9600    1.0890 O.2     1  UNL1       -0.4540
     14  O          4.8500    0.2690    2.5190 O.2     1  UNL1       -0.4540
     15  C          4.0390    1.3050    2.0130 C.3     1  UNL1        0.4680
@<TRIPOS>BOND
     1     5     4    1
     2     4     2    1
     3     2     3    2
     4     2     1    1
     5     1     6    1
     6     6     7    1
     7     7     9    2
     8     7     8    1
     9     9    11    1
    10     8    10    2
    11    11    13    1
    12    11    12    2
    13    13    15    1
    14    10    12    1
    15    12    14    1
    16    15    14    1
