@<TRIPOS>MOLECULE
/home/cewinharhar/GITHUB/reincatalyze/data/processed/docking_pred/2023-May-17-1006_maxeplen10_maxtrainstep1000_seadep16_gamma099_lrac9e-4_lrcr1e-3_sub6/32925d028e6f827171d23f19599134de0355568e_ligand_6.pdbqt
 15 16 0 0 0
SMALL
GASTEIGER

@<TRIPOS>ATOM
      1  C          6.3990    1.3010    0.6730 C.3     1  UNL1        0.1270
      2  C          5.1860    1.2930    1.4750 C.2     1  UNL1        0.3030
      3  O          4.2430    2.0780    1.3570 O.2     1  UNL1       -0.2520
      4  O          5.0760    0.3090    2.4700 O.3     1  UNL1       -0.4810
      5  H          5.5380   -0.5680    2.2810 H       1  UNL1        0.2960
      6  C          6.2060    0.8210   -0.7120 C.3     1  UNL1        0.0470
      7  C          6.9620   -0.3620   -1.1300 C.2     1  UNL1       -0.0430
      8  C          7.2590   -0.5970   -2.4630 C.2     1  UNL1        0.0080
      9  C          7.3660   -1.2950   -0.2130 C.2     1  UNL1        0.0540
     10  C          7.9380   -1.7270   -2.8620 C.2     1  UNL1        0.0510
     11  C          8.0490   -2.4360   -0.5900 C.2     1  UNL1        0.1660
     12  C          8.3380   -2.6560   -1.9150 C.2     1  UNL1        0.1650
     13  O          8.5470   -3.4950    0.1490 O.2     1  UNL1       -0.4540
     14  O          9.0230   -3.8700   -1.9820 O.2     1  UNL1       -0.4540
     15  C          8.8870   -4.5550   -0.7580 C.3     1  UNL1        0.4680
@<TRIPOS>BOND
     1    10     8    1
     2    10    12    2
     3     8     7    2
     4    14    12    1
     5    14    15    1
     6    12    11    1
     7     7     6    1
     8     7     9    1
     9    15    13    1
    10     6     1    1
    11    11     9    2
    12    11    13    1
    13     1     2    1
    14     3     2    2
    15     2     4    1
    16     5     4    1
