@<TRIPOS>MOLECULE
/home/cewinharhar/GITHUB/reincatalyze/data/processed/docking_pred/2023-May-17-1006_maxeplen10_maxtrainstep1000_seadep16_gamma099_lrac9e-4_lrcr1e-3_sub6/32925d028e6f827171d23f19599134de0355568e_ligand_6.pdbqt
 15 16 0 0 0
SMALL
GASTEIGER

@<TRIPOS>ATOM
      1  C          5.7760    2.5690   -0.1000 C.3     1  UNL1        0.1270
      2  C          6.2250    3.6240    0.7960 C.2     1  UNL1        0.3030
      3  O          6.1210    3.6140    2.0230 O.2     1  UNL1       -0.2520
      4  O          6.8290    4.7500    0.2140 O.3     1  UNL1       -0.4810
      5  H          7.7890    4.6410   -0.0750 H       1  UNL1        0.2960
      6  C          5.7150    1.2330    0.5290 C.3     1  UNL1        0.0470
      7  C          6.4810    0.1540   -0.0980 C.2     1  UNL1       -0.0430
      8  C          6.6080    0.0600   -1.4750 C.2     1  UNL1        0.0080
      9  C          7.0670   -0.8230    0.6630 C.2     1  UNL1        0.0540
     10  C          7.2980   -0.9740   -2.0680 C.2     1  UNL1        0.0510
     11  C          7.7640   -1.8700    0.0910 C.2     1  UNL1        0.1660
     12  C          7.8830   -1.9490   -1.2760 C.2     1  UNL1        0.1650
     13  O          8.4260   -2.9480    0.6510 O.2     1  UNL1       -0.4540
     14  O          8.6290   -3.0960   -1.5500 O.2     1  UNL1       -0.4540
     15  C          8.7070   -3.8940   -0.3910 C.3     1  UNL1        0.4680
@<TRIPOS>BOND
     1    10     8    1
     2    10    12    2
     3    14    12    1
     4    14    15    1
     5     8     7    2
     6    12    11    1
     7    15    13    1
     8     1     6    1
     9     1     2    1
    10     7     6    1
    11     7     9    1
    12     5     4    1
    13    11    13    1
    14    11     9    2
    15     4     2    1
    16     2     3    2
