MODEL 1
REMARK VINA RESULT:      -7.7      0.000      0.000
REMARK SMILES O=C(O)CCc1ccc2c(c1)OCO2
REMARK SMILES IDX 4 1 2 2 1 3 3 4 5 6 6 7 7 8 11 9 8 10 10 11 9 12 12 13 14 14
REMARK SMILES IDX 13 15
REMARK H PARENT 3 5
REMARK Flexibility Score: inf
ROOT
ATOM      1  C   UNL     1       5.415   2.879   0.116  1.00  0.00     0.127 C 
ENDROOT
BRANCH   1   2
ATOM      2  C   UNL     1       6.237   3.857   0.811  1.00  0.00     0.303 C 
ATOM      3  O   UNL     1       6.869   4.771   0.278  1.00  0.00    -0.252 OA
BRANCH   2   4
ATOM      4  O   UNL     1       6.319   3.752   2.208  1.00  0.00    -0.481 OA
ATOM      5  H   UNL     1       7.089   4.235   2.646  1.00  0.00     0.296 HD
ENDBRANCH   2   4
ENDBRANCH   1   2
BRANCH   1   6
ATOM      6  C   UNL     1       5.343   1.566   0.792  1.00  0.00     0.047 C 
BRANCH   6   7
ATOM      7  C   UNL     1       6.124   0.466   0.220  1.00  0.00    -0.043 A 
ATOM      8  C   UNL     1       6.584  -0.580   1.005  1.00  0.00     0.008 A 
ATOM      9  C   UNL     1       6.457   0.461  -1.108  1.00  0.00     0.054 A 
ATOM     10  C   UNL     1       7.349  -1.595   0.476  1.00  0.00     0.051 A 
ATOM     11  C   UNL     1       7.224  -0.548  -1.661  1.00  0.00     0.166 A 
ATOM     12  C   UNL     1       7.672  -1.579  -0.871  1.00  0.00     0.165 A 
ATOM     13  O   UNL     1       7.674  -0.757  -2.952  1.00  0.00    -0.454 OA
ATOM     14  O   UNL     1       8.408  -2.430  -1.698  1.00  0.00    -0.454 OA
ATOM     15  C   UNL     1       8.682  -1.779  -2.917  1.00  0.00     0.468 C 
ENDBRANCH   6   7
ENDBRANCH   1   6
TORSDOF 4
ENDMDL
MODEL 2
REMARK VINA RESULT:      -7.6      2.121      2.515
REMARK SMILES O=C(O)CCc1ccc2c(c1)OCO2
REMARK SMILES IDX 4 1 2 2 1 3 3 4 5 6 6 7 7 8 11 9 8 10 10 11 9 12 12 13 14 14
REMARK SMILES IDX 13 15
REMARK H PARENT 3 5
REMARK Flexibility Score: inf
ROOT
ATOM      1  C   UNL     1       4.733   1.867   0.695  1.00  0.00     0.127 C 
ENDROOT
BRANCH   1   2
ATOM      2  C   UNL     1       4.416   1.153   1.921  1.00  0.00     0.303 C 
ATOM      3  O   UNL     1       5.136   0.317   2.471  1.00  0.00    -0.252 OA
BRANCH   2   4
ATOM      4  O   UNL     1       3.185   1.438   2.533  1.00  0.00    -0.481 OA
ATOM      5  H   UNL     1       2.514   1.940   1.972  1.00  0.00     0.296 HD
ENDBRANCH   2   4
ENDBRANCH   1   2
BRANCH   1   6
ATOM      6  C   UNL     1       6.162   2.218   0.557  1.00  0.00     0.047 C 
BRANCH   6   7
ATOM      7  C   UNL     1       7.009   1.316  -0.227  1.00  0.00    -0.043 A 
ATOM      8  C   UNL     1       8.366   1.550  -0.386  1.00  0.00     0.008 A 
ATOM      9  C   UNL     1       6.472   0.228  -0.862  1.00  0.00     0.054 A 
ATOM     10  C   UNL     1       9.156   0.723  -1.152  1.00  0.00     0.051 A 
ATOM     11  C   UNL     1       7.245  -0.617  -1.636  1.00  0.00     0.166 A 
ATOM     12  C   UNL     1       8.589  -0.373  -1.784  1.00  0.00     0.165 A 
ATOM     13  O   UNL     1       6.924  -1.755  -2.356  1.00  0.00    -0.454 OA
ATOM     14  O   UNL     1       9.093  -1.380  -2.608  1.00  0.00    -0.454 OA
ATOM     15  C   UNL     1       8.026  -2.062  -3.224  1.00  0.00     0.468 C 
ENDBRANCH   6   7
ENDBRANCH   1   6
TORSDOF 4
ENDMDL
MODEL 3
REMARK VINA RESULT:      -7.5      1.984      2.891
REMARK SMILES O=C(O)CCc1ccc2c(c1)OCO2
REMARK SMILES IDX 4 1 2 2 1 3 3 4 5 6 6 7 7 8 11 9 8 10 10 11 9 12 12 13 14 14
REMARK SMILES IDX 13 15
REMARK H PARENT 3 5
REMARK Flexibility Score: inf
ROOT
ATOM      1  C   UNL     1       6.399   1.301   0.673  1.00  0.00     0.127 C 
ENDROOT
BRANCH   1   2
ATOM      2  C   UNL     1       5.186   1.293   1.475  1.00  0.00     0.303 C 
ATOM      3  O   UNL     1       4.243   2.078   1.357  1.00  0.00    -0.252 OA
BRANCH   2   4
ATOM      4  O   UNL     1       5.076   0.309   2.470  1.00  0.00    -0.481 OA
ATOM      5  H   UNL     1       5.538  -0.568   2.281  1.00  0.00     0.296 HD
ENDBRANCH   2   4
ENDBRANCH   1   2
BRANCH   1   6
ATOM      6  C   UNL     1       6.206   0.821  -0.712  1.00  0.00     0.047 C 
BRANCH   6   7
ATOM      7  C   UNL     1       6.962  -0.362  -1.130  1.00  0.00    -0.043 A 
ATOM      8  C   UNL     1       7.259  -0.597  -2.463  1.00  0.00     0.008 A 
ATOM      9  C   UNL     1       7.366  -1.295  -0.213  1.00  0.00     0.054 A 
ATOM     10  C   UNL     1       7.938  -1.727  -2.862  1.00  0.00     0.051 A 
ATOM     11  C   UNL     1       8.049  -2.436  -0.590  1.00  0.00     0.166 A 
ATOM     12  C   UNL     1       8.338  -2.656  -1.915  1.00  0.00     0.165 A 
ATOM     13  O   UNL     1       8.547  -3.495   0.149  1.00  0.00    -0.454 OA
ATOM     14  O   UNL     1       9.023  -3.870  -1.982  1.00  0.00    -0.454 OA
ATOM     15  C   UNL     1       8.887  -4.555  -0.758  1.00  0.00     0.468 C 
ENDBRANCH   6   7
ENDBRANCH   1   6
TORSDOF 4
ENDMDL
MODEL 4
REMARK VINA RESULT:      -7.4      1.794      5.293
REMARK SMILES O=C(O)CCc1ccc2c(c1)OCO2
REMARK SMILES IDX 4 1 2 2 1 3 3 4 5 6 6 7 7 8 11 9 8 10 10 11 9 12 12 13 14 14
REMARK SMILES IDX 13 15
REMARK H PARENT 3 5
REMARK Flexibility Score: inf
ROOT
ATOM      1  C   UNL     1       8.298  -0.322  -2.843  1.00  0.00     0.127 C 
ENDROOT
BRANCH   1   2
ATOM      2  C   UNL     1       8.464  -1.750  -3.068  1.00  0.00     0.303 C 
ATOM      3  O   UNL     1       9.532  -2.363  -3.025  1.00  0.00    -0.252 OA
BRANCH   2   4
ATOM      4  O   UNL     1       7.311  -2.495  -3.359  1.00  0.00    -0.481 OA
ATOM      5  H   UNL     1       6.491  -1.965  -3.615  1.00  0.00     0.296 HD
ENDBRANCH   2   4
ENDBRANCH   1   2
BRANCH   1   6
ATOM      6  C   UNL     1       8.758   0.133  -1.514  1.00  0.00     0.047 C 
BRANCH   6   7
ATOM      7  C   UNL     1       7.791   0.100  -0.414  1.00  0.00    -0.043 A 
ATOM      8  C   UNL     1       7.747  -0.958   0.480  1.00  0.00     0.008 A 
ATOM      9  C   UNL     1       6.871   1.103  -0.261  1.00  0.00     0.054 A 
ATOM     10  C   UNL     1       6.815  -1.008   1.493  1.00  0.00     0.051 A 
ATOM     11  C   UNL     1       5.927   1.075   0.748  1.00  0.00     0.166 A 
ATOM     12  C   UNL     1       5.895   0.020   1.628  1.00  0.00     0.165 A 
ATOM     13  O   UNL     1       4.920   1.960   1.089  1.00  0.00    -0.454 OA
ATOM     14  O   UNL     1       4.850   0.269   2.519  1.00  0.00    -0.454 OA
ATOM     15  C   UNL     1       4.039   1.305   2.013  1.00  0.00     0.468 C 
ENDBRANCH   6   7
ENDBRANCH   1   6
TORSDOF 4
ENDMDL
MODEL 5
REMARK VINA RESULT:      -7.4      1.064      2.153
REMARK SMILES O=C(O)CCc1ccc2c(c1)OCO2
REMARK SMILES IDX 4 1 2 2 1 3 3 4 5 6 6 7 7 8 11 9 8 10 10 11 9 12 12 13 14 14
REMARK SMILES IDX 13 15
REMARK H PARENT 3 5
REMARK Flexibility Score: inf
ROOT
ATOM      1  C   UNL     1       5.776   2.569  -0.100  1.00  0.00     0.127 C 
ENDROOT
BRANCH   1   2
ATOM      2  C   UNL     1       6.225   3.624   0.796  1.00  0.00     0.303 C 
ATOM      3  O   UNL     1       6.121   3.614   2.023  1.00  0.00    -0.252 OA
BRANCH   2   4
ATOM      4  O   UNL     1       6.829   4.750   0.214  1.00  0.00    -0.481 OA
ATOM      5  H   UNL     1       7.789   4.641  -0.075  1.00  0.00     0.296 HD
ENDBRANCH   2   4
ENDBRANCH   1   2
BRANCH   1   6
ATOM      6  C   UNL     1       5.715   1.233   0.529  1.00  0.00     0.047 C 
BRANCH   6   7
ATOM      7  C   UNL     1       6.481   0.154  -0.098  1.00  0.00    -0.043 A 
ATOM      8  C   UNL     1       6.608   0.060  -1.475  1.00  0.00     0.008 A 
ATOM      9  C   UNL     1       7.067  -0.823   0.663  1.00  0.00     0.054 A 
ATOM     10  C   UNL     1       7.298  -0.974  -2.068  1.00  0.00     0.051 A 
ATOM     11  C   UNL     1       7.764  -1.870   0.091  1.00  0.00     0.166 A 
ATOM     12  C   UNL     1       7.883  -1.949  -1.276  1.00  0.00     0.165 A 
ATOM     13  O   UNL     1       8.426  -2.948   0.651  1.00  0.00    -0.454 OA
ATOM     14  O   UNL     1       8.629  -3.096  -1.550  1.00  0.00    -0.454 OA
ATOM     15  C   UNL     1       8.707  -3.894  -0.391  1.00  0.00     0.468 C 
ENDBRANCH   6   7
ENDBRANCH   1   6
TORSDOF 4
ENDMDL
