@<TRIPOS>MOLECULE
/home/cewinharhar/GITHUB/reincatalyze/data/processed/docking_pred/2023-May-17-1006_maxeplen10_maxtrainstep1000_seadep16_gamma099_lrac9e-4_lrcr1e-3_sub6/354626f0a3e222b5e9865005b72eb67019ec4e19_ligand_6.pdbqt
 15 16 0 0 0
SMALL
GASTEIGER

@<TRIPOS>ATOM
      1  C          5.3750    2.8910    0.1220 C.3     1  UNL1        0.1270
      2  C          6.2080    3.8680    0.8050 C.2     1  UNL1        0.3030
      3  O          6.8430    4.7740    0.2610 O.2     1  UNL1       -0.2520
      4  O          6.2980    3.7740    2.2020 O.3     1  UNL1       -0.4810
      5  H          6.9510    4.4000    2.6490 H       1  UNL1        0.2960
      6  C          5.3000    1.5830    0.8080 C.3     1  UNL1        0.0470
      7  C          6.0800    0.4780    0.2450 C.2     1  UNL1       -0.0430
      8  C          6.5230   -0.5720    1.0350 C.2     1  UNL1        0.0080
      9  C          6.4300    0.4710   -1.0790 C.2     1  UNL1        0.0540
     10  C          7.2870   -1.5930    0.5150 C.2     1  UNL1        0.0510
     11  C          7.1950   -0.5430   -1.6230 C.2     1  UNL1        0.1660
     12  C          7.6270   -1.5780   -0.8280 C.2     1  UNL1        0.1650
     13  O          7.6600   -0.7550   -2.9090 O.2     1  UNL1       -0.4540
     14  O          8.3660   -2.4330   -1.6470 O.2     1  UNL1       -0.4540
     15  C          8.6610   -1.7830   -2.8620 C.3     1  UNL1        0.4680
@<TRIPOS>BOND
     1    13    15    1
     2    13    11    1
     3    15    14    1
     4    14    12    1
     5    11     9    1
     6    11    12    2
     7     9     7    2
     8    12    10    1
     9     1     2    1
    10     1     6    1
    11     7     6    1
    12     7     8    1
    13     3     2    2
    14    10     8    2
    15     2     4    1
    16     4     5    1
