@<TRIPOS>MOLECULE
/home/cewinharhar/GITHUB/reincatalyze/data/processed/docking_pred/2023-May-17-1006_maxeplen10_maxtrainstep1000_seadep16_gamma099_lrac9e-4_lrcr1e-3_sub6/354626f0a3e222b5e9865005b72eb67019ec4e19_ligand_6.pdbqt
 15 16 0 0 0
SMALL
GASTEIGER

@<TRIPOS>ATOM
      1  C          6.3780    1.3190    0.6580 C.3     1  UNL1        0.1270
      2  C          5.1770    1.2900    1.4780 C.2     1  UNL1        0.3030
      3  O          4.2250    2.0670    1.3840 O.2     1  UNL1       -0.2520
      4  O          5.0930    0.2910    2.4610 O.3     1  UNL1       -0.4810
      5  H          5.1300    0.6050    3.4190 H       1  UNL1        0.2960
      6  C          6.1800    0.8120   -0.7160 C.3     1  UNL1        0.0470
      7  C          6.9490   -0.3670   -1.1210 C.2     1  UNL1       -0.0430
      8  C          7.2710   -0.6020   -2.4490 C.2     1  UNL1        0.0080
      9  C          7.3420   -1.2980   -0.1960 C.2     1  UNL1        0.0540
     10  C          7.9630   -1.7280   -2.8350 C.2     1  UNL1        0.0510
     11  C          8.0370   -2.4350   -0.5600 C.2     1  UNL1        0.1660
     12  C          8.3500   -2.6540   -1.8800 C.2     1  UNL1        0.1650
     13  O          8.5270   -3.4910    0.1880 O.2     1  UNL1       -0.4540
     14  O          9.0420   -3.8650   -1.9340 O.2     1  UNL1       -0.4540
     15  C          8.8900   -4.5490   -0.7120 C.3     1  UNL1        0.4680
@<TRIPOS>BOND
     1    10     8    1
     2    10    12    2
     3     8     7    2
     4    14    12    1
     5    14    15    1
     6    12    11    1
     7     7     6    1
     8     7     9    1
     9     6     1    1
    10    15    13    1
    11    11     9    2
    12    11    13    1
    13     1     2    1
    14     3     2    2
    15     2     4    1
    16     4     5    1
