MODEL 1
REMARK VINA RESULT:      -7.7      0.000      0.000
REMARK SMILES O=C(O)CCc1ccc2c(c1)OCO2
REMARK SMILES IDX 4 1 2 2 1 3 3 4 5 6 6 7 7 8 11 9 8 10 10 11 9 12 12 13 14 14
REMARK SMILES IDX 13 15
REMARK H PARENT 3 5
REMARK Flexibility Score: inf
ROOT
ATOM      1  C   UNL     1       5.375   2.891   0.122  1.00  0.00     0.127 C 
ENDROOT
BRANCH   1   2
ATOM      2  C   UNL     1       6.208   3.868   0.805  1.00  0.00     0.303 C 
ATOM      3  O   UNL     1       6.843   4.774   0.261  1.00  0.00    -0.252 OA
BRANCH   2   4
ATOM      4  O   UNL     1       6.298   3.774   2.202  1.00  0.00    -0.481 OA
ATOM      5  H   UNL     1       6.951   4.400   2.649  1.00  0.00     0.296 HD
ENDBRANCH   2   4
ENDBRANCH   1   2
BRANCH   1   6
ATOM      6  C   UNL     1       5.300   1.583   0.808  1.00  0.00     0.047 C 
BRANCH   6   7
ATOM      7  C   UNL     1       6.080   0.478   0.245  1.00  0.00    -0.043 A 
ATOM      8  C   UNL     1       6.523  -0.572   1.035  1.00  0.00     0.008 A 
ATOM      9  C   UNL     1       6.430   0.471  -1.079  1.00  0.00     0.054 A 
ATOM     10  C   UNL     1       7.287  -1.593   0.515  1.00  0.00     0.051 A 
ATOM     11  C   UNL     1       7.195  -0.543  -1.623  1.00  0.00     0.166 A 
ATOM     12  C   UNL     1       7.627  -1.578  -0.828  1.00  0.00     0.165 A 
ATOM     13  O   UNL     1       7.660  -0.755  -2.909  1.00  0.00    -0.454 OA
ATOM     14  O   UNL     1       8.366  -2.433  -1.647  1.00  0.00    -0.454 OA
ATOM     15  C   UNL     1       8.661  -1.783  -2.862  1.00  0.00     0.468 C 
ENDBRANCH   6   7
ENDBRANCH   1   6
TORSDOF 4
ENDMDL
MODEL 2
REMARK VINA RESULT:      -7.6      2.127      2.512
REMARK SMILES O=C(O)CCc1ccc2c(c1)OCO2
REMARK SMILES IDX 4 1 2 2 1 3 3 4 5 6 6 7 7 8 11 9 8 10 10 11 9 12 12 13 14 14
REMARK SMILES IDX 13 15
REMARK H PARENT 3 5
REMARK Flexibility Score: inf
ROOT
ATOM      1  C   UNL     1       4.676   1.870   0.685  1.00  0.00     0.127 C 
ENDROOT
BRANCH   1   2
ATOM      2  C   UNL     1       4.401   1.150   1.918  1.00  0.00     0.303 C 
ATOM      3  O   UNL     1       5.148   0.327   2.450  1.00  0.00    -0.252 OA
BRANCH   2   4
ATOM      4  O   UNL     1       3.179   1.411   2.559  1.00  0.00    -0.481 OA
ATOM      5  H   UNL     1       3.024   2.365   2.848  1.00  0.00     0.296 HD
ENDBRANCH   2   4
ENDBRANCH   1   2
BRANCH   1   6
ATOM      6  C   UNL     1       6.095   2.247   0.514  1.00  0.00     0.047 C 
BRANCH   6   7
ATOM      7  C   UNL     1       6.953   1.331  -0.242  1.00  0.00    -0.043 A 
ATOM      8  C   UNL     1       8.319   1.539  -0.348  1.00  0.00     0.008 A 
ATOM      9  C   UNL     1       6.418   0.257  -0.903  1.00  0.00     0.054 A 
ATOM     10  C   UNL     1       9.121   0.699  -1.088  1.00  0.00     0.051 A 
ATOM     11  C   UNL     1       7.204  -0.599  -1.651  1.00  0.00     0.166 A 
ATOM     12  C   UNL     1       8.557  -0.382  -1.747  1.00  0.00     0.165 A 
ATOM     13  O   UNL     1       6.888  -1.727  -2.389  1.00  0.00    -0.454 OA
ATOM     14  O   UNL     1       9.072  -1.395  -2.557  1.00  0.00    -0.454 OA
ATOM     15  C   UNL     1       8.015  -2.053  -3.217  1.00  0.00     0.468 C 
ENDBRANCH   6   7
ENDBRANCH   1   6
TORSDOF 4
ENDMDL
MODEL 3
REMARK VINA RESULT:      -7.5      1.987      2.905
REMARK SMILES O=C(O)CCc1ccc2c(c1)OCO2
REMARK SMILES IDX 4 1 2 2 1 3 3 4 5 6 6 7 7 8 11 9 8 10 10 11 9 12 12 13 14 14
REMARK SMILES IDX 13 15
REMARK H PARENT 3 5
REMARK Flexibility Score: inf
ROOT
ATOM      1  C   UNL     1       6.378   1.319   0.658  1.00  0.00     0.127 C 
ENDROOT
BRANCH   1   2
ATOM      2  C   UNL     1       5.177   1.290   1.478  1.00  0.00     0.303 C 
ATOM      3  O   UNL     1       4.225   2.067   1.384  1.00  0.00    -0.252 OA
BRANCH   2   4
ATOM      4  O   UNL     1       5.093   0.291   2.461  1.00  0.00    -0.481 OA
ATOM      5  H   UNL     1       5.130   0.605   3.419  1.00  0.00     0.296 HD
ENDBRANCH   2   4
ENDBRANCH   1   2
BRANCH   1   6
ATOM      6  C   UNL     1       6.180   0.812  -0.716  1.00  0.00     0.047 C 
BRANCH   6   7
ATOM      7  C   UNL     1       6.949  -0.367  -1.121  1.00  0.00    -0.043 A 
ATOM      8  C   UNL     1       7.271  -0.602  -2.449  1.00  0.00     0.008 A 
ATOM      9  C   UNL     1       7.342  -1.298  -0.196  1.00  0.00     0.054 A 
ATOM     10  C   UNL     1       7.963  -1.728  -2.835  1.00  0.00     0.051 A 
ATOM     11  C   UNL     1       8.037  -2.435  -0.560  1.00  0.00     0.166 A 
ATOM     12  C   UNL     1       8.350  -2.654  -1.880  1.00  0.00     0.165 A 
ATOM     13  O   UNL     1       8.527  -3.491   0.188  1.00  0.00    -0.454 OA
ATOM     14  O   UNL     1       9.042  -3.865  -1.934  1.00  0.00    -0.454 OA
ATOM     15  C   UNL     1       8.890  -4.549  -0.712  1.00  0.00     0.468 C 
ENDBRANCH   6   7
ENDBRANCH   1   6
TORSDOF 4
ENDMDL
MODEL 4
REMARK VINA RESULT:      -7.4      1.793      5.285
REMARK SMILES O=C(O)CCc1ccc2c(c1)OCO2
REMARK SMILES IDX 4 1 2 2 1 3 3 4 5 6 6 7 7 8 11 9 8 10 10 11 9 12 12 13 14 14
REMARK SMILES IDX 13 15
REMARK H PARENT 3 5
REMARK Flexibility Score: inf
ROOT
ATOM      1  C   UNL     1       8.309  -0.325  -2.867  1.00  0.00     0.127 C 
ENDROOT
BRANCH   1   2
ATOM      2  C   UNL     1       8.472  -1.754  -3.082  1.00  0.00     0.303 C 
ATOM      3  O   UNL     1       9.540  -2.368  -3.044  1.00  0.00    -0.252 OA
BRANCH   2   4
ATOM      4  O   UNL     1       7.315  -2.500  -3.356  1.00  0.00    -0.481 OA
ATOM      5  H   UNL     1       6.540  -1.991  -3.752  1.00  0.00     0.296 HD
ENDBRANCH   2   4
ENDBRANCH   1   2
BRANCH   1   6
ATOM      6  C   UNL     1       8.761   0.138  -1.537  1.00  0.00     0.047 C 
BRANCH   6   7
ATOM      7  C   UNL     1       7.791   0.097  -0.441  1.00  0.00    -0.043 A 
ATOM      8  C   UNL     1       7.733  -0.976   0.435  1.00  0.00     0.008 A 
ATOM      9  C   UNL     1       6.881   1.107  -0.272  1.00  0.00     0.054 A 
ATOM     10  C   UNL     1       6.798  -1.033   1.445  1.00  0.00     0.051 A 
ATOM     11  C   UNL     1       5.935   1.071   0.734  1.00  0.00     0.166 A 
ATOM     12  C   UNL     1       5.889   0.002   1.596  1.00  0.00     0.165 A 
ATOM     13  O   UNL     1       4.936   1.961   1.088  1.00  0.00    -0.454 OA
ATOM     14  O   UNL     1       4.844   0.247   2.488  1.00  0.00    -0.454 OA
ATOM     15  C   UNL     1       4.045   1.300   1.999  1.00  0.00     0.468 C 
ENDBRANCH   6   7
ENDBRANCH   1   6
TORSDOF 4
ENDMDL
