@<TRIPOS>MOLECULE
/home/cewinharhar/GITHUB/reincatalyze/data/processed/docking_pred/2023-May-17-1006_maxeplen10_maxtrainstep1000_seadep16_gamma099_lrac9e-4_lrcr1e-3_sub6/354626f0a3e222b5e9865005b72eb67019ec4e19_ligand_6.pdbqt
 15 16 0 0 0
SMALL
GASTEIGER

@<TRIPOS>ATOM
      1  C          4.6760    1.8700    0.6850 C.3     1  UNL1        0.1270
      2  C          4.4010    1.1500    1.9180 C.2     1  UNL1        0.3030
      3  O          5.1480    0.3270    2.4500 O.2     1  UNL1       -0.2520
      4  O          3.1790    1.4110    2.5590 O.3     1  UNL1       -0.4810
      5  H          3.0240    2.3650    2.8480 H       1  UNL1        0.2960
      6  C          6.0950    2.2470    0.5140 C.3     1  UNL1        0.0470
      7  C          6.9530    1.3310   -0.2420 C.2     1  UNL1       -0.0430
      8  C          8.3190    1.5390   -0.3480 C.2     1  UNL1        0.0080
      9  C          6.4180    0.2570   -0.9030 C.2     1  UNL1        0.0540
     10  C          9.1210    0.6990   -1.0880 C.2     1  UNL1        0.0510
     11  C          7.2040   -0.5990   -1.6510 C.2     1  UNL1        0.1660
     12  C          8.5570   -0.3820   -1.7470 C.2     1  UNL1        0.1650
     13  O          6.8880   -1.7270   -2.3890 O.2     1  UNL1       -0.4540
     14  O          9.0720   -1.3950   -2.5570 O.2     1  UNL1       -0.4540
     15  C          8.0150   -2.0530   -3.2170 C.3     1  UNL1        0.4680
@<TRIPOS>BOND
     1    15    14    1
     2    15    13    1
     3    14    12    1
     4    13    11    1
     5    12    11    2
     6    12    10    1
     7    11     9    1
     8    10     8    2
     9     9     7    2
    10     8     7    1
    11     7     6    1
    12     6     1    1
    13     1     2    1
    14     2     3    2
    15     2     4    1
    16     4     5    1
