@<TRIPOS>MOLECULE
/home/cewinharhar/GITHUB/reincatalyze/data/processed/docking_pred/2023-May-17-1006_maxeplen10_maxtrainstep1000_seadep16_gamma099_lrac9e-4_lrcr1e-3_sub6/354626f0a3e222b5e9865005b72eb67019ec4e19_ligand_6.pdbqt
 15 16 0 0 0
SMALL
GASTEIGER

@<TRIPOS>ATOM
      1  C          5.6330    2.5150    0.0730 C.3     1  UNL1        0.1270
      2  C          6.1770    3.6200    0.8470 C.2     1  UNL1        0.3030
      3  O          6.1740    3.7040    2.0770 O.2     1  UNL1       -0.2520
      4  O          6.7540    4.6830    0.1350 O.3     1  UNL1       -0.4810
      5  H          6.1860    5.0940   -0.5900 H       1  UNL1        0.2960
      6  C          5.7280    1.2040    0.7500 C.3     1  UNL1        0.0470
      7  C          6.4810    0.1450    0.0750 C.2     1  UNL1       -0.0430
      8  C          6.5730    0.0910   -1.3080 C.2     1  UNL1        0.0080
      9  C          7.0870   -0.8500    0.7930 C.2     1  UNL1        0.0540
     10  C          7.2500   -0.9250   -1.9460 C.2     1  UNL1        0.0510
     11  C          7.7730   -1.8790    0.1750 C.2     1  UNL1        0.1660
     12  C          7.8570   -1.9190   -1.1960 C.2     1  UNL1        0.1650
     13  O          8.4510   -2.9700    0.6880 O.2     1  UNL1       -0.4540
     14  O          8.5990   -3.0560   -1.5210 O.2     1  UNL1       -0.4540
     15  C          8.7080   -3.8860   -0.3870 C.3     1  UNL1        0.4680
@<TRIPOS>BOND
     1    10     8    1
     2    10    12    2
     3    14    12    1
     4    14    15    1
     5     8     7    2
     6    12    11    1
     7     5     4    1
     8    15    13    1
     9     1     6    1
    10     1     2    1
    11     7     6    1
    12     7     9    1
    13     4     2    1
    14    11    13    1
    15    11     9    2
    16     2     3    2
