@<TRIPOS>MOLECULE
/home/cewinharhar/GITHUB/reincatalyze/data/processed/docking_pred/2023-May-17-1006_maxeplen10_maxtrainstep1000_seadep16_gamma099_lrac9e-4_lrcr1e-3_sub6/354626f0a3e222b5e9865005b72eb67019ec4e19_ligand_6.pdbqt
 15 16 0 0 0
SMALL
GASTEIGER

@<TRIPOS>ATOM
      1  C          8.3090   -0.3250   -2.8670 C.3     1  UNL1        0.1270
      2  C          8.4720   -1.7540   -3.0820 C.2     1  UNL1        0.3030
      3  O          9.5400   -2.3680   -3.0440 O.2     1  UNL1       -0.2520
      4  O          7.3150   -2.5000   -3.3560 O.3     1  UNL1       -0.4810
      5  H          6.5400   -1.9910   -3.7520 H       1  UNL1        0.2960
      6  C          8.7610    0.1380   -1.5370 C.3     1  UNL1        0.0470
      7  C          7.7910    0.0970   -0.4410 C.2     1  UNL1       -0.0430
      8  C          7.7330   -0.9760    0.4350 C.2     1  UNL1        0.0080
      9  C          6.8810    1.1070   -0.2720 C.2     1  UNL1        0.0540
     10  C          6.7980   -1.0330    1.4450 C.2     1  UNL1        0.0510
     11  C          5.9350    1.0710    0.7340 C.2     1  UNL1        0.1660
     12  C          5.8890    0.0020    1.5960 C.2     1  UNL1        0.1650
     13  O          4.9360    1.9610    1.0880 O.2     1  UNL1       -0.4540
     14  O          4.8440    0.2470    2.4880 O.2     1  UNL1       -0.4540
     15  C          4.0450    1.3000    1.9990 C.3     1  UNL1        0.4680
@<TRIPOS>BOND
     1     5     4    1
     2     4     2    1
     3     2     3    2
     4     2     1    1
     5     1     6    1
     6     6     7    1
     7     7     9    2
     8     7     8    1
     9     9    11    1
    10     8    10    2
    11    11    13    1
    12    11    12    2
    13    13    15    1
    14    10    12    1
    15    12    14    1
    16    15    14    1
