@<TRIPOS>MOLECULE
/home/cewinharhar/GITHUB/reincatalyze/data/processed/docking_pred/2023-May-17-1006_maxeplen10_maxtrainstep1000_seadep16_gamma099_lrac9e-4_lrcr1e-3_sub6/36543b95c0c748273319382419c31c9b55863a9a_ligand_6.pdbqt
 15 16 0 0 0
SMALL
GASTEIGER

@<TRIPOS>ATOM
      1  C          6.4660    1.2460    0.8050 C.3     1  UNL1        0.1270
      2  C          5.2380    1.1580    1.5790 C.2     1  UNL1        0.3030
      3  O          4.9950    0.3190    2.4480 O.2     1  UNL1       -0.2520
      4  O          4.2400    2.1100    1.3140 O.3     1  UNL1       -0.4810
      5  H          3.8310    2.0820    0.3930 H       1  UNL1        0.2960
      6  C          6.3150    0.8470   -0.6100 C.3     1  UNL1        0.0470
      7  C          7.0310   -0.3500   -1.0570 C.2     1  UNL1       -0.0430
      8  C          7.2770   -0.5880   -2.4000 C.2     1  UNL1        0.0080
      9  C          7.4470   -1.2940   -0.1560 C.2     1  UNL1        0.0540
     10  C          7.9180   -1.7310   -2.8240 C.2     1  UNL1        0.0510
     11  C          8.0930   -2.4480   -0.5590 C.2     1  UNL1        0.1660
     12  C          8.3310   -2.6700   -1.8930 C.2     1  UNL1        0.1650
     13  O          8.5940   -3.5190    0.1600 O.2     1  UNL1       -0.4540
     14  O          8.9880   -3.8980   -1.9860 O.2     1  UNL1       -0.4540
     15  C          8.8810   -4.5830   -0.7600 C.3     1  UNL1        0.4680
@<TRIPOS>BOND
     1    10     8    1
     2    10    12    2
     3     8     7    2
     4    14    12    1
     5    14    15    1
     6    12    11    1
     7     7     6    1
     8     7     9    1
     9    15    13    1
    10     6     1    1
    11    11     9    2
    12    11    13    1
    13     5     4    1
    14     1     2    1
    15     4     2    1
    16     2     3    2
