@<TRIPOS>MOLECULE
/home/cewinharhar/GITHUB/reincatalyze/data/processed/docking_pred/2023-May-17-1006_maxeplen10_maxtrainstep1000_seadep16_gamma099_lrac9e-4_lrcr1e-3_sub6/36543b95c0c748273319382419c31c9b55863a9a_ligand_6.pdbqt
 15 16 0 0 0
SMALL
GASTEIGER

@<TRIPOS>ATOM
      1  C          8.3050   -0.3180   -2.8330 C.3     1  UNL1        0.1270
      2  C          8.4660   -1.7460   -3.0590 C.2     1  UNL1        0.3030
      3  O          9.5320   -2.3620   -3.0200 O.2     1  UNL1       -0.2520
      4  O          7.3090   -2.4870   -3.3460 O.3     1  UNL1       -0.4810
      5  H          6.7340   -2.1420   -4.0990 H       1  UNL1        0.2960
      6  C          8.7590    0.1340   -1.5010 C.3     1  UNL1        0.0470
      7  C          7.7850    0.1030   -0.4070 C.2     1  UNL1       -0.0430
      8  C          7.7330   -0.9550    0.4870 C.2     1  UNL1        0.0080
      9  C          6.8670    1.1090   -0.2590 C.2     1  UNL1        0.0540
     10  C          6.7940   -1.0020    1.4940 C.2     1  UNL1        0.0510
     11  C          5.9170    1.0830    0.7440 C.2     1  UNL1        0.1660
     12  C          5.8770    0.0280    1.6240 C.2     1  UNL1        0.1650
     13  O          4.9100    1.9710    1.0790 O.2     1  UNL1       -0.4540
     14  O          4.8270    0.2800    2.5080 O.2     1  UNL1       -0.4540
     15  C          4.0210    1.3170    1.9980 C.3     1  UNL1        0.4680
@<TRIPOS>BOND
     1     5     4    1
     2     4     2    1
     3     2     3    2
     4     2     1    1
     5     1     6    1
     6     6     7    1
     7     7     9    2
     8     7     8    1
     9     9    11    1
    10     8    10    2
    11    11    13    1
    12    11    12    2
    13    13    15    1
    14    10    12    1
    15    12    14    1
    16    15    14    1
