@<TRIPOS>MOLECULE
/home/cewinharhar/GITHUB/reincatalyze/data/processed/docking_pred/2023-May-17-1006_maxeplen10_maxtrainstep1000_seadep16_gamma099_lrac9e-4_lrcr1e-3_sub6/36543b95c0c748273319382419c31c9b55863a9a_ligand_6.pdbqt
 15 16 0 0 0
SMALL
GASTEIGER

@<TRIPOS>ATOM
      1  C          4.7250    1.8590    0.7110 C.3     1  UNL1        0.1270
      2  C          4.4150    1.1350    1.9340 C.2     1  UNL1        0.3030
      3  O          5.1400    0.2970    2.4750 O.2     1  UNL1       -0.2520
      4  O          3.1860    1.4110    2.5540 O.3     1  UNL1       -0.4810
      5  H          2.6540    0.6130    2.8630 H       1  UNL1        0.2960
      6  C          6.1530    2.2110    0.5680 C.3     1  UNL1        0.0470
      7  C          6.9980    1.3090   -0.2180 C.2     1  UNL1       -0.0430
      8  C          8.3570    1.5360   -0.3690 C.2     1  UNL1        0.0080
      9  C          6.4570    0.2290   -0.8640 C.2     1  UNL1        0.0540
     10  C          9.1460    0.7090   -1.1370 C.2     1  UNL1        0.0510
     11  C          7.2290   -0.6150   -1.6400 C.2     1  UNL1        0.1660
     12  C          8.5760   -0.3780   -1.7790 C.2     1  UNL1        0.1650
     13  O          6.9050   -1.7460   -2.3690 O.2     1  UNL1       -0.4540
     14  O          9.0780   -1.3830   -2.6080 O.2     1  UNL1       -0.4540
     15  C          8.0090   -2.0540   -3.2340 C.3     1  UNL1        0.4680
@<TRIPOS>BOND
     1    15    14    1
     2    15    13    1
     3    14    12    1
     4    13    11    1
     5    12    11    2
     6    12    10    1
     7    11     9    1
     8    10     8    2
     9     9     7    2
    10     8     7    1
    11     7     6    1
    12     6     1    1
    13     1     2    1
    14     2     3    2
    15     2     4    1
    16     4     5    1
