@<TRIPOS>MOLECULE
/home/cewinharhar/GITHUB/reincatalyze/data/processed/docking_pred/2023-May-17-1006_maxeplen10_maxtrainstep1000_seadep16_gamma099_lrac9e-4_lrcr1e-3_sub6/36543b95c0c748273319382419c31c9b55863a9a_ligand_6.pdbqt
 15 16 0 0 0
SMALL
GASTEIGER

@<TRIPOS>ATOM
      1  C          5.4700    2.4710    0.2480 C.3     1  UNL1        0.1270
      2  C          6.1770    3.6230    0.7850 C.2     1  UNL1        0.3030
      3  O          6.6780    4.5310    0.1200 O.2     1  UNL1       -0.2520
      4  O          6.2990    3.7100    2.1810 O.3     1  UNL1       -0.4810
      5  H          7.1830    3.4190    2.5690 H       1  UNL1        0.2960
      6  C          5.7490    1.2080    0.9640 C.3     1  UNL1        0.0470
      7  C          6.4870    0.1690    0.2430 C.2     1  UNL1       -0.0430
      8  C          6.5630    0.1620   -1.1420 C.2     1  UNL1        0.0080
      9  C          7.0960   -0.8540    0.9190 C.2     1  UNL1        0.0540
     10  C          7.2260   -0.8340   -1.8230 C.2     1  UNL1        0.0510
     11  C          7.7680   -1.8640    0.2570 C.2     1  UNL1        0.1660
     12  C          7.8360   -1.8580   -1.1160 C.2     1  UNL1        0.1650
     13  O          8.4450   -2.9770    0.7230 O.2     1  UNL1       -0.4540
     14  O          8.5670   -2.9870   -1.4890 O.2     1  UNL1       -0.4540
     15  C          8.6840   -3.8560   -0.3860 C.3     1  UNL1        0.4680
@<TRIPOS>BOND
     1    10     8    1
     2    10    12    2
     3    14    12    1
     4    14    15    1
     5     8     7    2
     6    12    11    1
     7    15    13    1
     8     3     2    2
     9     7     9    1
    10     7     6    1
    11     1     2    1
    12     1     6    1
    13    11    13    1
    14    11     9    2
    15     2     4    1
    16     4     5    1
