@<TRIPOS>MOLECULE
/home/cewinharhar/GITHUB/reincatalyze/data/processed/docking_pred/2023-May-17-1006_maxeplen10_maxtrainstep1000_seadep16_gamma099_lrac9e-4_lrcr1e-3_sub6/367438b83e07ec58543242b49c62b5ced391bd04_ligand_6.pdbqt
 15 16 0 0 0
SMALL
GASTEIGER

@<TRIPOS>ATOM
      1  C          6.3860    1.3420    0.6640 C.3     1  UNL1        0.1270
      2  C          5.1950    1.2730    1.4970 C.2     1  UNL1        0.3030
      3  O          4.2230    2.0250    1.4210 O.2     1  UNL1       -0.2520
      4  O          5.1480    0.2630    2.4710 O.3     1  UNL1       -0.4810
      5  H          4.5120   -0.4980    2.2930 H       1  UNL1        0.2960
      6  C          6.1840    0.8450   -0.7140 C.3     1  UNL1        0.0470
      7  C          6.9510   -0.3320   -1.1280 C.2     1  UNL1       -0.0430
      8  C          7.2690   -0.5580   -2.4590 C.2     1  UNL1        0.0080
      9  C          7.3450   -1.2690   -0.2110 C.2     1  UNL1        0.0540
     10  C          7.9580   -1.6820   -2.8550 C.2     1  UNL1        0.0510
     11  C          8.0390   -2.4050   -0.5850 C.2     1  UNL1        0.1660
     12  C          8.3480   -2.6150   -1.9070 C.2     1  UNL1        0.1650
     13  O          8.5300   -3.4660    0.1540 O.2     1  UNL1       -0.4540
     14  O          9.0390   -3.8260   -1.9720 O.2     1  UNL1       -0.4540
     15  C          8.8890   -4.5190   -0.7540 C.3     1  UNL1        0.4680
@<TRIPOS>BOND
     1    10     8    1
     2    10    12    2
     3     8     7    2
     4    14    12    1
     5    14    15    1
     6    12    11    1
     7     7     6    1
     8     7     9    1
     9    15    13    1
    10     6     1    1
    11    11     9    2
    12    11    13    1
    13     1     2    1
    14     3     2    2
    15     2     4    1
    16     5     4    1
