MODEL 1
REMARK VINA RESULT:      -7.6      0.000      0.000
REMARK SMILES O=C(O)CCc1ccc2c(c1)OCO2
REMARK SMILES IDX 4 1 2 2 1 3 3 4 5 6 6 7 7 8 11 9 8 10 10 11 9 12 12 13 14 14
REMARK SMILES IDX 13 15
REMARK H PARENT 3 5
REMARK Flexibility Score: inf
ROOT
ATOM      1  C   UNL     1       5.403   2.873   0.107  1.00  0.00     0.127 C 
ENDROOT
BRANCH   1   2
ATOM      2  C   UNL     1       6.217   3.828   0.843  1.00  0.00     0.303 C 
ATOM      3  O   UNL     1       6.833   4.775   0.350  1.00  0.00    -0.252 OA
BRANCH   2   4
ATOM      4  O   UNL     1       6.311   3.658   2.233  1.00  0.00    -0.481 OA
ATOM      5  H   UNL     1       5.773   2.901   2.626  1.00  0.00     0.296 HD
ENDBRANCH   2   4
ENDBRANCH   1   2
BRANCH   1   6
ATOM      6  C   UNL     1       5.279   1.556   0.767  1.00  0.00     0.047 C 
BRANCH   6   7
ATOM      7  C   UNL     1       6.073   0.450   0.227  1.00  0.00    -0.043 A 
ATOM      8  C   UNL     1       6.501  -0.595   1.030  1.00  0.00     0.008 A 
ATOM      9  C   UNL     1       6.452   0.438  -1.090  1.00  0.00     0.054 A 
ATOM     10  C   UNL     1       7.279  -1.617   0.532  1.00  0.00     0.051 A 
ATOM     11  C   UNL     1       7.231  -0.577  -1.612  1.00  0.00     0.166 A 
ATOM     12  C   UNL     1       7.647  -1.607  -0.804  1.00  0.00     0.165 A 
ATOM     13  O   UNL     1       7.724  -0.793  -2.887  1.00  0.00    -0.454 OA
ATOM     14  O   UNL     1       8.406  -2.464  -1.602  1.00  0.00    -0.454 OA
ATOM     15  C   UNL     1       8.725  -1.819  -2.813  1.00  0.00     0.468 C 
ENDBRANCH   6   7
ENDBRANCH   1   6
TORSDOF 4
ENDMDL
MODEL 2
REMARK VINA RESULT:      -7.6      2.128      2.523
REMARK SMILES O=C(O)CCc1ccc2c(c1)OCO2
REMARK SMILES IDX 4 1 2 2 1 3 3 4 5 6 6 7 7 8 11 9 8 10 10 11 9 12 12 13 14 14
REMARK SMILES IDX 13 15
REMARK H PARENT 3 5
REMARK Flexibility Score: inf
ROOT
ATOM      1  C   UNL     1       4.721   1.840   0.705  1.00  0.00     0.127 C 
ENDROOT
BRANCH   1   2
ATOM      2  C   UNL     1       4.414   1.124   1.933  1.00  0.00     0.303 C 
ATOM      3  O   UNL     1       5.141   0.290   2.477  1.00  0.00    -0.252 OA
BRANCH   2   4
ATOM      4  O   UNL     1       3.187   1.405   2.554  1.00  0.00    -0.481 OA
ATOM      5  H   UNL     1       2.636   2.139   2.138  1.00  0.00     0.296 HD
ENDBRANCH   2   4
ENDBRANCH   1   2
BRANCH   1   6
ATOM      6  C   UNL     1       6.148   2.197   0.558  1.00  0.00     0.047 C 
BRANCH   6   7
ATOM      7  C   UNL     1       6.994   1.296  -0.227  1.00  0.00    -0.043 A 
ATOM      8  C   UNL     1       8.356   1.516  -0.363  1.00  0.00     0.008 A 
ATOM      9  C   UNL     1       6.453   0.224  -0.886  1.00  0.00     0.054 A 
ATOM     10  C   UNL     1       9.147   0.690  -1.131  1.00  0.00     0.051 A 
ATOM     11  C   UNL     1       7.227  -0.619  -1.661  1.00  0.00     0.166 A 
ATOM     12  C   UNL     1       8.576  -0.389  -1.786  1.00  0.00     0.165 A 
ATOM     13  O   UNL     1       6.903  -1.741  -2.402  1.00  0.00    -0.454 OA
ATOM     14  O   UNL     1       9.079  -1.390  -2.619  1.00  0.00    -0.454 OA
ATOM     15  C   UNL     1       8.012  -2.050  -3.260  1.00  0.00     0.468 C 
ENDBRANCH   6   7
ENDBRANCH   1   6
TORSDOF 4
ENDMDL
MODEL 3
REMARK VINA RESULT:      -7.5      1.968      2.863
REMARK SMILES O=C(O)CCc1ccc2c(c1)OCO2
REMARK SMILES IDX 4 1 2 2 1 3 3 4 5 6 6 7 7 8 11 9 8 10 10 11 9 12 12 13 14 14
REMARK SMILES IDX 13 15
REMARK H PARENT 3 5
REMARK Flexibility Score: inf
ROOT
ATOM      1  C   UNL     1       6.386   1.342   0.664  1.00  0.00     0.127 C 
ENDROOT
BRANCH   1   2
ATOM      2  C   UNL     1       5.195   1.273   1.497  1.00  0.00     0.303 C 
ATOM      3  O   UNL     1       4.223   2.025   1.421  1.00  0.00    -0.252 OA
BRANCH   2   4
ATOM      4  O   UNL     1       5.148   0.263   2.471  1.00  0.00    -0.481 OA
ATOM      5  H   UNL     1       4.512  -0.498   2.293  1.00  0.00     0.296 HD
ENDBRANCH   2   4
ENDBRANCH   1   2
BRANCH   1   6
ATOM      6  C   UNL     1       6.184   0.845  -0.714  1.00  0.00     0.047 C 
BRANCH   6   7
ATOM      7  C   UNL     1       6.951  -0.332  -1.128  1.00  0.00    -0.043 A 
ATOM      8  C   UNL     1       7.269  -0.558  -2.459  1.00  0.00     0.008 A 
ATOM      9  C   UNL     1       7.345  -1.269  -0.211  1.00  0.00     0.054 A 
ATOM     10  C   UNL     1       7.958  -1.682  -2.855  1.00  0.00     0.051 A 
ATOM     11  C   UNL     1       8.039  -2.405  -0.585  1.00  0.00     0.166 A 
ATOM     12  C   UNL     1       8.348  -2.615  -1.907  1.00  0.00     0.165 A 
ATOM     13  O   UNL     1       8.530  -3.466   0.154  1.00  0.00    -0.454 OA
ATOM     14  O   UNL     1       9.039  -3.826  -1.972  1.00  0.00    -0.454 OA
ATOM     15  C   UNL     1       8.889  -4.519  -0.754  1.00  0.00     0.468 C 
ENDBRANCH   6   7
ENDBRANCH   1   6
TORSDOF 4
ENDMDL
MODEL 4
REMARK VINA RESULT:      -7.5      1.808      5.257
REMARK SMILES O=C(O)CCc1ccc2c(c1)OCO2
REMARK SMILES IDX 4 1 2 2 1 3 3 4 5 6 6 7 7 8 11 9 8 10 10 11 9 12 12 13 14 14
REMARK SMILES IDX 13 15
REMARK H PARENT 3 5
REMARK Flexibility Score: inf
ROOT
ATOM      1  C   UNL     1       8.243  -0.202  -2.852  1.00  0.00     0.127 C 
ENDROOT
BRANCH   1   2
ATOM      2  C   UNL     1       8.491  -1.622  -3.048  1.00  0.00     0.303 C 
ATOM      3  O   UNL     1       9.585  -2.181  -2.942  1.00  0.00    -0.252 OA
BRANCH   2   4
ATOM      4  O   UNL     1       7.392  -2.427  -3.387  1.00  0.00    -0.481 OA
ATOM      5  H   UNL     1       7.399  -2.821  -4.315  1.00  0.00     0.296 HD
ENDBRANCH   2   4
ENDBRANCH   1   2
BRANCH   1   6
ATOM      6  C   UNL     1       8.696   0.311  -1.542  1.00  0.00     0.047 C 
BRANCH   6   7
ATOM      7  C   UNL     1       7.756   0.231  -0.422  1.00  0.00    -0.043 A 
ATOM      8  C   UNL     1       7.796  -0.818   0.484  1.00  0.00     0.008 A 
ATOM      9  C   UNL     1       6.779   1.177  -0.258  1.00  0.00     0.054 A 
ATOM     10  C   UNL     1       6.889  -0.914   1.517  1.00  0.00     0.051 A 
ATOM     11  C   UNL     1       5.860   1.102   0.771  1.00  0.00     0.166 A 
ATOM     12  C   UNL     1       5.912   0.057   1.661  1.00  0.00     0.165 A 
ATOM     13  O   UNL     1       4.807   1.928   1.124  1.00  0.00    -0.454 OA
ATOM     14  O   UNL     1       4.871   0.252   2.572  1.00  0.00    -0.454 OA
ATOM     15  C   UNL     1       3.987   1.229   2.074  1.00  0.00     0.468 C 
ENDBRANCH   6   7
ENDBRANCH   1   6
TORSDOF 4
ENDMDL
MODEL 5
REMARK VINA RESULT:      -7.5      0.954      2.110
REMARK SMILES O=C(O)CCc1ccc2c(c1)OCO2
REMARK SMILES IDX 4 1 2 2 1 3 3 4 5 6 6 7 7 8 11 9 8 10 10 11 9 12 12 13 14 14
REMARK SMILES IDX 13 15
REMARK H PARENT 3 5
REMARK Flexibility Score: inf
ROOT
ATOM      1  C   UNL     1       5.385   2.707   0.121  1.00  0.00     0.127 C 
ENDROOT
BRANCH   1   2
ATOM      2  C   UNL     1       6.117   3.708   0.881  1.00  0.00     0.303 C 
ATOM      3  O   UNL     1       6.200   3.757   2.110  1.00  0.00    -0.252 OA
BRANCH   2   4
ATOM      4  O   UNL     1       6.787   4.706   0.155  1.00  0.00    -0.481 OA
ATOM      5  H   UNL     1       6.533   4.796  -0.817  1.00  0.00     0.296 HD
ENDBRANCH   2   4
ENDBRANCH   1   2
BRANCH   1   6
ATOM      6  C   UNL     1       5.382   1.366   0.743  1.00  0.00     0.047 C 
BRANCH   6   7
ATOM      7  C   UNL     1       6.234   0.338   0.141  1.00  0.00    -0.043 A 
ATOM      8  C   UNL     1       6.518   0.336  -1.216  1.00  0.00     0.008 A 
ATOM      9  C   UNL     1       6.746  -0.680   0.901  1.00  0.00     0.054 A 
ATOM     10  C   UNL     1       7.290  -0.650  -1.790  1.00  0.00     0.051 A 
ATOM     11  C   UNL     1       7.524  -1.679   0.347  1.00  0.00     0.166 A 
ATOM     12  C   UNL     1       7.798  -1.668  -1.000  1.00  0.00     0.165 A 
ATOM     13  O   UNL     1       8.137  -2.785   0.910  1.00  0.00    -0.454 OA
ATOM     14  O   UNL     1       8.591  -2.787  -1.259  1.00  0.00    -0.454 OA
ATOM     15  C   UNL     1       8.552  -3.658  -0.152  1.00  0.00     0.468 C 
ENDBRANCH   6   7
ENDBRANCH   1   6
TORSDOF 4
ENDMDL
