@<TRIPOS>MOLECULE
/home/cewinharhar/GITHUB/reincatalyze/data/processed/docking_pred/2023-May-17-1006_maxeplen10_maxtrainstep1000_seadep16_gamma099_lrac9e-4_lrcr1e-3_sub6/367438b83e07ec58543242b49c62b5ced391bd04_ligand_6.pdbqt
 15 16 0 0 0
SMALL
GASTEIGER

@<TRIPOS>ATOM
      1  C          4.7210    1.8400    0.7050 C.3     1  UNL1        0.1270
      2  C          4.4140    1.1240    1.9330 C.2     1  UNL1        0.3030
      3  O          5.1410    0.2900    2.4770 O.2     1  UNL1       -0.2520
      4  O          3.1870    1.4050    2.5540 O.3     1  UNL1       -0.4810
      5  H          2.6360    2.1390    2.1380 H       1  UNL1        0.2960
      6  C          6.1480    2.1970    0.5580 C.3     1  UNL1        0.0470
      7  C          6.9940    1.2960   -0.2270 C.2     1  UNL1       -0.0430
      8  C          8.3560    1.5160   -0.3630 C.2     1  UNL1        0.0080
      9  C          6.4530    0.2240   -0.8860 C.2     1  UNL1        0.0540
     10  C          9.1470    0.6900   -1.1310 C.2     1  UNL1        0.0510
     11  C          7.2270   -0.6190   -1.6610 C.2     1  UNL1        0.1660
     12  C          8.5760   -0.3890   -1.7860 C.2     1  UNL1        0.1650
     13  O          6.9030   -1.7410   -2.4020 O.2     1  UNL1       -0.4540
     14  O          9.0790   -1.3900   -2.6190 O.2     1  UNL1       -0.4540
     15  C          8.0120   -2.0500   -3.2600 C.3     1  UNL1        0.4680
@<TRIPOS>BOND
     1    15    14    1
     2    15    13    1
     3    14    12    1
     4    13    11    1
     5    12    11    2
     6    12    10    1
     7    11     9    1
     8    10     8    2
     9     9     7    2
    10     8     7    1
    11     7     6    1
    12     6     1    1
    13     1     2    1
    14     2     3    2
    15     2     4    1
    16     5     4    1
