@<TRIPOS>MOLECULE
/home/cewinharhar/GITHUB/reincatalyze/data/processed/docking_pred/2023-May-17-1006_maxeplen10_maxtrainstep1000_seadep16_gamma099_lrac9e-4_lrcr1e-3_sub6/367438b83e07ec58543242b49c62b5ced391bd04_ligand_6.pdbqt
 15 16 0 0 0
SMALL
GASTEIGER

@<TRIPOS>ATOM
      1  C          5.3850    2.7070    0.1210 C.3     1  UNL1        0.1270
      2  C          6.1170    3.7080    0.8810 C.2     1  UNL1        0.3030
      3  O          6.2000    3.7570    2.1100 O.2     1  UNL1       -0.2520
      4  O          6.7870    4.7060    0.1550 O.3     1  UNL1       -0.4810
      5  H          6.5330    4.7960   -0.8170 H       1  UNL1        0.2960
      6  C          5.3820    1.3660    0.7430 C.3     1  UNL1        0.0470
      7  C          6.2340    0.3380    0.1410 C.2     1  UNL1       -0.0430
      8  C          6.5180    0.3360   -1.2160 C.2     1  UNL1        0.0080
      9  C          6.7460   -0.6800    0.9010 C.2     1  UNL1        0.0540
     10  C          7.2900   -0.6500   -1.7900 C.2     1  UNL1        0.0510
     11  C          7.5240   -1.6790    0.3470 C.2     1  UNL1        0.1660
     12  C          7.7980   -1.6680   -1.0000 C.2     1  UNL1        0.1650
     13  O          8.1370   -2.7850    0.9100 O.2     1  UNL1       -0.4540
     14  O          8.5910   -2.7870   -1.2590 O.2     1  UNL1       -0.4540
     15  C          8.5520   -3.6580   -0.1520 C.3     1  UNL1        0.4680
@<TRIPOS>BOND
     1    10     8    1
     2    10    12    2
     3    14    12    1
     4    14    15    1
     5     8     7    2
     6    12    11    1
     7     5     4    1
     8    15    13    1
     9     1     6    1
    10     1     2    1
    11     7     6    1
    12     7     9    1
    13     4     2    1
    14    11     9    2
    15    11    13    1
    16     2     3    2
