@<TRIPOS>MOLECULE
/home/cewinharhar/GITHUB/reincatalyze/data/processed/docking_pred/2023-May-17-1006_maxeplen10_maxtrainstep1000_seadep16_gamma099_lrac9e-4_lrcr1e-3_sub6/367438b83e07ec58543242b49c62b5ced391bd04_ligand_6.pdbqt
 15 16 0 0 0
SMALL
GASTEIGER

@<TRIPOS>ATOM
      1  C          5.4030    2.8730    0.1070 C.3     1  UNL1        0.1270
      2  C          6.2170    3.8280    0.8430 C.2     1  UNL1        0.3030
      3  O          6.8330    4.7750    0.3500 O.2     1  UNL1       -0.2520
      4  O          6.3110    3.6580    2.2330 O.3     1  UNL1       -0.4810
      5  H          5.7730    2.9010    2.6260 H       1  UNL1        0.2960
      6  C          5.2790    1.5560    0.7670 C.3     1  UNL1        0.0470
      7  C          6.0730    0.4500    0.2270 C.2     1  UNL1       -0.0430
      8  C          6.5010   -0.5950    1.0300 C.2     1  UNL1        0.0080
      9  C          6.4520    0.4380   -1.0900 C.2     1  UNL1        0.0540
     10  C          7.2790   -1.6170    0.5320 C.2     1  UNL1        0.0510
     11  C          7.2310   -0.5770   -1.6120 C.2     1  UNL1        0.1660
     12  C          7.6470   -1.6070   -0.8040 C.2     1  UNL1        0.1650
     13  O          7.7240   -0.7930   -2.8870 O.2     1  UNL1       -0.4540
     14  O          8.4060   -2.4640   -1.6020 O.2     1  UNL1       -0.4540
     15  C          8.7250   -1.8190   -2.8130 C.3     1  UNL1        0.4680
@<TRIPOS>BOND
     1    13    15    1
     2    13    11    1
     3    15    14    1
     4    11     9    1
     5    11    12    2
     6    14    12    1
     7     9     7    2
     8    12    10    1
     9     1     6    1
    10     1     2    1
    11     7     6    1
    12     7     8    1
    13     3     2    2
    14    10     8    2
    15     2     4    1
    16     4     5    1
