@<TRIPOS>MOLECULE
/home/cewinharhar/GITHUB/reincatalyze/data/processed/docking_pred/2023-May-17-1006_maxeplen10_maxtrainstep1000_seadep16_gamma099_lrac9e-4_lrcr1e-3_sub6/367438b83e07ec58543242b49c62b5ced391bd04_ligand_6.pdbqt
 15 16 0 0 0
SMALL
GASTEIGER

@<TRIPOS>ATOM
      1  C          8.2430   -0.2020   -2.8520 C.3     1  UNL1        0.1270
      2  C          8.4910   -1.6220   -3.0480 C.2     1  UNL1        0.3030
      3  O          9.5850   -2.1810   -2.9420 O.2     1  UNL1       -0.2520
      4  O          7.3920   -2.4270   -3.3870 O.3     1  UNL1       -0.4810
      5  H          7.3990   -2.8210   -4.3150 H       1  UNL1        0.2960
      6  C          8.6960    0.3110   -1.5420 C.3     1  UNL1        0.0470
      7  C          7.7560    0.2310   -0.4220 C.2     1  UNL1       -0.0430
      8  C          7.7960   -0.8180    0.4840 C.2     1  UNL1        0.0080
      9  C          6.7790    1.1770   -0.2580 C.2     1  UNL1        0.0540
     10  C          6.8890   -0.9140    1.5170 C.2     1  UNL1        0.0510
     11  C          5.8600    1.1020    0.7710 C.2     1  UNL1        0.1660
     12  C          5.9120    0.0570    1.6610 C.2     1  UNL1        0.1650
     13  O          4.8070    1.9280    1.1240 O.2     1  UNL1       -0.4540
     14  O          4.8710    0.2520    2.5720 O.2     1  UNL1       -0.4540
     15  C          3.9870    1.2290    2.0740 C.3     1  UNL1        0.4680
@<TRIPOS>BOND
     1     5     4    1
     2     4     2    1
     3     2     3    2
     4     2     1    1
     5     1     6    1
     6     6     7    1
     7     7     9    2
     8     7     8    1
     9     9    11    1
    10     8    10    2
    11    11    13    1
    12    11    12    2
    13    13    15    1
    14    10    12    1
    15    12    14    1
    16    15    14    1
