@<TRIPOS>MOLECULE
/home/cewinharhar/GITHUB/reincatalyze/data/processed/docking_pred/2023-May-17-1006_maxeplen10_maxtrainstep1000_seadep16_gamma099_lrac9e-4_lrcr1e-3_sub6/37a8b72800122466266a4bb22cdda1f56f02b914_ligand_6.pdbqt
 15 16 0 0 0
SMALL
GASTEIGER

@<TRIPOS>ATOM
      1  C          5.3770    2.8390    0.0800 C.3     1  UNL1        0.1270
      2  C          6.1120    3.8460    0.8290 C.2     1  UNL1        0.3030
      3  O          6.1300    3.9560    2.0570 O.2     1  UNL1       -0.2520
      4  O          6.8650    4.7750    0.0940 O.3     1  UNL1       -0.4810
      5  H          6.6690    5.7480    0.2720 H       1  UNL1        0.2960
      6  C          5.3630    1.5060    0.7210 C.3     1  UNL1        0.0470
      7  C          6.2070    0.4640    0.1340 C.2     1  UNL1       -0.0430
      8  C          6.4980    0.4440   -1.2220 C.2     1  UNL1        0.0080
      9  C          6.7040   -0.5520    0.9060 C.2     1  UNL1        0.0540
     10  C          7.2610   -0.5560   -1.7810 C.2     1  UNL1        0.0510
     11  C          7.4730   -1.5660    0.3670 C.2     1  UNL1        0.1660
     12  C          7.7550   -1.5710   -0.9780 C.2     1  UNL1        0.1650
     13  O          8.0710   -2.6720    0.9440 O.2     1  UNL1       -0.4540
     14  O          8.5370   -2.7010   -1.2220 O.2     1  UNL1       -0.4540
     15  C          8.4820   -3.5600   -0.1060 C.3     1  UNL1        0.4680
@<TRIPOS>BOND
     1    10     8    1
     2    10    12    2
     3     8     7    2
     4    14    12    1
     5    14    15    1
     6    12    11    1
     7    15    13    1
     8     1     6    1
     9     1     2    1
    10     4     5    1
    11     4     2    1
    12     7     6    1
    13     7     9    1
    14    11     9    2
    15    11    13    1
    16     2     3    2
