MODEL 1
REMARK VINA RESULT:      -7.6      0.000      0.000
REMARK SMILES O=C(O)CCc1ccc2c(c1)OCO2
REMARK SMILES IDX 4 1 2 2 1 3 3 4 5 6 6 7 7 8 11 9 8 10 10 11 9 12 12 13 14 14
REMARK SMILES IDX 13 15
REMARK H PARENT 3 5
REMARK Flexibility Score: inf
ROOT
ATOM      1  C   UNL     1       4.732   1.902   0.696  1.00  0.00     0.127 C 
ENDROOT
BRANCH   1   2
ATOM      2  C   UNL     1       4.423   1.170   1.915  1.00  0.00     0.303 C 
ATOM      3  O   UNL     1       5.152   0.336   2.454  1.00  0.00    -0.252 OA
BRANCH   2   4
ATOM      4  O   UNL     1       3.190   1.436   2.530  1.00  0.00    -0.481 OA
ATOM      5  H   UNL     1       3.228   1.935   3.406  1.00  0.00     0.296 HD
ENDBRANCH   2   4
ENDBRANCH   1   2
BRANCH   1   6
ATOM      6  C   UNL     1       6.163   2.246   0.548  1.00  0.00     0.047 C 
BRANCH   6   7
ATOM      7  C   UNL     1       7.002   1.333  -0.231  1.00  0.00    -0.043 A 
ATOM      8  C   UNL     1       8.364   1.547  -0.376  1.00  0.00     0.008 A 
ATOM      9  C   UNL     1       6.454   0.255  -0.874  1.00  0.00     0.054 A 
ATOM     10  C   UNL     1       9.148   0.709  -1.138  1.00  0.00     0.051 A 
ATOM     11  C   UNL     1       7.221  -0.599  -1.643  1.00  0.00     0.166 A 
ATOM     12  C   UNL     1       8.570  -0.375  -1.778  1.00  0.00     0.165 A 
ATOM     13  O   UNL     1       6.890  -1.729  -2.370  1.00  0.00    -0.454 OA
ATOM     14  O   UNL     1       9.067  -1.388  -2.601  1.00  0.00    -0.454 OA
ATOM     15  C   UNL     1       7.994  -2.051  -3.229  1.00  0.00     0.468 C 
ENDBRANCH   6   7
ENDBRANCH   1   6
TORSDOF 4
ENDMDL
MODEL 2
REMARK VINA RESULT:      -7.5      1.844      2.486
REMARK SMILES O=C(O)CCc1ccc2c(c1)OCO2
REMARK SMILES IDX 4 1 2 2 1 3 3 4 5 6 6 7 7 8 11 9 8 10 10 11 9 12 12 13 14 14
REMARK SMILES IDX 13 15
REMARK H PARENT 3 5
REMARK Flexibility Score: inf
ROOT
ATOM      1  C   UNL     1       6.392   1.341   0.654  1.00  0.00     0.127 C 
ENDROOT
BRANCH   1   2
ATOM      2  C   UNL     1       5.193   1.294   1.475  1.00  0.00     0.303 C 
ATOM      3  O   UNL     1       4.234   2.063   1.388  1.00  0.00    -0.252 OA
BRANCH   2   4
ATOM      4  O   UNL     1       5.120   0.289   2.452  1.00  0.00    -0.481 OA
ATOM      5  H   UNL     1       4.195   0.047   2.773  1.00  0.00     0.296 HD
ENDBRANCH   2   4
ENDBRANCH   1   2
BRANCH   1   6
ATOM      6  C   UNL     1       6.195   0.844  -0.725  1.00  0.00     0.047 C 
BRANCH   6   7
ATOM      7  C   UNL     1       6.961  -0.335  -1.136  1.00  0.00    -0.043 A 
ATOM      8  C   UNL     1       7.279  -0.565  -2.465  1.00  0.00     0.008 A 
ATOM      9  C   UNL     1       7.353  -1.271  -0.216  1.00  0.00     0.054 A 
ATOM     10  C   UNL     1       7.968  -1.691  -2.857  1.00  0.00     0.051 A 
ATOM     11  C   UNL     1       8.045  -2.408  -0.586  1.00  0.00     0.166 A 
ATOM     12  C   UNL     1       8.355  -2.622  -1.907  1.00  0.00     0.165 A 
ATOM     13  O   UNL     1       8.534  -3.469   0.156  1.00  0.00    -0.454 OA
ATOM     14  O   UNL     1       9.044  -3.835  -1.968  1.00  0.00    -0.454 OA
ATOM     15  C   UNL     1       8.892  -4.524  -0.749  1.00  0.00     0.468 C 
ENDBRANCH   6   7
ENDBRANCH   1   6
TORSDOF 4
ENDMDL
MODEL 3
REMARK VINA RESULT:      -7.4      1.440      5.376
REMARK SMILES O=C(O)CCc1ccc2c(c1)OCO2
REMARK SMILES IDX 4 1 2 2 1 3 3 4 5 6 6 7 7 8 11 9 8 10 10 11 9 12 12 13 14 14
REMARK SMILES IDX 13 15
REMARK H PARENT 3 5
REMARK Flexibility Score: inf
ROOT
ATOM      1  C   UNL     1       8.307  -0.321  -2.846  1.00  0.00     0.127 C 
ENDROOT
BRANCH   1   2
ATOM      2  C   UNL     1       8.467  -1.750  -3.067  1.00  0.00     0.303 C 
ATOM      3  O   UNL     1       9.533  -2.367  -3.028  1.00  0.00    -0.252 OA
BRANCH   2   4
ATOM      4  O   UNL     1       7.309  -2.492  -3.348  1.00  0.00    -0.481 OA
ATOM      5  H   UNL     1       7.361  -3.483  -3.168  1.00  0.00     0.296 HD
ENDBRANCH   2   4
ENDBRANCH   1   2
BRANCH   1   6
ATOM      6  C   UNL     1       8.759   0.135  -1.515  1.00  0.00     0.047 C 
BRANCH   6   7
ATOM      7  C   UNL     1       7.786   0.099  -0.420  1.00  0.00    -0.043 A 
ATOM      8  C   UNL     1       7.731  -0.965   0.466  1.00  0.00     0.008 A 
ATOM      9  C   UNL     1       6.871   1.106  -0.264  1.00  0.00     0.054 A 
ATOM     10  C   UNL     1       6.794  -1.018   1.473  1.00  0.00     0.051 A 
ATOM     11  C   UNL     1       5.922   1.075   0.740  1.00  0.00     0.166 A 
ATOM     12  C   UNL     1       5.880   0.014   1.612  1.00  0.00     0.165 A 
ATOM     13  O   UNL     1       4.917   1.964   1.082  1.00  0.00    -0.454 OA
ATOM     14  O   UNL     1       4.831   0.263   2.499  1.00  0.00    -0.454 OA
ATOM     15  C   UNL     1       4.028   1.306   1.997  1.00  0.00     0.468 C 
ENDBRANCH   6   7
ENDBRANCH   1   6
TORSDOF 4
ENDMDL
MODEL 4
REMARK VINA RESULT:      -7.4      2.414      2.769
REMARK SMILES O=C(O)CCc1ccc2c(c1)OCO2
REMARK SMILES IDX 4 1 2 2 1 3 3 4 5 6 6 7 7 8 11 9 8 10 10 11 9 12 12 13 14 14
REMARK SMILES IDX 13 15
REMARK H PARENT 3 5
REMARK Flexibility Score: inf
ROOT
ATOM      1  C   UNL     1       5.497   2.668   0.101  1.00  0.00     0.127 C 
ENDROOT
BRANCH   1   2
ATOM      2  C   UNL     1       6.152   3.702   0.886  1.00  0.00     0.303 C 
ATOM      3  O   UNL     1       6.192   3.751   2.117  1.00  0.00    -0.252 OA
BRANCH   2   4
ATOM      4  O   UNL     1       6.794   4.734   0.184  1.00  0.00    -0.481 OA
ATOM      5  H   UNL     1       6.460   4.911  -0.751  1.00  0.00     0.296 HD
ENDBRANCH   2   4
ENDBRANCH   1   2
BRANCH   1   6
ATOM      6  C   UNL     1       5.546   1.325   0.718  1.00  0.00     0.047 C 
BRANCH   6   7
ATOM      7  C   UNL     1       6.330   0.294   0.034  1.00  0.00    -0.043 A 
ATOM      8  C   UNL     1       6.445   0.268  -1.348  1.00  0.00     0.008 A 
ATOM      9  C   UNL     1       6.945  -0.704   0.742  1.00  0.00     0.054 A 
ATOM     10  C   UNL     1       7.152  -0.721  -1.995  1.00  0.00     0.051 A 
ATOM     11  C   UNL     1       7.660  -1.706   0.115  1.00  0.00     0.166 A 
ATOM     12  C   UNL     1       7.766  -1.718  -1.255  1.00  0.00     0.165 A 
ATOM     13  O   UNL     1       8.352  -2.794   0.618  1.00  0.00    -0.454 OA
ATOM     14  O   UNL     1       8.535  -2.834  -1.589  1.00  0.00    -0.454 OA
ATOM     15  C   UNL     1       8.644  -3.684  -0.471  1.00  0.00     0.468 C 
ENDBRANCH   6   7
ENDBRANCH   1   6
TORSDOF 4
ENDMDL
