@<TRIPOS>MOLECULE
/home/cewinharhar/GITHUB/reincatalyze/data/processed/docking_pred/2023-May-17-1006_maxeplen10_maxtrainstep1000_seadep16_gamma099_lrac9e-4_lrcr1e-3_sub6/37a8b72800122466266a4bb22cdda1f56f02b914_ligand_6.pdbqt
 15 16 0 0 0
SMALL
GASTEIGER

@<TRIPOS>ATOM
      1  C          5.4970    2.6680    0.1010 C.3     1  UNL1        0.1270
      2  C          6.1520    3.7020    0.8860 C.2     1  UNL1        0.3030
      3  O          6.1920    3.7510    2.1170 O.2     1  UNL1       -0.2520
      4  O          6.7940    4.7340    0.1840 O.3     1  UNL1       -0.4810
      5  H          6.4600    4.9110   -0.7510 H       1  UNL1        0.2960
      6  C          5.5460    1.3250    0.7180 C.3     1  UNL1        0.0470
      7  C          6.3300    0.2940    0.0340 C.2     1  UNL1       -0.0430
      8  C          6.4450    0.2680   -1.3480 C.2     1  UNL1        0.0080
      9  C          6.9450   -0.7040    0.7420 C.2     1  UNL1        0.0540
     10  C          7.1520   -0.7210   -1.9950 C.2     1  UNL1        0.0510
     11  C          7.6600   -1.7060    0.1150 C.2     1  UNL1        0.1660
     12  C          7.7660   -1.7180   -1.2550 C.2     1  UNL1        0.1650
     13  O          8.3520   -2.7940    0.6180 O.2     1  UNL1       -0.4540
     14  O          8.5350   -2.8340   -1.5890 O.2     1  UNL1       -0.4540
     15  C          8.6440   -3.6840   -0.4710 C.3     1  UNL1        0.4680
@<TRIPOS>BOND
     1    10     8    1
     2    10    12    2
     3    14    12    1
     4    14    15    1
     5     8     7    2
     6    12    11    1
     7     5     4    1
     8    15    13    1
     9     7     6    1
    10     7     9    1
    11     1     6    1
    12     1     2    1
    13    11    13    1
    14    11     9    2
    15     4     2    1
    16     2     3    2
