@<TRIPOS>MOLECULE
/home/cewinharhar/GITHUB/reincatalyze/data/processed/docking_pred/2023-May-17-1006_maxeplen10_maxtrainstep1000_seadep16_gamma099_lrac9e-4_lrcr1e-3_sub6/37a8b72800122466266a4bb22cdda1f56f02b914_ligand_6.pdbqt
 15 16 0 0 0
SMALL
GASTEIGER

@<TRIPOS>ATOM
      1  C          4.7320    1.9020    0.6960 C.3     1  UNL1        0.1270
      2  C          4.4230    1.1700    1.9150 C.2     1  UNL1        0.3030
      3  O          5.1520    0.3360    2.4540 O.2     1  UNL1       -0.2520
      4  O          3.1900    1.4360    2.5300 O.3     1  UNL1       -0.4810
      5  H          3.2280    1.9350    3.4060 H       1  UNL1        0.2960
      6  C          6.1630    2.2460    0.5480 C.3     1  UNL1        0.0470
      7  C          7.0020    1.3330   -0.2310 C.2     1  UNL1       -0.0430
      8  C          8.3640    1.5470   -0.3760 C.2     1  UNL1        0.0080
      9  C          6.4540    0.2550   -0.8740 C.2     1  UNL1        0.0540
     10  C          9.1480    0.7090   -1.1380 C.2     1  UNL1        0.0510
     11  C          7.2210   -0.5990   -1.6430 C.2     1  UNL1        0.1660
     12  C          8.5700   -0.3750   -1.7780 C.2     1  UNL1        0.1650
     13  O          6.8900   -1.7290   -2.3700 O.2     1  UNL1       -0.4540
     14  O          9.0670   -1.3880   -2.6010 O.2     1  UNL1       -0.4540
     15  C          7.9940   -2.0510   -3.2290 C.3     1  UNL1        0.4680
@<TRIPOS>BOND
     1    15    14    1
     2    15    13    1
     3    14    12    1
     4    13    11    1
     5    12    11    2
     6    12    10    1
     7    11     9    1
     8    10     8    2
     9     9     7    2
    10     8     7    1
    11     7     6    1
    12     6     1    1
    13     1     2    1
    14     2     3    2
    15     2     4    1
    16     4     5    1
