@<TRIPOS>MOLECULE
/home/cewinharhar/GITHUB/reincatalyze/data/processed/docking_pred/2023-May-17-1006_maxeplen10_maxtrainstep1000_seadep16_gamma099_lrac9e-4_lrcr1e-3_sub6/37a8b72800122466266a4bb22cdda1f56f02b914_ligand_6.pdbqt
 15 16 0 0 0
SMALL
GASTEIGER

@<TRIPOS>ATOM
      1  C          6.3920    1.3410    0.6540 C.3     1  UNL1        0.1270
      2  C          5.1930    1.2940    1.4750 C.2     1  UNL1        0.3030
      3  O          4.2340    2.0630    1.3880 O.2     1  UNL1       -0.2520
      4  O          5.1200    0.2890    2.4520 O.3     1  UNL1       -0.4810
      5  H          4.1950    0.0470    2.7730 H       1  UNL1        0.2960
      6  C          6.1950    0.8440   -0.7250 C.3     1  UNL1        0.0470
      7  C          6.9610   -0.3350   -1.1360 C.2     1  UNL1       -0.0430
      8  C          7.2790   -0.5650   -2.4650 C.2     1  UNL1        0.0080
      9  C          7.3530   -1.2710   -0.2160 C.2     1  UNL1        0.0540
     10  C          7.9680   -1.6910   -2.8570 C.2     1  UNL1        0.0510
     11  C          8.0450   -2.4080   -0.5860 C.2     1  UNL1        0.1660
     12  C          8.3550   -2.6220   -1.9070 C.2     1  UNL1        0.1650
     13  O          8.5340   -3.4690    0.1560 O.2     1  UNL1       -0.4540
     14  O          9.0440   -3.8350   -1.9680 O.2     1  UNL1       -0.4540
     15  C          8.8920   -4.5240   -0.7490 C.3     1  UNL1        0.4680
@<TRIPOS>BOND
     1    10     8    1
     2    10    12    2
     3     8     7    2
     4    14    12    1
     5    14    15    1
     6    12    11    1
     7     7     6    1
     8     7     9    1
     9    15    13    1
    10     6     1    1
    11    11     9    2
    12    11    13    1
    13     1     2    1
    14     3     2    2
    15     2     4    1
    16     4     5    1
