@<TRIPOS>MOLECULE
/home/cewinharhar/GITHUB/reincatalyze/data/processed/docking_pred/2023-May-17-1006_maxeplen10_maxtrainstep1000_seadep16_gamma099_lrac9e-4_lrcr1e-3_sub6/37a8b72800122466266a4bb22cdda1f56f02b914_ligand_6.pdbqt
 15 16 0 0 0
SMALL
GASTEIGER

@<TRIPOS>ATOM
      1  C          8.3070   -0.3210   -2.8460 C.3     1  UNL1        0.1270
      2  C          8.4670   -1.7500   -3.0670 C.2     1  UNL1        0.3030
      3  O          9.5330   -2.3670   -3.0280 O.2     1  UNL1       -0.2520
      4  O          7.3090   -2.4920   -3.3480 O.3     1  UNL1       -0.4810
      5  H          7.3610   -3.4830   -3.1680 H       1  UNL1        0.2960
      6  C          8.7590    0.1350   -1.5150 C.3     1  UNL1        0.0470
      7  C          7.7860    0.0990   -0.4200 C.2     1  UNL1       -0.0430
      8  C          7.7310   -0.9650    0.4660 C.2     1  UNL1        0.0080
      9  C          6.8710    1.1060   -0.2640 C.2     1  UNL1        0.0540
     10  C          6.7940   -1.0180    1.4730 C.2     1  UNL1        0.0510
     11  C          5.9220    1.0750    0.7400 C.2     1  UNL1        0.1660
     12  C          5.8800    0.0140    1.6120 C.2     1  UNL1        0.1650
     13  O          4.9170    1.9640    1.0820 O.2     1  UNL1       -0.4540
     14  O          4.8310    0.2630    2.4990 O.2     1  UNL1       -0.4540
     15  C          4.0280    1.3060    1.9970 C.3     1  UNL1        0.4680
@<TRIPOS>BOND
     1     4     5    1
     2     4     2    1
     3     2     3    2
     4     2     1    1
     5     1     6    1
     6     6     7    1
     7     7     9    2
     8     7     8    1
     9     9    11    1
    10     8    10    2
    11    11    13    1
    12    11    12    2
    13    13    15    1
    14    10    12    1
    15    12    14    1
    16    15    14    1
