@<TRIPOS>MOLECULE
/home/cewinharhar/GITHUB/reincatalyze/data/processed/docking_pred/2023-May-17-1006_maxeplen10_maxtrainstep1000_seadep16_gamma099_lrac9e-4_lrcr1e-3_sub6/37aabdb081a78d2f2d4d4e560ab17afff45a2586_ligand_6.pdbqt
 15 16 0 0 0
SMALL
GASTEIGER

@<TRIPOS>ATOM
      1  C          5.4130    2.8720    0.1260 C.3     1  UNL1        0.1270
      2  C          6.2410    3.8530    0.8110 C.2     1  UNL1        0.3030
      3  O          6.8830    4.7530    0.2680 O.2     1  UNL1       -0.2520
      4  O          6.3160    3.7680    2.2100 O.3     1  UNL1       -0.4810
      5  H          5.4750    3.4760    2.6840 H       1  UNL1        0.2960
      6  C          5.3340    1.5670    0.8160 C.3     1  UNL1        0.0470
      7  C          6.1160    0.4590    0.2620 C.2     1  UNL1       -0.0430
      8  C          6.5650   -0.5810    1.0600 C.2     1  UNL1        0.0080
      9  C          6.4600    0.4400   -1.0640 C.2     1  UNL1        0.0540
     10  C          7.3310   -1.6050    0.5470 C.2     1  UNL1        0.0510
     11  C          7.2270   -0.5770   -1.6000 C.2     1  UNL1        0.1660
     12  C          7.6650   -1.6030   -0.7980 C.2     1  UNL1        0.1650
     13  O          7.6870   -0.8000   -2.8860 O.2     1  UNL1       -0.4540
     14  O          8.4040   -2.4630   -1.6100 O.2     1  UNL1       -0.4540
     15  C          8.6910   -1.8250   -2.8330 C.3     1  UNL1        0.4680
@<TRIPOS>BOND
     1    13    15    1
     2    13    11    1
     3    15    14    1
     4    14    12    1
     5    11     9    1
     6    11    12    2
     7     9     7    2
     8    12    10    1
     9     1     2    1
    10     1     6    1
    11     7     6    1
    12     7     8    1
    13     3     2    2
    14    10     8    2
    15     2     4    1
    16     4     5    1
