@<TRIPOS>MOLECULE
/home/cewinharhar/GITHUB/reincatalyze/data/processed/docking_pred/2023-May-17-1006_maxeplen10_maxtrainstep1000_seadep16_gamma099_lrac9e-4_lrcr1e-3_sub6/37aabdb081a78d2f2d4d4e560ab17afff45a2586_ligand_6.pdbqt
 15 16 0 0 0
SMALL
GASTEIGER

@<TRIPOS>ATOM
      1  C          8.2590   -0.2670   -2.8150 C.3     1  UNL1        0.1270
      2  C          8.4740   -1.6910   -3.0140 C.2     1  UNL1        0.3030
      3  O          9.5550   -2.2750   -2.9110 O.2     1  UNL1       -0.2520
      4  O          7.3570   -2.4710   -3.3520 O.3     1  UNL1       -0.4810
      5  H          6.6250   -2.5240   -2.6600 H       1  UNL1        0.2960
      6  C          8.7140    0.2310   -1.4990 C.3     1  UNL1        0.0470
      7  C          7.7610    0.1790   -0.3890 C.2     1  UNL1       -0.0430
      8  C          7.7800   -0.8540    0.5360 C.2     1  UNL1        0.0080
      9  C          6.7910    1.1370   -0.2540 C.2     1  UNL1        0.0540
     10  C          6.8620   -0.9230    1.5590 C.2     1  UNL1        0.0510
     11  C          5.8590    1.0880    0.7660 C.2     1  UNL1        0.1660
     12  C          5.8910    0.0590    1.6750 C.2     1  UNL1        0.1650
     13  O          4.8100    1.9300    1.0920 O.2     1  UNL1       -0.4540
     14  O          4.8420    0.2790    2.5700 O.2     1  UNL1       -0.4540
     15  C          3.9730    1.2560    2.0440 C.3     1  UNL1        0.4680
@<TRIPOS>BOND
     1     4     2    1
     2     4     5    1
     3     2     3    2
     4     2     1    1
     5     1     6    1
     6     6     7    1
     7     7     9    2
     8     7     8    1
     9     9    11    1
    10     8    10    2
    11    11    13    1
    12    11    12    2
    13    13    15    1
    14    10    12    1
    15    12    14    1
    16    15    14    1
