@<TRIPOS>MOLECULE
/home/cewinharhar/GITHUB/reincatalyze/data/processed/docking_pred/2023-May-17-1006_maxeplen10_maxtrainstep1000_seadep16_gamma099_lrac9e-4_lrcr1e-3_sub6/37aabdb081a78d2f2d4d4e560ab17afff45a2586_ligand_6.pdbqt
 15 16 0 0 0
SMALL
GASTEIGER

@<TRIPOS>ATOM
      1  C          4.6850    1.8720    0.6740 C.3     1  UNL1        0.1270
      2  C          4.3970    1.1700    1.9150 C.2     1  UNL1        0.3030
      3  O          5.1350    0.3500    2.4630 O.2     1  UNL1       -0.2520
      4  O          3.1730    1.4480    2.5430 O.3     1  UNL1       -0.4810
      5  H          2.5200    2.0100    2.0180 H       1  UNL1        0.2960
      6  C          6.1060    2.2500    0.5150 C.3     1  UNL1        0.0470
      7  C          6.9650    1.3460   -0.2520 C.2     1  UNL1       -0.0430
      8  C          8.3250    1.5780   -0.3850 C.2     1  UNL1        0.0080
      9  C          6.4380    0.2580   -0.8960 C.2     1  UNL1        0.0540
     10  C          9.1290    0.7480   -1.1350 C.2     1  UNL1        0.0510
     11  C          7.2250   -0.5890   -1.6540 C.2     1  UNL1        0.1660
     12  C          8.5720   -0.3470   -1.7760 C.2     1  UNL1        0.1650
     13  O          6.9170   -1.7260   -2.3790 O.2     1  UNL1       -0.4540
     14  O          9.0900   -1.3550   -2.5900 O.2     1  UNL1       -0.4540
     15  C          8.0340   -2.0360   -3.2260 C.3     1  UNL1        0.4680
@<TRIPOS>BOND
     1    15    14    1
     2    15    13    1
     3    14    12    1
     4    13    11    1
     5    12    11    2
     6    12    10    1
     7    11     9    1
     8    10     8    2
     9     9     7    2
    10     8     7    1
    11     7     6    1
    12     6     1    1
    13     1     2    1
    14     2     3    2
    15     2     4    1
    16     5     4    1
