MODEL 1
REMARK VINA RESULT:      -7.7      0.000      0.000
REMARK SMILES O=C(O)CCc1ccc2c(c1)OCO2
REMARK SMILES IDX 4 1 2 2 1 3 3 4 5 6 6 7 7 8 11 9 8 10 10 11 9 12 12 13 14 14
REMARK SMILES IDX 13 15
REMARK H PARENT 3 5
REMARK Flexibility Score: inf
ROOT
ATOM      1  C   UNL     1       5.413   2.872   0.126  1.00  0.00     0.127 C 
ENDROOT
BRANCH   1   2
ATOM      2  C   UNL     1       6.241   3.853   0.811  1.00  0.00     0.303 C 
ATOM      3  O   UNL     1       6.883   4.753   0.268  1.00  0.00    -0.252 OA
BRANCH   2   4
ATOM      4  O   UNL     1       6.316   3.768   2.210  1.00  0.00    -0.481 OA
ATOM      5  H   UNL     1       5.475   3.476   2.684  1.00  0.00     0.296 HD
ENDBRANCH   2   4
ENDBRANCH   1   2
BRANCH   1   6
ATOM      6  C   UNL     1       5.334   1.567   0.816  1.00  0.00     0.047 C 
BRANCH   6   7
ATOM      7  C   UNL     1       6.116   0.459   0.262  1.00  0.00    -0.043 A 
ATOM      8  C   UNL     1       6.565  -0.581   1.060  1.00  0.00     0.008 A 
ATOM      9  C   UNL     1       6.460   0.440  -1.064  1.00  0.00     0.054 A 
ATOM     10  C   UNL     1       7.331  -1.605   0.547  1.00  0.00     0.051 A 
ATOM     11  C   UNL     1       7.227  -0.577  -1.600  1.00  0.00     0.166 A 
ATOM     12  C   UNL     1       7.665  -1.603  -0.798  1.00  0.00     0.165 A 
ATOM     13  O   UNL     1       7.687  -0.800  -2.886  1.00  0.00    -0.454 OA
ATOM     14  O   UNL     1       8.404  -2.463  -1.610  1.00  0.00    -0.454 OA
ATOM     15  C   UNL     1       8.691  -1.825  -2.833  1.00  0.00     0.468 C 
ENDBRANCH   6   7
ENDBRANCH   1   6
TORSDOF 4
ENDMDL
MODEL 2
REMARK VINA RESULT:      -7.6      2.131      2.522
REMARK SMILES O=C(O)CCc1ccc2c(c1)OCO2
REMARK SMILES IDX 4 1 2 2 1 3 3 4 5 6 6 7 7 8 11 9 8 10 10 11 9 12 12 13 14 14
REMARK SMILES IDX 13 15
REMARK H PARENT 3 5
REMARK Flexibility Score: inf
ROOT
ATOM      1  C   UNL     1       4.685   1.872   0.674  1.00  0.00     0.127 C 
ENDROOT
BRANCH   1   2
ATOM      2  C   UNL     1       4.397   1.170   1.915  1.00  0.00     0.303 C 
ATOM      3  O   UNL     1       5.135   0.350   2.463  1.00  0.00    -0.252 OA
BRANCH   2   4
ATOM      4  O   UNL     1       3.173   1.448   2.543  1.00  0.00    -0.481 OA
ATOM      5  H   UNL     1       2.520   2.010   2.018  1.00  0.00     0.296 HD
ENDBRANCH   2   4
ENDBRANCH   1   2
BRANCH   1   6
ATOM      6  C   UNL     1       6.106   2.250   0.515  1.00  0.00     0.047 C 
BRANCH   6   7
ATOM      7  C   UNL     1       6.965   1.346  -0.252  1.00  0.00    -0.043 A 
ATOM      8  C   UNL     1       8.325   1.578  -0.385  1.00  0.00     0.008 A 
ATOM      9  C   UNL     1       6.438   0.258  -0.896  1.00  0.00     0.054 A 
ATOM     10  C   UNL     1       9.129   0.748  -1.135  1.00  0.00     0.051 A 
ATOM     11  C   UNL     1       7.225  -0.589  -1.654  1.00  0.00     0.166 A 
ATOM     12  C   UNL     1       8.572  -0.347  -1.776  1.00  0.00     0.165 A 
ATOM     13  O   UNL     1       6.917  -1.726  -2.379  1.00  0.00    -0.454 OA
ATOM     14  O   UNL     1       9.090  -1.355  -2.590  1.00  0.00    -0.454 OA
ATOM     15  C   UNL     1       8.034  -2.036  -3.226  1.00  0.00     0.468 C 
ENDBRANCH   6   7
ENDBRANCH   1   6
TORSDOF 4
ENDMDL
MODEL 3
REMARK VINA RESULT:      -7.5      1.980      2.891
REMARK SMILES O=C(O)CCc1ccc2c(c1)OCO2
REMARK SMILES IDX 4 1 2 2 1 3 3 4 5 6 6 7 7 8 11 9 8 10 10 11 9 12 12 13 14 14
REMARK SMILES IDX 13 15
REMARK H PARENT 3 5
REMARK Flexibility Score: inf
ROOT
ATOM      1  C   UNL     1       6.376   1.307   0.666  1.00  0.00     0.127 C 
ENDROOT
BRANCH   1   2
ATOM      2  C   UNL     1       5.186   1.260   1.501  1.00  0.00     0.303 C 
ATOM      3  O   UNL     1       4.236   2.042   1.440  1.00  0.00    -0.252 OA
BRANCH   2   4
ATOM      4  O   UNL     1       5.112   0.236   2.459  1.00  0.00    -0.481 OA
ATOM      5  H   UNL     1       5.972  -0.251   2.658  1.00  0.00     0.296 HD
ENDBRANCH   2   4
ENDBRANCH   1   2
BRANCH   1   6
ATOM      6  C   UNL     1       6.164   0.807  -0.709  1.00  0.00     0.047 C 
BRANCH   6   7
ATOM      7  C   UNL     1       6.942  -0.359  -1.133  1.00  0.00    -0.043 A 
ATOM      8  C   UNL     1       7.268  -0.569  -2.464  1.00  0.00     0.008 A 
ATOM      9  C   UNL     1       7.340  -1.304  -0.224  1.00  0.00     0.054 A 
ATOM     10  C   UNL     1       7.969  -1.683  -2.869  1.00  0.00     0.051 A 
ATOM     11  C   UNL     1       8.045  -2.429  -0.607  1.00  0.00     0.166 A 
ATOM     12  C   UNL     1       8.361  -2.623  -1.930  1.00  0.00     0.165 A 
ATOM     13  O   UNL     1       8.541  -3.495   0.123  1.00  0.00    -0.454 OA
ATOM     14  O   UNL     1       9.062  -3.828  -2.004  1.00  0.00    -0.454 OA
ATOM     15  C   UNL     1       8.912  -4.535  -0.795  1.00  0.00     0.468 C 
ENDBRANCH   6   7
ENDBRANCH   1   6
TORSDOF 4
ENDMDL
MODEL 4
REMARK VINA RESULT:      -7.5      0.942      2.102
REMARK SMILES O=C(O)CCc1ccc2c(c1)OCO2
REMARK SMILES IDX 4 1 2 2 1 3 3 4 5 6 6 7 7 8 11 9 8 10 10 11 9 12 12 13 14 14
REMARK SMILES IDX 13 15
REMARK H PARENT 3 5
REMARK Flexibility Score: inf
ROOT
ATOM      1  C   UNL     1       5.468   2.769   0.070  1.00  0.00     0.127 C 
ENDROOT
BRANCH   1   2
ATOM      2  C   UNL     1       6.180   3.722   0.908  1.00  0.00     0.303 C 
ATOM      3  O   UNL     1       6.249   3.684   2.137  1.00  0.00    -0.252 OA
BRANCH   2   4
ATOM      4  O   UNL     1       6.847   4.775   0.262  1.00  0.00    -0.481 OA
ATOM      5  H   UNL     1       6.403   5.143  -0.565  1.00  0.00     0.296 HD
ENDBRANCH   2   4
ENDBRANCH   1   2
BRANCH   1   6
ATOM      6  C   UNL     1       5.379   1.411   0.648  1.00  0.00     0.047 C 
BRANCH   6   7
ATOM      7  C   UNL     1       6.222   0.368   0.059  1.00  0.00    -0.043 A 
ATOM      8  C   UNL     1       6.497   0.340  -1.300  1.00  0.00     0.008 A 
ATOM      9  C   UNL     1       6.735  -0.638   0.833  1.00  0.00     0.054 A 
ATOM     10  C   UNL     1       7.259  -0.660  -1.861  1.00  0.00     0.051 A 
ATOM     11  C   UNL     1       7.503  -1.652   0.292  1.00  0.00     0.166 A 
ATOM     12  C   UNL     1       7.768  -1.666  -1.056  1.00  0.00     0.165 A 
ATOM     13  O   UNL     1       8.114  -2.750   0.871  1.00  0.00    -0.454 OA
ATOM     14  O   UNL     1       8.554  -2.794  -1.300  1.00  0.00    -0.454 OA
ATOM     15  C   UNL     1       8.518  -3.644  -0.178  1.00  0.00     0.468 C 
ENDBRANCH   6   7
ENDBRANCH   1   6
TORSDOF 4
ENDMDL
MODEL 5
REMARK VINA RESULT:      -7.5      1.814      5.265
REMARK SMILES O=C(O)CCc1ccc2c(c1)OCO2
REMARK SMILES IDX 4 1 2 2 1 3 3 4 5 6 6 7 7 8 11 9 8 10 10 11 9 12 12 13 14 14
REMARK SMILES IDX 13 15
REMARK H PARENT 3 5
REMARK Flexibility Score: inf
ROOT
ATOM      1  C   UNL     1       8.259  -0.267  -2.815  1.00  0.00     0.127 C 
ENDROOT
BRANCH   1   2
ATOM      2  C   UNL     1       8.474  -1.691  -3.014  1.00  0.00     0.303 C 
ATOM      3  O   UNL     1       9.555  -2.275  -2.911  1.00  0.00    -0.252 OA
BRANCH   2   4
ATOM      4  O   UNL     1       7.357  -2.471  -3.352  1.00  0.00    -0.481 OA
ATOM      5  H   UNL     1       6.625  -2.524  -2.660  1.00  0.00     0.296 HD
ENDBRANCH   2   4
ENDBRANCH   1   2
BRANCH   1   6
ATOM      6  C   UNL     1       8.714   0.231  -1.499  1.00  0.00     0.047 C 
BRANCH   6   7
ATOM      7  C   UNL     1       7.761   0.179  -0.389  1.00  0.00    -0.043 A 
ATOM      8  C   UNL     1       7.780  -0.854   0.536  1.00  0.00     0.008 A 
ATOM      9  C   UNL     1       6.791   1.137  -0.254  1.00  0.00     0.054 A 
ATOM     10  C   UNL     1       6.862  -0.923   1.559  1.00  0.00     0.051 A 
ATOM     11  C   UNL     1       5.859   1.088   0.766  1.00  0.00     0.166 A 
ATOM     12  C   UNL     1       5.891   0.059   1.675  1.00  0.00     0.165 A 
ATOM     13  O   UNL     1       4.810   1.930   1.092  1.00  0.00    -0.454 OA
ATOM     14  O   UNL     1       4.842   0.279   2.570  1.00  0.00    -0.454 OA
ATOM     15  C   UNL     1       3.973   1.256   2.044  1.00  0.00     0.468 C 
ENDBRANCH   6   7
ENDBRANCH   1   6
TORSDOF 4
ENDMDL
