@<TRIPOS>MOLECULE
/home/cewinharhar/GITHUB/reincatalyze/data/processed/docking_pred/2023-May-17-1006_maxeplen10_maxtrainstep1000_seadep16_gamma099_lrac9e-4_lrcr1e-3_sub6/37aabdb081a78d2f2d4d4e560ab17afff45a2586_ligand_6.pdbqt
 15 16 0 0 0
SMALL
GASTEIGER

@<TRIPOS>ATOM
      1  C          6.3760    1.3070    0.6660 C.3     1  UNL1        0.1270
      2  C          5.1860    1.2600    1.5010 C.2     1  UNL1        0.3030
      3  O          4.2360    2.0420    1.4400 O.2     1  UNL1       -0.2520
      4  O          5.1120    0.2360    2.4590 O.3     1  UNL1       -0.4810
      5  H          5.9720   -0.2510    2.6580 H       1  UNL1        0.2960
      6  C          6.1640    0.8070   -0.7090 C.3     1  UNL1        0.0470
      7  C          6.9420   -0.3590   -1.1330 C.2     1  UNL1       -0.0430
      8  C          7.2680   -0.5690   -2.4640 C.2     1  UNL1        0.0080
      9  C          7.3400   -1.3040   -0.2240 C.2     1  UNL1        0.0540
     10  C          7.9690   -1.6830   -2.8690 C.2     1  UNL1        0.0510
     11  C          8.0450   -2.4290   -0.6070 C.2     1  UNL1        0.1660
     12  C          8.3610   -2.6230   -1.9300 C.2     1  UNL1        0.1650
     13  O          8.5410   -3.4950    0.1230 O.2     1  UNL1       -0.4540
     14  O          9.0620   -3.8280   -2.0040 O.2     1  UNL1       -0.4540
     15  C          8.9120   -4.5350   -0.7950 C.3     1  UNL1        0.4680
@<TRIPOS>BOND
     1    10     8    1
     2    10    12    2
     3     8     7    2
     4    14    12    1
     5    14    15    1
     6    12    11    1
     7     7     6    1
     8     7     9    1
     9    15    13    1
    10     6     1    1
    11    11     9    2
    12    11    13    1
    13     1     2    1
    14     3     2    2
    15     2     4    1
    16     4     5    1
