@<TRIPOS>MOLECULE
/home/cewinharhar/GITHUB/reincatalyze/data/processed/docking_pred/2023-May-17-1006_maxeplen10_maxtrainstep1000_seadep16_gamma099_lrac9e-4_lrcr1e-3_sub6/37aabdb081a78d2f2d4d4e560ab17afff45a2586_ligand_6.pdbqt
 15 16 0 0 0
SMALL
GASTEIGER

@<TRIPOS>ATOM
      1  C          5.4680    2.7690    0.0700 C.3     1  UNL1        0.1270
      2  C          6.1800    3.7220    0.9080 C.2     1  UNL1        0.3030
      3  O          6.2490    3.6840    2.1370 O.2     1  UNL1       -0.2520
      4  O          6.8470    4.7750    0.2620 O.3     1  UNL1       -0.4810
      5  H          6.4030    5.1430   -0.5650 H       1  UNL1        0.2960
      6  C          5.3790    1.4110    0.6480 C.3     1  UNL1        0.0470
      7  C          6.2220    0.3680    0.0590 C.2     1  UNL1       -0.0430
      8  C          6.4970    0.3400   -1.3000 C.2     1  UNL1        0.0080
      9  C          6.7350   -0.6380    0.8330 C.2     1  UNL1        0.0540
     10  C          7.2590   -0.6600   -1.8610 C.2     1  UNL1        0.0510
     11  C          7.5030   -1.6520    0.2920 C.2     1  UNL1        0.1660
     12  C          7.7680   -1.6660   -1.0560 C.2     1  UNL1        0.1650
     13  O          8.1140   -2.7500    0.8710 O.2     1  UNL1       -0.4540
     14  O          8.5540   -2.7940   -1.3000 O.2     1  UNL1       -0.4540
     15  C          8.5180   -3.6440   -0.1780 C.3     1  UNL1        0.4680
@<TRIPOS>BOND
     1    10     8    1
     2    10    12    2
     3     8     7    2
     4    14    12    1
     5    14    15    1
     6    12    11    1
     7     5     4    1
     8    15    13    1
     9     7     6    1
    10     7     9    1
    11     1     6    1
    12     1     2    1
    13     4     2    1
    14    11     9    2
    15    11    13    1
    16     2     3    2
