@<TRIPOS>MOLECULE
/home/cewinharhar/GITHUB/reincatalyze/data/processed/docking_pred/2023-May-17-1006_maxeplen10_maxtrainstep1000_seadep16_gamma099_lrac9e-4_lrcr1e-3_sub6/3b11ad51370e6150fddf32b3aa65dd5e24197163_ligand_6.pdbqt
 15 16 0 0 0
SMALL
GASTEIGER

@<TRIPOS>ATOM
      1  C          5.3810    2.8410    0.0990 C.3     1  UNL1        0.1270
      2  C          6.1220    3.8480    0.8410 C.2     1  UNL1        0.3030
      3  O          6.1510    3.9590    2.0680 O.2     1  UNL1       -0.2520
      4  O          6.8710    4.7750    0.0990 O.3     1  UNL1       -0.4810
      5  H          7.3460    5.4900    0.6280 H       1  UNL1        0.2960
      6  C          5.3710    1.5090    0.7410 C.3     1  UNL1        0.0470
      7  C          6.1900    0.4580    0.1330 C.2     1  UNL1       -0.0430
      8  C          6.4530    0.4400   -1.2280 C.2     1  UNL1        0.0080
      9  C          6.6920   -0.5660    0.8920 C.2     1  UNL1        0.0540
     10  C          7.1940   -0.5670   -1.8060 C.2     1  UNL1        0.0510
     11  C          7.4380   -1.5860    0.3340 C.2     1  UNL1        0.1660
     12  C          7.6910   -1.5910   -1.0160 C.2     1  UNL1        0.1650
     13  O          8.0340   -2.7020    0.8960 O.2     1  UNL1       -0.4540
     14  O          8.4550   -2.7290   -1.2790 O.2     1  UNL1       -0.4540
     15  C          8.4130   -3.5910   -0.1660 C.3     1  UNL1        0.4680
@<TRIPOS>BOND
     1    10     8    1
     2    10    12    2
     3    14    12    1
     4    14    15    1
     5     8     7    2
     6    12    11    1
     7    15    13    1
     8     1     6    1
     9     1     2    1
    10     4     5    1
    11     4     2    1
    12     7     6    1
    13     7     9    1
    14    11     9    2
    15    11    13    1
    16     2     3    2
