@<TRIPOS>MOLECULE
/home/cewinharhar/GITHUB/reincatalyze/data/processed/docking_pred/2023-May-17-1006_maxeplen10_maxtrainstep1000_seadep16_gamma099_lrac9e-4_lrcr1e-3_sub6/3b11ad51370e6150fddf32b3aa65dd5e24197163_ligand_6.pdbqt
 15 16 0 0 0
SMALL
GASTEIGER

@<TRIPOS>ATOM
      1  C          5.4280    2.8740    0.1440 C.3     1  UNL1        0.1270
      2  C          6.2590    3.8670    0.8070 C.2     1  UNL1        0.3030
      3  O          6.8970    4.7600    0.2450 O.2     1  UNL1       -0.2520
      4  O          6.3440    3.8060    2.2070 O.3     1  UNL1       -0.4810
      5  H          5.4800    3.6360    2.6980 H       1  UNL1        0.2960
      6  C          5.3710    1.5740    0.8460 C.3     1  UNL1        0.0470
      7  C          6.1430    0.4650    0.2820 C.2     1  UNL1       -0.0430
      8  C          6.6330   -0.5570    1.0800 C.2     1  UNL1        0.0080
      9  C          6.4370    0.4260   -1.0550 C.2     1  UNL1        0.0540
     10  C          7.3890   -1.5820    0.5560 C.2     1  UNL1        0.0510
     11  C          7.1940   -0.5920   -1.6030 C.2     1  UNL1        0.1660
     12  C          7.6720   -1.5990   -0.8000 C.2     1  UNL1        0.1650
     13  O          7.6080   -0.8330   -2.9010 O.2     1  UNL1       -0.4540
     14  O          8.3890   -2.4670   -1.6260 O.2     1  UNL1       -0.4540
     15  C          8.6240   -1.8470   -2.8690 C.3     1  UNL1        0.4680
@<TRIPOS>BOND
     1    13    15    1
     2    13    11    1
     3    15    14    1
     4    14    12    1
     5    11     9    1
     6    11    12    2
     7     9     7    2
     8    12    10    1
     9     1     2    1
    10     1     6    1
    11     3     2    2
    12     7     6    1
    13     7     8    1
    14    10     8    2
    15     2     4    1
    16     4     5    1
