@<TRIPOS>MOLECULE
/home/cewinharhar/GITHUB/reincatalyze/data/processed/docking_pred/2023-May-17-1006_maxeplen10_maxtrainstep1000_seadep16_gamma099_lrac9e-4_lrcr1e-3_sub6/3b11ad51370e6150fddf32b3aa65dd5e24197163_ligand_6.pdbqt
 15 16 0 0 0
SMALL
GASTEIGER

@<TRIPOS>ATOM
      1  C          6.4480    1.2850    0.7830 C.3     1  UNL1        0.1270
      2  C          5.1730    1.3240    1.4830 C.2     1  UNL1        0.3030
      3  O          4.2790    2.1520    1.2970 O.2     1  UNL1       -0.2520
      4  O          4.9390    0.3370    2.4520 O.3     1  UNL1       -0.4810
      5  H          4.2650   -0.3730    2.2110 H       1  UNL1        0.2960
      6  C          6.3360    0.9320   -0.6480 C.3     1  UNL1        0.0470
      7  C          7.0440   -0.2640   -1.1090 C.2     1  UNL1       -0.0430
      8  C          7.2810   -0.4930   -2.4550 C.2     1  UNL1        0.0080
      9  C          7.4620   -1.2170   -0.2170 C.2     1  UNL1        0.0540
     10  C          7.9150   -1.6350   -2.8920 C.2     1  UNL1        0.0510
     11  C          8.1000   -2.3700   -0.6330 C.2     1  UNL1        0.1660
     12  C          8.3290   -2.5830   -1.9710 C.2     1  UNL1        0.1650
     13  O          8.6010   -3.4490    0.0750 O.2     1  UNL1       -0.4540
     14  O          8.9800   -3.8130   -2.0770 O.2     1  UNL1       -0.4540
     15  C          8.8780   -4.5070   -0.8550 C.3     1  UNL1        0.4680
@<TRIPOS>BOND
     1    10     8    1
     2    10    12    2
     3     8     7    2
     4    14    12    1
     5    14    15    1
     6    12    11    1
     7     7     6    1
     8     7     9    1
     9    15    13    1
    10     6     1    1
    11    11     9    2
    12    11    13    1
    13     1     2    1
    14     3     2    2
    15     2     4    1
    16     5     4    1
