@<TRIPOS>MOLECULE
/home/cewinharhar/GITHUB/reincatalyze/data/processed/docking_pred/2023-May-17-1006_maxeplen10_maxtrainstep1000_seadep16_gamma099_lrac9e-4_lrcr1e-3_sub6/3b11ad51370e6150fddf32b3aa65dd5e24197163_ligand_6.pdbqt
 15 16 0 0 0
SMALL
GASTEIGER

@<TRIPOS>ATOM
      1  C          8.5170   -0.1030   -2.9080 C.3     1  UNL1        0.1270
      2  C          8.7240   -1.5250   -3.1370 C.2     1  UNL1        0.3030
      3  O          9.8170   -2.0910   -3.1910 O.2     1  UNL1       -0.2520
      4  O          7.5820   -2.3230   -3.3110 O.3     1  UNL1       -0.4810
      5  H          7.3650   -2.9590   -2.5590 H       1  UNL1        0.2960
      6  C          8.9830    0.3660   -1.5850 C.3     1  UNL1        0.0470
      7  C          8.0510    0.2580   -0.4610 C.2     1  UNL1       -0.0430
      8  C          8.1630   -0.7570    0.4770 C.2     1  UNL1        0.0080
      9  C          7.0130    1.1400   -0.3250 C.2     1  UNL1        0.0540
     10  C          7.2650   -0.8810    1.5150 C.2     1  UNL1        0.0510
     11  C          6.1010    1.0350    0.7080 C.2     1  UNL1        0.1660
     12  C          6.2240    0.0250    1.6320 C.2     1  UNL1        0.1650
     13  O          4.9940    1.7980    1.0380 O.2     1  UNL1       -0.4540
     14  O          5.1730    0.1780    2.5380 O.2     1  UNL1       -0.4540
     15  C          4.2250    1.0760    2.0110 C.3     1  UNL1        0.4680
@<TRIPOS>BOND
     1     4     2    1
     2     4     5    1
     3     3     2    2
     4     2     1    1
     5     1     6    1
     6     6     7    1
     7     7     9    2
     8     7     8    1
     9     9    11    1
    10     8    10    2
    11    11    13    1
    12    11    12    2
    13    13    15    1
    14    10    12    1
    15    12    14    1
    16    15    14    1
