MODEL 1
REMARK VINA RESULT:      -7.5      0.000      0.000
REMARK SMILES O=C(O)CCc1ccc2c(c1)OCO2
REMARK SMILES IDX 4 1 2 2 1 3 3 4 5 6 6 7 7 8 11 9 8 10 10 11 9 12 12 13 14 14
REMARK SMILES IDX 13 15
REMARK H PARENT 3 5
REMARK Flexibility Score: inf
ROOT
ATOM      1  C   UNL     1       5.428   2.874   0.144  1.00  0.00     0.127 C 
ENDROOT
BRANCH   1   2
ATOM      2  C   UNL     1       6.259   3.867   0.807  1.00  0.00     0.303 C 
ATOM      3  O   UNL     1       6.897   4.760   0.245  1.00  0.00    -0.252 OA
BRANCH   2   4
ATOM      4  O   UNL     1       6.344   3.806   2.207  1.00  0.00    -0.481 OA
ATOM      5  H   UNL     1       5.480   3.636   2.698  1.00  0.00     0.296 HD
ENDBRANCH   2   4
ENDBRANCH   1   2
BRANCH   1   6
ATOM      6  C   UNL     1       5.371   1.574   0.846  1.00  0.00     0.047 C 
BRANCH   6   7
ATOM      7  C   UNL     1       6.143   0.465   0.282  1.00  0.00    -0.043 A 
ATOM      8  C   UNL     1       6.633  -0.557   1.080  1.00  0.00     0.008 A 
ATOM      9  C   UNL     1       6.437   0.426  -1.055  1.00  0.00     0.054 A 
ATOM     10  C   UNL     1       7.389  -1.582   0.556  1.00  0.00     0.051 A 
ATOM     11  C   UNL     1       7.194  -0.592  -1.603  1.00  0.00     0.166 A 
ATOM     12  C   UNL     1       7.672  -1.599  -0.800  1.00  0.00     0.165 A 
ATOM     13  O   UNL     1       7.608  -0.833  -2.901  1.00  0.00    -0.454 OA
ATOM     14  O   UNL     1       8.389  -2.467  -1.626  1.00  0.00    -0.454 OA
ATOM     15  C   UNL     1       8.624  -1.847  -2.869  1.00  0.00     0.468 C 
ENDBRANCH   6   7
ENDBRANCH   1   6
TORSDOF 4
ENDMDL
MODEL 2
REMARK VINA RESULT:      -7.3      2.317      2.609
REMARK SMILES O=C(O)CCc1ccc2c(c1)OCO2
REMARK SMILES IDX 4 1 2 2 1 3 3 4 5 6 6 7 7 8 11 9 8 10 10 11 9 12 12 13 14 14
REMARK SMILES IDX 13 15
REMARK H PARENT 3 5
REMARK Flexibility Score: inf
ROOT
ATOM      1  C   UNL     1       5.310   1.978   1.129  1.00  0.00     0.127 C 
ENDROOT
BRANCH   1   2
ATOM      2  C   UNL     1       4.595   1.041   1.980  1.00  0.00     0.303 C 
ATOM      3  O   UNL     1       5.010  -0.063   2.338  1.00  0.00    -0.252 OA
BRANCH   2   4
ATOM      4  O   UNL     1       3.324   1.424   2.436  1.00  0.00    -0.481 OA
ATOM      5  H   UNL     1       3.261   1.695   3.405  1.00  0.00     0.296 HD
ENDBRANCH   2   4
ENDBRANCH   1   2
BRANCH   1   6
ATOM      6  C   UNL     1       5.329   1.597  -0.300  1.00  0.00     0.047 C 
BRANCH   6   7
ATOM      7  C   UNL     1       6.556   0.993  -0.823  1.00  0.00    -0.043 A 
ATOM      8  C   UNL     1       7.808   1.474  -0.471  1.00  0.00     0.008 A 
ATOM      9  C   UNL     1       6.501  -0.047  -1.712  1.00  0.00     0.054 A 
ATOM     10  C   UNL     1       8.962   0.931  -0.990  1.00  0.00     0.051 A 
ATOM     11  C   UNL     1       7.645  -0.609  -2.246  1.00  0.00     0.166 A 
ATOM     12  C   UNL     1       8.879  -0.122  -1.887  1.00  0.00     0.165 A 
ATOM     13  O   UNL     1       7.827  -1.647  -3.143  1.00  0.00    -0.454 OA
ATOM     14  O   UNL     1       9.827  -0.878  -2.578  1.00  0.00    -0.454 OA
ATOM     15  C   UNL     1       9.190  -1.616  -3.595  1.00  0.00     0.468 C 
ENDBRANCH   6   7
ENDBRANCH   1   6
TORSDOF 4
ENDMDL
MODEL 3
REMARK VINA RESULT:      -7.3      1.964      2.869
REMARK SMILES O=C(O)CCc1ccc2c(c1)OCO2
REMARK SMILES IDX 4 1 2 2 1 3 3 4 5 6 6 7 7 8 11 9 8 10 10 11 9 12 12 13 14 14
REMARK SMILES IDX 13 15
REMARK H PARENT 3 5
REMARK Flexibility Score: inf
ROOT
ATOM      1  C   UNL     1       6.448   1.285   0.783  1.00  0.00     0.127 C 
ENDROOT
BRANCH   1   2
ATOM      2  C   UNL     1       5.173   1.324   1.483  1.00  0.00     0.303 C 
ATOM      3  O   UNL     1       4.279   2.152   1.297  1.00  0.00    -0.252 OA
BRANCH   2   4
ATOM      4  O   UNL     1       4.939   0.337   2.452  1.00  0.00    -0.481 OA
ATOM      5  H   UNL     1       4.265  -0.373   2.211  1.00  0.00     0.296 HD
ENDBRANCH   2   4
ENDBRANCH   1   2
BRANCH   1   6
ATOM      6  C   UNL     1       6.336   0.932  -0.648  1.00  0.00     0.047 C 
BRANCH   6   7
ATOM      7  C   UNL     1       7.044  -0.264  -1.109  1.00  0.00    -0.043 A 
ATOM      8  C   UNL     1       7.281  -0.493  -2.455  1.00  0.00     0.008 A 
ATOM      9  C   UNL     1       7.462  -1.217  -0.217  1.00  0.00     0.054 A 
ATOM     10  C   UNL     1       7.915  -1.635  -2.892  1.00  0.00     0.051 A 
ATOM     11  C   UNL     1       8.100  -2.370  -0.633  1.00  0.00     0.166 A 
ATOM     12  C   UNL     1       8.329  -2.583  -1.971  1.00  0.00     0.165 A 
ATOM     13  O   UNL     1       8.601  -3.449   0.075  1.00  0.00    -0.454 OA
ATOM     14  O   UNL     1       8.980  -3.813  -2.077  1.00  0.00    -0.454 OA
ATOM     15  C   UNL     1       8.878  -4.507  -0.855  1.00  0.00     0.468 C 
ENDBRANCH   6   7
ENDBRANCH   1   6
TORSDOF 4
ENDMDL
MODEL 4
REMARK VINA RESULT:      -7.3      0.927      2.098
REMARK SMILES O=C(O)CCc1ccc2c(c1)OCO2
REMARK SMILES IDX 4 1 2 2 1 3 3 4 5 6 6 7 7 8 11 9 8 10 10 11 9 12 12 13 14 14
REMARK SMILES IDX 13 15
REMARK H PARENT 3 5
REMARK Flexibility Score: inf
ROOT
ATOM      1  C   UNL     1       5.381   2.841   0.099  1.00  0.00     0.127 C 
ENDROOT
BRANCH   1   2
ATOM      2  C   UNL     1       6.122   3.848   0.841  1.00  0.00     0.303 C 
ATOM      3  O   UNL     1       6.151   3.959   2.068  1.00  0.00    -0.252 OA
BRANCH   2   4
ATOM      4  O   UNL     1       6.871   4.775   0.099  1.00  0.00    -0.481 OA
ATOM      5  H   UNL     1       7.346   5.490   0.628  1.00  0.00     0.296 HD
ENDBRANCH   2   4
ENDBRANCH   1   2
BRANCH   1   6
ATOM      6  C   UNL     1       5.371   1.509   0.741  1.00  0.00     0.047 C 
BRANCH   6   7
ATOM      7  C   UNL     1       6.190   0.458   0.133  1.00  0.00    -0.043 A 
ATOM      8  C   UNL     1       6.453   0.440  -1.228  1.00  0.00     0.008 A 
ATOM      9  C   UNL     1       6.692  -0.566   0.892  1.00  0.00     0.054 A 
ATOM     10  C   UNL     1       7.194  -0.567  -1.806  1.00  0.00     0.051 A 
ATOM     11  C   UNL     1       7.438  -1.586   0.334  1.00  0.00     0.166 A 
ATOM     12  C   UNL     1       7.691  -1.591  -1.016  1.00  0.00     0.165 A 
ATOM     13  O   UNL     1       8.034  -2.702   0.896  1.00  0.00    -0.454 OA
ATOM     14  O   UNL     1       8.455  -2.729  -1.279  1.00  0.00    -0.454 OA
ATOM     15  C   UNL     1       8.413  -3.591  -0.166  1.00  0.00     0.468 C 
ENDBRANCH   6   7
ENDBRANCH   1   6
TORSDOF 4
ENDMDL
MODEL 5
REMARK VINA RESULT:      -7.2      1.863      5.216
REMARK SMILES O=C(O)CCc1ccc2c(c1)OCO2
REMARK SMILES IDX 4 1 2 2 1 3 3 4 5 6 6 7 7 8 11 9 8 10 10 11 9 12 12 13 14 14
REMARK SMILES IDX 13 15
REMARK H PARENT 3 5
REMARK Flexibility Score: inf
ROOT
ATOM      1  C   UNL     1       8.517  -0.103  -2.908  1.00  0.00     0.127 C 
ENDROOT
BRANCH   1   2
ATOM      2  C   UNL     1       8.724  -1.525  -3.137  1.00  0.00     0.303 C 
ATOM      3  O   UNL     1       9.817  -2.091  -3.191  1.00  0.00    -0.252 OA
BRANCH   2   4
ATOM      4  O   UNL     1       7.582  -2.323  -3.311  1.00  0.00    -0.481 OA
ATOM      5  H   UNL     1       7.365  -2.959  -2.559  1.00  0.00     0.296 HD
ENDBRANCH   2   4
ENDBRANCH   1   2
BRANCH   1   6
ATOM      6  C   UNL     1       8.983   0.366  -1.585  1.00  0.00     0.047 C 
BRANCH   6   7
ATOM      7  C   UNL     1       8.051   0.258  -0.461  1.00  0.00    -0.043 A 
ATOM      8  C   UNL     1       8.163  -0.757   0.477  1.00  0.00     0.008 A 
ATOM      9  C   UNL     1       7.013   1.140  -0.325  1.00  0.00     0.054 A 
ATOM     10  C   UNL     1       7.265  -0.881   1.515  1.00  0.00     0.051 A 
ATOM     11  C   UNL     1       6.101   1.035   0.708  1.00  0.00     0.166 A 
ATOM     12  C   UNL     1       6.224   0.025   1.632  1.00  0.00     0.165 A 
ATOM     13  O   UNL     1       4.994   1.798   1.038  1.00  0.00    -0.454 OA
ATOM     14  O   UNL     1       5.173   0.178   2.538  1.00  0.00    -0.454 OA
ATOM     15  C   UNL     1       4.225   1.076   2.011  1.00  0.00     0.468 C 
ENDBRANCH   6   7
ENDBRANCH   1   6
TORSDOF 4
ENDMDL
