@<TRIPOS>MOLECULE
/home/cewinharhar/GITHUB/reincatalyze/data/processed/docking_pred/2023-May-17-1006_maxeplen10_maxtrainstep1000_seadep16_gamma099_lrac9e-4_lrcr1e-3_sub6/3b11ad51370e6150fddf32b3aa65dd5e24197163_ligand_6.pdbqt
 15 16 0 0 0
SMALL
GASTEIGER

@<TRIPOS>ATOM
      1  C          5.3100    1.9780    1.1290 C.3     1  UNL1        0.1270
      2  C          4.5950    1.0410    1.9800 C.2     1  UNL1        0.3030
      3  O          5.0100   -0.0630    2.3380 O.2     1  UNL1       -0.2520
      4  O          3.3240    1.4240    2.4360 O.3     1  UNL1       -0.4810
      5  H          3.2610    1.6950    3.4050 H       1  UNL1        0.2960
      6  C          5.3290    1.5970   -0.3000 C.3     1  UNL1        0.0470
      7  C          6.5560    0.9930   -0.8230 C.2     1  UNL1       -0.0430
      8  C          7.8080    1.4740   -0.4710 C.2     1  UNL1        0.0080
      9  C          6.5010   -0.0470   -1.7120 C.2     1  UNL1        0.0540
     10  C          8.9620    0.9310   -0.9900 C.2     1  UNL1        0.0510
     11  C          7.6450   -0.6090   -2.2460 C.2     1  UNL1        0.1660
     12  C          8.8790   -0.1220   -1.8870 C.2     1  UNL1        0.1650
     13  O          7.8270   -1.6470   -3.1430 O.2     1  UNL1       -0.4540
     14  O          9.8270   -0.8780   -2.5780 O.2     1  UNL1       -0.4540
     15  C          9.1900   -1.6160   -3.5950 C.3     1  UNL1        0.4680
@<TRIPOS>BOND
     1    15    13    1
     2    15    14    1
     3    13    11    1
     4    14    12    1
     5    11    12    2
     6    11     9    1
     7    12    10    1
     8     9     7    2
     9    10     8    2
    10     7     8    1
    11     7     6    1
    12     6     1    1
    13     1     2    1
    14     2     3    2
    15     2     4    1
    16     4     5    1
