@<TRIPOS>MOLECULE
/home/cewinharhar/GITHUB/reincatalyze/data/processed/docking_pred/2023-May-17-1006_maxeplen10_maxtrainstep1000_seadep16_gamma099_lrac9e-4_lrcr1e-3_sub6/3b29dc4ebb7ee5049f43ecb42d98a580ffb6b5da_ligand_6.pdbqt
 15 16 0 0 0
SMALL
GASTEIGER

@<TRIPOS>ATOM
      1  C          6.4340    1.3400    0.6770 C.3     1  UNL1        0.1270
      2  C          5.2010    1.3500    1.4490 C.2     1  UNL1        0.3030
      3  O          4.2740    2.1500    1.3080 O.2     1  UNL1       -0.2520
      4  O          5.0520    0.3660    2.4380 O.3     1  UNL1       -0.4810
      5  H          4.1070    0.1620    2.7240 H       1  UNL1        0.2960
      6  C          6.2600    0.9120   -0.7270 C.3     1  UNL1        0.0470
      7  C          7.0010   -0.2710   -1.1710 C.2     1  UNL1       -0.0430
      8  C          7.2830   -0.4890   -2.5100 C.2     1  UNL1        0.0080
      9  C          7.4060   -1.2220   -0.2720 C.2     1  UNL1        0.0540
     10  C          7.9480   -1.6190   -2.9330 C.2     1  UNL1        0.0510
     11  C          8.0750   -2.3630   -0.6720 C.2     1  UNL1        0.1660
     12  C          8.3480   -2.5650   -2.0040 C.2     1  UNL1        0.1650
     13  O          8.5700   -3.4370    0.0450 O.2     1  UNL1       -0.4540
     14  O          9.0220   -3.7850   -2.0960 O.2     1  UNL1       -0.4540
     15  C          8.8920   -4.4860   -0.8810 C.3     1  UNL1        0.4680
@<TRIPOS>BOND
     1    10     8    1
     2    10    12    2
     3     8     7    2
     4    14    12    1
     5    14    15    1
     6    12    11    1
     7     7     6    1
     8     7     9    1
     9    15    13    1
    10     6     1    1
    11    11     9    2
    12    11    13    1
    13     1     2    1
    14     3     2    2
    15     2     4    1
    16     4     5    1
