@<TRIPOS>MOLECULE
/home/cewinharhar/GITHUB/reincatalyze/data/processed/docking_pred/2023-May-17-1006_maxeplen10_maxtrainstep1000_seadep16_gamma099_lrac9e-4_lrcr1e-3_sub6/3b29dc4ebb7ee5049f43ecb42d98a580ffb6b5da_ligand_6.pdbqt
 15 16 0 0 0
SMALL
GASTEIGER

@<TRIPOS>ATOM
      1  C          8.3040   -0.3280   -2.8510 C.3     1  UNL1        0.1270
      2  C          8.4620   -1.7560   -3.0750 C.2     1  UNL1        0.3030
      3  O          9.5270   -2.3740   -3.0390 O.2     1  UNL1       -0.2520
      4  O          7.3030   -2.4960   -3.3570 O.3     1  UNL1       -0.4810
      5  H          6.4840   -1.9630   -3.6070 H       1  UNL1        0.2960
      6  C          8.7600    0.1250   -1.5190 C.3     1  UNL1        0.0470
      7  C          7.7910    0.0870   -0.4220 C.2     1  UNL1       -0.0430
      8  C          7.7430   -0.9770    0.4650 C.2     1  UNL1        0.0080
      9  C          6.8720    1.0910   -0.2640 C.2     1  UNL1        0.0540
     10  C          6.8080   -1.0320    1.4750 C.2     1  UNL1        0.0510
     11  C          5.9260    1.0570    0.7420 C.2     1  UNL1        0.1660
     12  C          5.8910   -0.0030    1.6150 C.2     1  UNL1        0.1650
     13  O          4.9190    1.9420    1.0860 O.2     1  UNL1       -0.4540
     14  O          4.8440    0.2430    2.5050 O.2     1  UNL1       -0.4540
     15  C          4.0350    1.2820    2.0050 C.3     1  UNL1        0.4680
@<TRIPOS>BOND
     1     5     4    1
     2     4     2    1
     3     2     3    2
     4     2     1    1
     5     1     6    1
     6     6     7    1
     7     7     9    2
     8     7     8    1
     9     9    11    1
    10     8    10    2
    11    11    13    1
    12    11    12    2
    13    13    15    1
    14    10    12    1
    15    12    14    1
    16    15    14    1
