@<TRIPOS>MOLECULE
/home/cewinharhar/GITHUB/reincatalyze/data/processed/docking_pred/2023-May-17-1006_maxeplen10_maxtrainstep1000_seadep16_gamma099_lrac9e-4_lrcr1e-3_sub6/3b29dc4ebb7ee5049f43ecb42d98a580ffb6b5da_ligand_6.pdbqt
 15 16 0 0 0
SMALL
GASTEIGER

@<TRIPOS>ATOM
      1  C          5.3490    2.8940    0.1890 C.3     1  UNL1        0.1270
      2  C          6.1250    3.8920    0.9090 C.2     1  UNL1        0.3030
      3  O          6.1560    4.0300    2.1340 O.2     1  UNL1       -0.2520
      4  O          6.9050    4.7750    0.1470 O.3     1  UNL1       -0.4810
      5  H          6.6090    4.9210   -0.8060 H       1  UNL1        0.2960
      6  C          5.3560    1.5580    0.8210 C.3     1  UNL1        0.0470
      7  C          6.1680    0.5150    0.1920 C.2     1  UNL1       -0.0430
      8  C          6.3760    0.4860   -1.1790 C.2     1  UNL1        0.0080
      9  C          6.7180   -0.4920    0.9400 C.2     1  UNL1        0.0540
     10  C          7.1100   -0.5140   -1.7760 C.2     1  UNL1        0.0510
     11  C          7.4590   -1.5060    0.3620 C.2     1  UNL1        0.1660
     12  C          7.6570   -1.5210   -0.9970 C.2     1  UNL1        0.1650
     13  O          8.0970   -2.6050    0.9100 O.2     1  UNL1       -0.4540
     14  O          8.4300   -2.6480   -1.2800 O.2     1  UNL1       -0.4540
     15  C          8.4480   -3.4990   -0.1560 C.3     1  UNL1        0.4680
@<TRIPOS>BOND
     1    10     8    1
     2    10    12    2
     3    14    12    1
     4    14    15    1
     5     8     7    2
     6    12    11    1
     7     5     4    1
     8    15    13    1
     9     4     2    1
    10     1     6    1
    11     1     2    1
    12     7     6    1
    13     7     9    1
    14    11    13    1
    15    11     9    2
    16     2     3    2
