MODEL 1
REMARK VINA RESULT:      -7.6      0.000      0.000
REMARK SMILES O=C(O)CCc1ccc2c(c1)OCO2
REMARK SMILES IDX 4 1 2 2 1 3 3 4 5 6 6 7 7 8 11 9 8 10 10 11 9 12 12 13 14 14
REMARK SMILES IDX 13 15
REMARK H PARENT 3 5
REMARK Flexibility Score: inf
ROOT
ATOM      1  C   UNL     1       5.420   2.872   0.151  1.00  0.00     0.127 C 
ENDROOT
BRANCH   1   2
ATOM      2  C   UNL     1       6.273   3.832   0.834  1.00  0.00     0.303 C 
ATOM      3  O   UNL     1       6.861   4.775   0.301  1.00  0.00    -0.252 OA
BRANCH   2   4
ATOM      4  O   UNL     1       6.443   3.672   2.218  1.00  0.00    -0.481 OA
ATOM      5  H   UNL     1       5.762   4.128   2.805  1.00  0.00     0.296 HD
ENDBRANCH   2   4
ENDBRANCH   1   2
BRANCH   1   6
ATOM      6  C   UNL     1       5.334   1.559   0.825  1.00  0.00     0.047 C 
BRANCH   6   7
ATOM      7  C   UNL     1       6.115   0.455   0.261  1.00  0.00    -0.043 A 
ATOM      8  C   UNL     1       6.533  -0.611   1.042  1.00  0.00     0.008 A 
ATOM      9  C   UNL     1       6.490   0.465  -1.057  1.00  0.00     0.054 A 
ATOM     10  C   UNL     1       7.298  -1.631   0.521  1.00  0.00     0.051 A 
ATOM     11  C   UNL     1       7.256  -0.548  -1.601  1.00  0.00     0.166 A 
ATOM     12  C   UNL     1       7.663  -1.599  -0.815  1.00  0.00     0.165 A 
ATOM     13  O   UNL     1       7.744  -0.745  -2.881  1.00  0.00    -0.454 OA
ATOM     14  O   UNL     1       8.410  -2.448  -1.632  1.00  0.00    -0.454 OA
ATOM     15  C   UNL     1       8.734  -1.783  -2.831  1.00  0.00     0.468 C 
ENDBRANCH   6   7
ENDBRANCH   1   6
TORSDOF 4
ENDMDL
MODEL 2
REMARK VINA RESULT:      -7.6      2.130      2.536
REMARK SMILES O=C(O)CCc1ccc2c(c1)OCO2
REMARK SMILES IDX 4 1 2 2 1 3 3 4 5 6 6 7 7 8 11 9 8 10 10 11 9 12 12 13 14 14
REMARK SMILES IDX 13 15
REMARK H PARENT 3 5
REMARK Flexibility Score: inf
ROOT
ATOM      1  C   UNL     1       4.703   1.879   0.682  1.00  0.00     0.127 C 
ENDROOT
BRANCH   1   2
ATOM      2  C   UNL     1       4.392   1.170   1.913  1.00  0.00     0.303 C 
ATOM      3  O   UNL     1       5.113   0.335   2.462  1.00  0.00    -0.252 OA
BRANCH   2   4
ATOM      4  O   UNL     1       3.167   1.461   2.533  1.00  0.00    -0.481 OA
ATOM      5  H   UNL     1       2.497   0.708   2.572  1.00  0.00     0.296 HD
ENDBRANCH   2   4
ENDBRANCH   1   2
BRANCH   1   6
ATOM      6  C   UNL     1       6.130   2.239   0.540  1.00  0.00     0.047 C 
BRANCH   6   7
ATOM      7  C   UNL     1       6.983   1.336  -0.235  1.00  0.00    -0.043 A 
ATOM      8  C   UNL     1       8.343   1.566  -0.376  1.00  0.00     0.008 A 
ATOM      9  C   UNL     1       6.450   0.251  -0.880  1.00  0.00     0.054 A 
ATOM     10  C   UNL     1       9.139   0.738  -1.135  1.00  0.00     0.051 A 
ATOM     11  C   UNL     1       7.230  -0.594  -1.647  1.00  0.00     0.166 A 
ATOM     12  C   UNL     1       8.577  -0.354  -1.776  1.00  0.00     0.165 A 
ATOM     13  O   UNL     1       6.915  -1.728  -2.374  1.00  0.00    -0.454 OA
ATOM     14  O   UNL     1       9.088  -1.360  -2.597  1.00  0.00    -0.454 OA
ATOM     15  C   UNL     1       8.026  -2.037  -3.229  1.00  0.00     0.468 C 
ENDBRANCH   6   7
ENDBRANCH   1   6
TORSDOF 4
ENDMDL
MODEL 3
REMARK VINA RESULT:      -7.4      1.796      5.276
REMARK SMILES O=C(O)CCc1ccc2c(c1)OCO2
REMARK SMILES IDX 4 1 2 2 1 3 3 4 5 6 6 7 7 8 11 9 8 10 10 11 9 12 12 13 14 14
REMARK SMILES IDX 13 15
REMARK H PARENT 3 5
REMARK Flexibility Score: inf
ROOT
ATOM      1  C   UNL     1       8.304  -0.328  -2.851  1.00  0.00     0.127 C 
ENDROOT
BRANCH   1   2
ATOM      2  C   UNL     1       8.462  -1.756  -3.075  1.00  0.00     0.303 C 
ATOM      3  O   UNL     1       9.527  -2.374  -3.039  1.00  0.00    -0.252 OA
BRANCH   2   4
ATOM      4  O   UNL     1       7.303  -2.496  -3.357  1.00  0.00    -0.481 OA
ATOM      5  H   UNL     1       6.484  -1.963  -3.607  1.00  0.00     0.296 HD
ENDBRANCH   2   4
ENDBRANCH   1   2
BRANCH   1   6
ATOM      6  C   UNL     1       8.760   0.125  -1.519  1.00  0.00     0.047 C 
BRANCH   6   7
ATOM      7  C   UNL     1       7.791   0.087  -0.422  1.00  0.00    -0.043 A 
ATOM      8  C   UNL     1       7.743  -0.977   0.465  1.00  0.00     0.008 A 
ATOM      9  C   UNL     1       6.872   1.091  -0.264  1.00  0.00     0.054 A 
ATOM     10  C   UNL     1       6.808  -1.032   1.475  1.00  0.00     0.051 A 
ATOM     11  C   UNL     1       5.926   1.057   0.742  1.00  0.00     0.166 A 
ATOM     12  C   UNL     1       5.891  -0.003   1.615  1.00  0.00     0.165 A 
ATOM     13  O   UNL     1       4.919   1.942   1.086  1.00  0.00    -0.454 OA
ATOM     14  O   UNL     1       4.844   0.243   2.505  1.00  0.00    -0.454 OA
ATOM     15  C   UNL     1       4.035   1.282   2.005  1.00  0.00     0.468 C 
ENDBRANCH   6   7
ENDBRANCH   1   6
TORSDOF 4
ENDMDL
MODEL 4
REMARK VINA RESULT:      -7.4      1.950      2.846
REMARK SMILES O=C(O)CCc1ccc2c(c1)OCO2
REMARK SMILES IDX 4 1 2 2 1 3 3 4 5 6 6 7 7 8 11 9 8 10 10 11 9 12 12 13 14 14
REMARK SMILES IDX 13 15
REMARK H PARENT 3 5
REMARK Flexibility Score: inf
ROOT
ATOM      1  C   UNL     1       6.434   1.340   0.677  1.00  0.00     0.127 C 
ENDROOT
BRANCH   1   2
ATOM      2  C   UNL     1       5.201   1.350   1.449  1.00  0.00     0.303 C 
ATOM      3  O   UNL     1       4.274   2.150   1.308  1.00  0.00    -0.252 OA
BRANCH   2   4
ATOM      4  O   UNL     1       5.052   0.366   2.438  1.00  0.00    -0.481 OA
ATOM      5  H   UNL     1       4.107   0.162   2.724  1.00  0.00     0.296 HD
ENDBRANCH   2   4
ENDBRANCH   1   2
BRANCH   1   6
ATOM      6  C   UNL     1       6.260   0.912  -0.727  1.00  0.00     0.047 C 
BRANCH   6   7
ATOM      7  C   UNL     1       7.001  -0.271  -1.171  1.00  0.00    -0.043 A 
ATOM      8  C   UNL     1       7.283  -0.489  -2.510  1.00  0.00     0.008 A 
ATOM      9  C   UNL     1       7.406  -1.222  -0.272  1.00  0.00     0.054 A 
ATOM     10  C   UNL     1       7.948  -1.619  -2.933  1.00  0.00     0.051 A 
ATOM     11  C   UNL     1       8.075  -2.363  -0.672  1.00  0.00     0.166 A 
ATOM     12  C   UNL     1       8.348  -2.565  -2.004  1.00  0.00     0.165 A 
ATOM     13  O   UNL     1       8.570  -3.437   0.045  1.00  0.00    -0.454 OA
ATOM     14  O   UNL     1       9.022  -3.785  -2.096  1.00  0.00    -0.454 OA
ATOM     15  C   UNL     1       8.892  -4.486  -0.881  1.00  0.00     0.468 C 
ENDBRANCH   6   7
ENDBRANCH   1   6
TORSDOF 4
ENDMDL
MODEL 5
REMARK VINA RESULT:      -7.2      0.924      2.088
REMARK SMILES O=C(O)CCc1ccc2c(c1)OCO2
REMARK SMILES IDX 4 1 2 2 1 3 3 4 5 6 6 7 7 8 11 9 8 10 10 11 9 12 12 13 14 14
REMARK SMILES IDX 13 15
REMARK H PARENT 3 5
REMARK Flexibility Score: inf
ROOT
ATOM      1  C   UNL     1       5.349   2.894   0.189  1.00  0.00     0.127 C 
ENDROOT
BRANCH   1   2
ATOM      2  C   UNL     1       6.125   3.892   0.909  1.00  0.00     0.303 C 
ATOM      3  O   UNL     1       6.156   4.030   2.134  1.00  0.00    -0.252 OA
BRANCH   2   4
ATOM      4  O   UNL     1       6.905   4.775   0.147  1.00  0.00    -0.481 OA
ATOM      5  H   UNL     1       6.609   4.921  -0.806  1.00  0.00     0.296 HD
ENDBRANCH   2   4
ENDBRANCH   1   2
BRANCH   1   6
ATOM      6  C   UNL     1       5.356   1.558   0.821  1.00  0.00     0.047 C 
BRANCH   6   7
ATOM      7  C   UNL     1       6.168   0.515   0.192  1.00  0.00    -0.043 A 
ATOM      8  C   UNL     1       6.376   0.486  -1.179  1.00  0.00     0.008 A 
ATOM      9  C   UNL     1       6.718  -0.492   0.940  1.00  0.00     0.054 A 
ATOM     10  C   UNL     1       7.110  -0.514  -1.776  1.00  0.00     0.051 A 
ATOM     11  C   UNL     1       7.459  -1.506   0.362  1.00  0.00     0.166 A 
ATOM     12  C   UNL     1       7.657  -1.521  -0.997  1.00  0.00     0.165 A 
ATOM     13  O   UNL     1       8.097  -2.605   0.910  1.00  0.00    -0.454 OA
ATOM     14  O   UNL     1       8.430  -2.648  -1.280  1.00  0.00    -0.454 OA
ATOM     15  C   UNL     1       8.448  -3.499  -0.156  1.00  0.00     0.468 C 
ENDBRANCH   6   7
ENDBRANCH   1   6
TORSDOF 4
ENDMDL
