@<TRIPOS>MOLECULE
/home/cewinharhar/GITHUB/reincatalyze/data/processed/docking_pred/2023-May-17-1006_maxeplen10_maxtrainstep1000_seadep16_gamma099_lrac9e-4_lrcr1e-3_sub6/3b29dc4ebb7ee5049f43ecb42d98a580ffb6b5da_ligand_6.pdbqt
 15 16 0 0 0
SMALL
GASTEIGER

@<TRIPOS>ATOM
      1  C          5.4200    2.8720    0.1510 C.3     1  UNL1        0.1270
      2  C          6.2730    3.8320    0.8340 C.2     1  UNL1        0.3030
      3  O          6.8610    4.7750    0.3010 O.2     1  UNL1       -0.2520
      4  O          6.4430    3.6720    2.2180 O.3     1  UNL1       -0.4810
      5  H          5.7620    4.1280    2.8050 H       1  UNL1        0.2960
      6  C          5.3340    1.5590    0.8250 C.3     1  UNL1        0.0470
      7  C          6.1150    0.4550    0.2610 C.2     1  UNL1       -0.0430
      8  C          6.5330   -0.6110    1.0420 C.2     1  UNL1        0.0080
      9  C          6.4900    0.4650   -1.0570 C.2     1  UNL1        0.0540
     10  C          7.2980   -1.6310    0.5210 C.2     1  UNL1        0.0510
     11  C          7.2560   -0.5480   -1.6010 C.2     1  UNL1        0.1660
     12  C          7.6630   -1.5990   -0.8150 C.2     1  UNL1        0.1650
     13  O          7.7440   -0.7450   -2.8810 O.2     1  UNL1       -0.4540
     14  O          8.4100   -2.4480   -1.6320 O.2     1  UNL1       -0.4540
     15  C          8.7340   -1.7830   -2.8310 C.3     1  UNL1        0.4680
@<TRIPOS>BOND
     1    13    15    1
     2    13    11    1
     3    15    14    1
     4    14    12    1
     5    11     9    1
     6    11    12    2
     7     9     7    2
     8    12    10    1
     9     1     6    1
    10     1     2    1
    11     7     6    1
    12     7     8    1
    13     3     2    2
    14    10     8    2
    15     2     4    1
    16     4     5    1
