@<TRIPOS>MOLECULE
/home/cewinharhar/GITHUB/reincatalyze/data/processed/docking_pred/2023-May-17-1006_maxeplen10_maxtrainstep1000_seadep16_gamma099_lrac9e-4_lrcr1e-3_sub6/3b29dc4ebb7ee5049f43ecb42d98a580ffb6b5da_ligand_6.pdbqt
 15 16 0 0 0
SMALL
GASTEIGER

@<TRIPOS>ATOM
      1  C          4.7030    1.8790    0.6820 C.3     1  UNL1        0.1270
      2  C          4.3920    1.1700    1.9130 C.2     1  UNL1        0.3030
      3  O          5.1130    0.3350    2.4620 O.2     1  UNL1       -0.2520
      4  O          3.1670    1.4610    2.5330 O.3     1  UNL1       -0.4810
      5  H          2.4970    0.7080    2.5720 H       1  UNL1        0.2960
      6  C          6.1300    2.2390    0.5400 C.3     1  UNL1        0.0470
      7  C          6.9830    1.3360   -0.2350 C.2     1  UNL1       -0.0430
      8  C          8.3430    1.5660   -0.3760 C.2     1  UNL1        0.0080
      9  C          6.4500    0.2510   -0.8800 C.2     1  UNL1        0.0540
     10  C          9.1390    0.7380   -1.1350 C.2     1  UNL1        0.0510
     11  C          7.2300   -0.5940   -1.6470 C.2     1  UNL1        0.1660
     12  C          8.5770   -0.3540   -1.7760 C.2     1  UNL1        0.1650
     13  O          6.9150   -1.7280   -2.3740 O.2     1  UNL1       -0.4540
     14  O          9.0880   -1.3600   -2.5970 O.2     1  UNL1       -0.4540
     15  C          8.0260   -2.0370   -3.2290 C.3     1  UNL1        0.4680
@<TRIPOS>BOND
     1    15    14    1
     2    15    13    1
     3    14    12    1
     4    13    11    1
     5    12    11    2
     6    12    10    1
     7    11     9    1
     8    10     8    2
     9     9     7    2
    10     8     7    1
    11     7     6    1
    12     6     1    1
    13     1     2    1
    14     2     3    2
    15     2     4    1
    16     4     5    1
