@<TRIPOS>MOLECULE
/home/cewinharhar/GITHUB/reincatalyze/data/processed/docking_pred/2023-May-17-1006_maxeplen10_maxtrainstep1000_seadep16_gamma099_lrac9e-4_lrcr1e-3_sub6/3b98b0574a09314ff34419eb6cee054edaec9098_ligand_6.pdbqt
 15 16 0 0 0
SMALL
GASTEIGER

@<TRIPOS>ATOM
      1  C          5.4140    2.8780    0.1190 C.3     1  UNL1        0.1270
      2  C          6.2390    3.8580    0.8090 C.2     1  UNL1        0.3030
      3  O          6.8630    4.7750    0.2720 O.2     1  UNL1       -0.2520
      4  O          6.3330    3.7520    2.2050 O.3     1  UNL1       -0.4810
      5  H          5.4720    3.5700    2.6970 H       1  UNL1        0.2960
      6  C          5.3460    1.5670    0.7970 C.3     1  UNL1        0.0470
      7  C          6.1280    0.4680    0.2270 C.2     1  UNL1       -0.0430
      8  C          6.5950   -0.5740    1.0130 C.2     1  UNL1        0.0080
      9  C          6.4550    0.4580   -1.1030 C.2     1  UNL1        0.0540
     10  C          7.3610   -1.5900    0.4850 C.2     1  UNL1        0.0510
     11  C          7.2220   -0.5510   -1.6550 C.2     1  UNL1        0.1660
     12  C          7.6770   -1.5780   -0.8640 C.2     1  UNL1        0.1650
     13  O          7.6670   -0.7630   -2.9480 O.2     1  UNL1       -0.4540
     14  O          8.4120   -2.4290   -1.6910 O.2     1  UNL1       -0.4540
     15  C          8.6790   -1.7810   -2.9140 C.3     1  UNL1        0.4680
@<TRIPOS>BOND
     1    13    15    1
     2    13    11    1
     3    15    14    1
     4    14    12    1
     5    11     9    1
     6    11    12    2
     7     9     7    2
     8    12    10    1
     9     1     6    1
    10     1     2    1
    11     7     6    1
    12     7     8    1
    13     3     2    2
    14    10     8    2
    15     2     4    1
    16     4     5    1
