@<TRIPOS>MOLECULE
/home/cewinharhar/GITHUB/reincatalyze/data/processed/docking_pred/2023-May-17-1006_maxeplen10_maxtrainstep1000_seadep16_gamma099_lrac9e-4_lrcr1e-3_sub6/3b98b0574a09314ff34419eb6cee054edaec9098_ligand_6.pdbqt
 15 16 0 0 0
SMALL
GASTEIGER

@<TRIPOS>ATOM
      1  C          5.3830    2.8390    0.2370 C.3     1  UNL1        0.1270
      2  C          6.1970    3.8050    0.9590 C.2     1  UNL1        0.3030
      3  O          6.3470    3.8460    2.1810 O.2     1  UNL1       -0.2520
      4  O          6.8710    4.7750    0.2000 O.3     1  UNL1       -0.4810
      5  H          6.8670    4.6400   -0.8000 H       1  UNL1        0.2960
      6  C          5.3770    1.4900    0.8410 C.3     1  UNL1        0.0470
      7  C          6.2130    0.4640    0.2150 C.2     1  UNL1       -0.0430
      8  C          6.4850    0.4800   -1.1440 C.2     1  UNL1        0.0080
      9  C          6.7230   -0.5710    0.9540 C.2     1  UNL1        0.0540
     10  C          7.2410   -0.5040   -1.7410 C.2     1  UNL1        0.0510
     11  C          7.4850   -1.5690    0.3770 C.2     1  UNL1        0.1660
     12  C          7.7470   -1.5390   -0.9720 C.2     1  UNL1        0.1650
     13  O          8.0920   -2.6900    0.9160 O.2     1  UNL1       -0.4540
     14  O          8.5270   -2.6620   -1.2560 O.2     1  UNL1       -0.4540
     15  C          8.4890   -3.5500   -0.1630 C.3     1  UNL1        0.4680
@<TRIPOS>BOND
     1    10     8    1
     2    10    12    2
     3    14    12    1
     4    14    15    1
     5     8     7    2
     6    12    11    1
     7     5     4    1
     8    15    13    1
     9     4     2    1
    10     7     6    1
    11     7     9    1
    12     1     6    1
    13     1     2    1
    14    11    13    1
    15    11     9    2
    16     2     3    2
