MODEL 1
REMARK VINA RESULT:      -7.7      0.000      0.000
REMARK SMILES O=C(O)CCc1ccc2c(c1)OCO2
REMARK SMILES IDX 4 1 2 2 1 3 3 4 5 6 6 7 7 8 11 9 8 10 10 11 9 12 12 13 14 14
REMARK SMILES IDX 13 15
REMARK H PARENT 3 5
REMARK Flexibility Score: inf
ROOT
ATOM      1  C   UNL     1       5.414   2.878   0.119  1.00  0.00     0.127 C 
ENDROOT
BRANCH   1   2
ATOM      2  C   UNL     1       6.239   3.858   0.809  1.00  0.00     0.303 C 
ATOM      3  O   UNL     1       6.863   4.775   0.272  1.00  0.00    -0.252 OA
BRANCH   2   4
ATOM      4  O   UNL     1       6.333   3.752   2.205  1.00  0.00    -0.481 OA
ATOM      5  H   UNL     1       5.472   3.570   2.697  1.00  0.00     0.296 HD
ENDBRANCH   2   4
ENDBRANCH   1   2
BRANCH   1   6
ATOM      6  C   UNL     1       5.346   1.567   0.797  1.00  0.00     0.047 C 
BRANCH   6   7
ATOM      7  C   UNL     1       6.128   0.468   0.227  1.00  0.00    -0.043 A 
ATOM      8  C   UNL     1       6.595  -0.574   1.013  1.00  0.00     0.008 A 
ATOM      9  C   UNL     1       6.455   0.458  -1.103  1.00  0.00     0.054 A 
ATOM     10  C   UNL     1       7.361  -1.590   0.485  1.00  0.00     0.051 A 
ATOM     11  C   UNL     1       7.222  -0.551  -1.655  1.00  0.00     0.166 A 
ATOM     12  C   UNL     1       7.677  -1.578  -0.864  1.00  0.00     0.165 A 
ATOM     13  O   UNL     1       7.667  -0.763  -2.948  1.00  0.00    -0.454 OA
ATOM     14  O   UNL     1       8.412  -2.429  -1.691  1.00  0.00    -0.454 OA
ATOM     15  C   UNL     1       8.679  -1.781  -2.914  1.00  0.00     0.468 C 
ENDBRANCH   6   7
ENDBRANCH   1   6
TORSDOF 4
ENDMDL
MODEL 2
REMARK VINA RESULT:      -7.6      2.118      2.505
REMARK SMILES O=C(O)CCc1ccc2c(c1)OCO2
REMARK SMILES IDX 4 1 2 2 1 3 3 4 5 6 6 7 7 8 11 9 8 10 10 11 9 12 12 13 14 14
REMARK SMILES IDX 13 15
REMARK H PARENT 3 5
REMARK Flexibility Score: inf
ROOT
ATOM      1  C   UNL     1       4.696   1.888   0.674  1.00  0.00     0.127 C 
ENDROOT
BRANCH   1   2
ATOM      2  C   UNL     1       4.395   1.179   1.908  1.00  0.00     0.303 C 
ATOM      3  O   UNL     1       5.126   0.352   2.456  1.00  0.00    -0.252 OA
BRANCH   2   4
ATOM      4  O   UNL     1       3.169   1.460   2.531  1.00  0.00    -0.481 OA
ATOM      5  H   UNL     1       2.389   1.638   1.917  1.00  0.00     0.296 HD
ENDBRANCH   2   4
ENDBRANCH   1   2
BRANCH   1   6
ATOM      6  C   UNL     1       6.121   2.250   0.522  1.00  0.00     0.047 C 
BRANCH   6   7
ATOM      7  C   UNL     1       6.972   1.340  -0.249  1.00  0.00    -0.043 A 
ATOM      8  C   UNL     1       8.334   1.561  -0.384  1.00  0.00     0.008 A 
ATOM      9  C   UNL     1       6.435   0.258  -0.895  1.00  0.00     0.054 A 
ATOM     10  C   UNL     1       9.128   0.726  -1.138  1.00  0.00     0.051 A 
ATOM     11  C   UNL     1       7.213  -0.593  -1.657  1.00  0.00     0.166 A 
ATOM     12  C   UNL     1       8.562  -0.363  -1.781  1.00  0.00     0.165 A 
ATOM     13  O   UNL     1       6.893  -1.727  -2.384  1.00  0.00    -0.454 OA
ATOM     14  O   UNL     1       9.070  -1.374  -2.598  1.00  0.00    -0.454 OA
ATOM     15  C   UNL     1       8.006  -2.044  -3.233  1.00  0.00     0.468 C 
ENDBRANCH   6   7
ENDBRANCH   1   6
TORSDOF 4
ENDMDL
MODEL 3
REMARK VINA RESULT:      -7.5      2.006      3.003
REMARK SMILES O=C(O)CCc1ccc2c(c1)OCO2
REMARK SMILES IDX 4 1 2 2 1 3 3 4 5 6 6 7 7 8 11 9 8 10 10 11 9 12 12 13 14 14
REMARK SMILES IDX 13 15
REMARK H PARENT 3 5
REMARK Flexibility Score: inf
ROOT
ATOM      1  C   UNL     1       6.450   1.233   0.740  1.00  0.00     0.127 C 
ENDROOT
BRANCH   1   2
ATOM      2  C   UNL     1       5.249   1.129   1.555  1.00  0.00     0.303 C 
ATOM      3  O   UNL     1       5.044   0.281   2.425  1.00  0.00    -0.252 OA
BRANCH   2   4
ATOM      4  O   UNL     1       4.235   2.074   1.331  1.00  0.00    -0.481 OA
ATOM      5  H   UNL     1       3.590   1.867   0.585  1.00  0.00     0.296 HD
ENDBRANCH   2   4
ENDBRANCH   1   2
BRANCH   1   6
ATOM      6  C   UNL     1       6.264   0.801  -0.661  1.00  0.00     0.047 C 
BRANCH   6   7
ATOM      7  C   UNL     1       7.005  -0.380  -1.109  1.00  0.00    -0.043 A 
ATOM      8  C   UNL     1       7.271  -0.603  -2.452  1.00  0.00     0.008 A 
ATOM      9  C   UNL     1       7.425  -1.326  -0.212  1.00  0.00     0.054 A 
ATOM     10  C   UNL     1       7.936  -1.731  -2.878  1.00  0.00     0.051 A 
ATOM     11  C   UNL     1       8.095  -2.465  -0.616  1.00  0.00     0.166 A 
ATOM     12  C   UNL     1       8.353  -2.672  -1.950  1.00  0.00     0.165 A 
ATOM     13  O   UNL     1       8.604  -3.534   0.100  1.00  0.00    -0.454 OA
ATOM     14  O   UNL     1       9.030  -3.888  -2.045  1.00  0.00    -0.454 OA
ATOM     15  C   UNL     1       8.920  -4.585  -0.826  1.00  0.00     0.468 C 
ENDBRANCH   6   7
ENDBRANCH   1   6
TORSDOF 4
ENDMDL
MODEL 4
REMARK VINA RESULT:      -7.4      1.788      5.289
REMARK SMILES O=C(O)CCc1ccc2c(c1)OCO2
REMARK SMILES IDX 4 1 2 2 1 3 3 4 5 6 6 7 7 8 11 9 8 10 10 11 9 12 12 13 14 14
REMARK SMILES IDX 13 15
REMARK H PARENT 3 5
REMARK Flexibility Score: inf
ROOT
ATOM      1  C   UNL     1       8.315  -0.321  -2.867  1.00  0.00     0.127 C 
ENDROOT
BRANCH   1   2
ATOM      2  C   UNL     1       8.476  -1.751  -3.080  1.00  0.00     0.303 C 
ATOM      3  O   UNL     1       9.545  -2.365  -3.046  1.00  0.00    -0.252 OA
BRANCH   2   4
ATOM      4  O   UNL     1       7.318  -2.498  -3.347  1.00  0.00    -0.481 OA
ATOM      5  H   UNL     1       6.496  -1.970  -3.597  1.00  0.00     0.296 HD
ENDBRANCH   2   4
ENDBRANCH   1   2
BRANCH   1   6
ATOM      6  C   UNL     1       8.766   0.143  -1.538  1.00  0.00     0.047 C 
BRANCH   6   7
ATOM      7  C   UNL     1       7.797   0.098  -0.440  1.00  0.00    -0.043 A 
ATOM      8  C   UNL     1       7.740  -0.977   0.433  1.00  0.00     0.008 A 
ATOM      9  C   UNL     1       6.887   1.108  -0.268  1.00  0.00     0.054 A 
ATOM     10  C   UNL     1       6.806  -1.037   1.443  1.00  0.00     0.051 A 
ATOM     11  C   UNL     1       5.941   1.069   0.739  1.00  0.00     0.166 A 
ATOM     12  C   UNL     1       5.897  -0.002   1.598  1.00  0.00     0.165 A 
ATOM     13  O   UNL     1       4.943   1.958   1.096  1.00  0.00    -0.454 OA
ATOM     14  O   UNL     1       4.853   0.240   2.492  1.00  0.00    -0.454 OA
ATOM     15  C   UNL     1       4.053   1.294   2.006  1.00  0.00     0.468 C 
ENDBRANCH   6   7
ENDBRANCH   1   6
TORSDOF 4
ENDMDL
MODEL 5
REMARK VINA RESULT:      -7.4      0.942      2.114
REMARK SMILES O=C(O)CCc1ccc2c(c1)OCO2
REMARK SMILES IDX 4 1 2 2 1 3 3 4 5 6 6 7 7 8 11 9 8 10 10 11 9 12 12 13 14 14
REMARK SMILES IDX 13 15
REMARK H PARENT 3 5
REMARK Flexibility Score: inf
ROOT
ATOM      1  C   UNL     1       5.383   2.839   0.237  1.00  0.00     0.127 C 
ENDROOT
BRANCH   1   2
ATOM      2  C   UNL     1       6.197   3.805   0.959  1.00  0.00     0.303 C 
ATOM      3  O   UNL     1       6.347   3.846   2.181  1.00  0.00    -0.252 OA
BRANCH   2   4
ATOM      4  O   UNL     1       6.871   4.775   0.200  1.00  0.00    -0.481 OA
ATOM      5  H   UNL     1       6.867   4.640  -0.800  1.00  0.00     0.296 HD
ENDBRANCH   2   4
ENDBRANCH   1   2
BRANCH   1   6
ATOM      6  C   UNL     1       5.377   1.490   0.841  1.00  0.00     0.047 C 
BRANCH   6   7
ATOM      7  C   UNL     1       6.213   0.464   0.215  1.00  0.00    -0.043 A 
ATOM      8  C   UNL     1       6.485   0.480  -1.144  1.00  0.00     0.008 A 
ATOM      9  C   UNL     1       6.723  -0.571   0.954  1.00  0.00     0.054 A 
ATOM     10  C   UNL     1       7.241  -0.504  -1.741  1.00  0.00     0.051 A 
ATOM     11  C   UNL     1       7.485  -1.569   0.377  1.00  0.00     0.166 A 
ATOM     12  C   UNL     1       7.747  -1.539  -0.972  1.00  0.00     0.165 A 
ATOM     13  O   UNL     1       8.092  -2.690   0.916  1.00  0.00    -0.454 OA
ATOM     14  O   UNL     1       8.527  -2.662  -1.256  1.00  0.00    -0.454 OA
ATOM     15  C   UNL     1       8.489  -3.550  -0.163  1.00  0.00     0.468 C 
ENDBRANCH   6   7
ENDBRANCH   1   6
TORSDOF 4
ENDMDL
