@<TRIPOS>MOLECULE
/home/cewinharhar/GITHUB/reincatalyze/data/processed/docking_pred/2023-May-17-1006_maxeplen10_maxtrainstep1000_seadep16_gamma099_lrac9e-4_lrcr1e-3_sub6/3b98b0574a09314ff34419eb6cee054edaec9098_ligand_6.pdbqt
 15 16 0 0 0
SMALL
GASTEIGER

@<TRIPOS>ATOM
      1  C          8.3150   -0.3210   -2.8670 C.3     1  UNL1        0.1270
      2  C          8.4760   -1.7510   -3.0800 C.2     1  UNL1        0.3030
      3  O          9.5450   -2.3650   -3.0460 O.2     1  UNL1       -0.2520
      4  O          7.3180   -2.4980   -3.3470 O.3     1  UNL1       -0.4810
      5  H          6.4960   -1.9700   -3.5970 H       1  UNL1        0.2960
      6  C          8.7660    0.1430   -1.5380 C.3     1  UNL1        0.0470
      7  C          7.7970    0.0980   -0.4400 C.2     1  UNL1       -0.0430
      8  C          7.7400   -0.9770    0.4330 C.2     1  UNL1        0.0080
      9  C          6.8870    1.1080   -0.2680 C.2     1  UNL1        0.0540
     10  C          6.8060   -1.0370    1.4430 C.2     1  UNL1        0.0510
     11  C          5.9410    1.0690    0.7390 C.2     1  UNL1        0.1660
     12  C          5.8970   -0.0020    1.5980 C.2     1  UNL1        0.1650
     13  O          4.9430    1.9580    1.0960 O.2     1  UNL1       -0.4540
     14  O          4.8530    0.2400    2.4920 O.2     1  UNL1       -0.4540
     15  C          4.0530    1.2940    2.0060 C.3     1  UNL1        0.4680
@<TRIPOS>BOND
     1     5     4    1
     2     4     2    1
     3     2     3    2
     4     2     1    1
     5     1     6    1
     6     6     7    1
     7     7     9    2
     8     7     8    1
     9     9    11    1
    10     8    10    2
    11    11    13    1
    12    11    12    2
    13    13    15    1
    14    10    12    1
    15    12    14    1
    16    15    14    1
