@<TRIPOS>MOLECULE
/home/cewinharhar/GITHUB/reincatalyze/data/processed/docking_pred/2023-May-17-1006_maxeplen10_maxtrainstep1000_seadep16_gamma099_lrac9e-4_lrcr1e-3_sub6/3b98b0574a09314ff34419eb6cee054edaec9098_ligand_6.pdbqt
 15 16 0 0 0
SMALL
GASTEIGER

@<TRIPOS>ATOM
      1  C          4.6960    1.8880    0.6740 C.3     1  UNL1        0.1270
      2  C          4.3950    1.1790    1.9080 C.2     1  UNL1        0.3030
      3  O          5.1260    0.3520    2.4560 O.2     1  UNL1       -0.2520
      4  O          3.1690    1.4600    2.5310 O.3     1  UNL1       -0.4810
      5  H          2.3890    1.6380    1.9170 H       1  UNL1        0.2960
      6  C          6.1210    2.2500    0.5220 C.3     1  UNL1        0.0470
      7  C          6.9720    1.3400   -0.2490 C.2     1  UNL1       -0.0430
      8  C          8.3340    1.5610   -0.3840 C.2     1  UNL1        0.0080
      9  C          6.4350    0.2580   -0.8950 C.2     1  UNL1        0.0540
     10  C          9.1280    0.7260   -1.1380 C.2     1  UNL1        0.0510
     11  C          7.2130   -0.5930   -1.6570 C.2     1  UNL1        0.1660
     12  C          8.5620   -0.3630   -1.7810 C.2     1  UNL1        0.1650
     13  O          6.8930   -1.7270   -2.3840 O.2     1  UNL1       -0.4540
     14  O          9.0700   -1.3740   -2.5980 O.2     1  UNL1       -0.4540
     15  C          8.0060   -2.0440   -3.2330 C.3     1  UNL1        0.4680
@<TRIPOS>BOND
     1    15    14    1
     2    15    13    1
     3    14    12    1
     4    13    11    1
     5    12    11    2
     6    12    10    1
     7    11     9    1
     8    10     8    2
     9     9     7    2
    10     8     7    1
    11     7     6    1
    12     6     1    1
    13     1     2    1
    14     2     3    2
    15     2     4    1
    16     5     4    1
