@<TRIPOS>MOLECULE
/home/cewinharhar/GITHUB/reincatalyze/data/processed/docking_pred/2023-May-17-1006_maxeplen10_maxtrainstep1000_seadep16_gamma099_lrac9e-4_lrcr1e-3_sub6/3b98b0574a09314ff34419eb6cee054edaec9098_ligand_6.pdbqt
 15 16 0 0 0
SMALL
GASTEIGER

@<TRIPOS>ATOM
      1  C          6.4500    1.2330    0.7400 C.3     1  UNL1        0.1270
      2  C          5.2490    1.1290    1.5550 C.2     1  UNL1        0.3030
      3  O          5.0440    0.2810    2.4250 O.2     1  UNL1       -0.2520
      4  O          4.2350    2.0740    1.3310 O.3     1  UNL1       -0.4810
      5  H          3.5900    1.8670    0.5850 H       1  UNL1        0.2960
      6  C          6.2640    0.8010   -0.6610 C.3     1  UNL1        0.0470
      7  C          7.0050   -0.3800   -1.1090 C.2     1  UNL1       -0.0430
      8  C          7.2710   -0.6030   -2.4520 C.2     1  UNL1        0.0080
      9  C          7.4250   -1.3260   -0.2120 C.2     1  UNL1        0.0540
     10  C          7.9360   -1.7310   -2.8780 C.2     1  UNL1        0.0510
     11  C          8.0950   -2.4650   -0.6160 C.2     1  UNL1        0.1660
     12  C          8.3530   -2.6720   -1.9500 C.2     1  UNL1        0.1650
     13  O          8.6040   -3.5340    0.1000 O.2     1  UNL1       -0.4540
     14  O          9.0300   -3.8880   -2.0450 O.2     1  UNL1       -0.4540
     15  C          8.9200   -4.5850   -0.8260 C.3     1  UNL1        0.4680
@<TRIPOS>BOND
     1    10     8    1
     2    10    12    2
     3     8     7    2
     4    14    12    1
     5    14    15    1
     6    12    11    1
     7     7     6    1
     8     7     9    1
     9    15    13    1
    10     6     1    1
    11    11     9    2
    12    11    13    1
    13     5     4    1
    14     1     2    1
    15     4     2    1
    16     2     3    2
