@<TRIPOS>MOLECULE
/home/cewinharhar/GITHUB/reincatalyze/data/processed/docking_pred/2023-May-17-1006_maxeplen10_maxtrainstep1000_seadep16_gamma099_lrac9e-4_lrcr1e-3_sub6/3bf4b9a3f06cfa5433c2fd34b58c3faf64c233d9_ligand_6.pdbqt
 15 16 0 0 0
SMALL
GASTEIGER

@<TRIPOS>ATOM
      1  C          5.6380    2.4620    0.0410 C.3     1  UNL1        0.1270
      2  C          6.3020    3.4500    0.8770 C.2     1  UNL1        0.3030
      3  O          6.5590    3.3200    2.0750 O.2     1  UNL1       -0.2520
      4  O          6.6840    4.6560    0.2690 O.3     1  UNL1       -0.4810
      5  H          6.1690    4.9220   -0.5560 H       1  UNL1        0.2960
      6  C          5.5970    1.1070    0.6310 C.3     1  UNL1        0.0470
      7  C          6.4060    0.0660   -0.0070 C.2     1  UNL1       -0.0430
      8  C          6.5680    0.0160   -1.3830 C.2     1  UNL1        0.0080
      9  C          6.9960   -0.9190    0.7400 C.2     1  UNL1        0.0540
     10  C          7.2980   -0.9830   -1.9880 C.2     1  UNL1        0.0510
     11  C          7.7330   -1.9310    0.1550 C.2     1  UNL1        0.1660
     12  C          7.8870   -1.9670   -1.2100 C.2     1  UNL1        0.1650
     13  O          8.4080   -3.0100    0.7000 O.2     1  UNL1       -0.4540
     14  O          8.6680   -3.0870   -1.4980 O.2     1  UNL1       -0.4540
     15  C          8.7380   -3.9170   -0.3620 C.3     1  UNL1        0.4680
@<TRIPOS>BOND
     1    10     8    1
     2    10    12    2
     3    14    12    1
     4    14    15    1
     5     8     7    2
     6    12    11    1
     7     5     4    1
     8    15    13    1
     9     7     6    1
    10     7     9    1
    11     1     6    1
    12     1     2    1
    13    11    13    1
    14    11     9    2
    15     4     2    1
    16     2     3    2
