@<TRIPOS>MOLECULE
/home/cewinharhar/GITHUB/reincatalyze/data/processed/docking_pred/2023-May-17-1006_maxeplen10_maxtrainstep1000_seadep16_gamma099_lrac9e-4_lrcr1e-3_sub6/3bf4b9a3f06cfa5433c2fd34b58c3faf64c233d9_ligand_6.pdbqt
 15 16 0 0 0
SMALL
GASTEIGER

@<TRIPOS>ATOM
      1  C          8.3140   -0.3210   -2.8380 C.3     1  UNL1        0.1270
      2  C          8.4710   -1.7490   -3.0660 C.2     1  UNL1        0.3030
      3  O          9.5360   -2.3670   -3.0350 O.2     1  UNL1       -0.2520
      4  O          7.3110   -2.4880   -3.3450 O.3     1  UNL1       -0.4810
      5  H          7.3620   -3.4790   -3.1700 H       1  UNL1        0.2960
      6  C          8.7680    0.1280   -1.5040 C.3     1  UNL1        0.0470
      7  C          7.7940    0.0920   -0.4100 C.2     1  UNL1       -0.0430
      8  C          7.7390   -0.9710    0.4770 C.2     1  UNL1        0.0080
      9  C          6.8780    1.0990   -0.2560 C.2     1  UNL1        0.0540
     10  C          6.8000   -1.0230    1.4840 C.2     1  UNL1        0.0510
     11  C          5.9280    1.0690    0.7470 C.2     1  UNL1        0.1660
     12  C          5.8860    0.0080    1.6200 C.2     1  UNL1        0.1650
     13  O          4.9230    1.9570    1.0880 O.2     1  UNL1       -0.4540
     14  O          4.8360    0.2570    2.5060 O.2     1  UNL1       -0.4540
     15  C          4.0330    1.3000    2.0030 C.3     1  UNL1        0.4680
@<TRIPOS>BOND
     1     4     5    1
     2     4     2    1
     3     2     3    2
     4     2     1    1
     5     1     6    1
     6     6     7    1
     7     7     9    2
     8     7     8    1
     9     9    11    1
    10     8    10    2
    11    11    13    1
    12    11    12    2
    13    13    15    1
    14    10    12    1
    15    12    14    1
    16    15    14    1
