@<TRIPOS>MOLECULE
/home/cewinharhar/GITHUB/reincatalyze/data/processed/docking_pred/2023-May-17-1006_maxeplen10_maxtrainstep1000_seadep16_gamma099_lrac9e-4_lrcr1e-3_sub6/3bf4b9a3f06cfa5433c2fd34b58c3faf64c233d9_ligand_6.pdbqt
 15 16 0 0 0
SMALL
GASTEIGER

@<TRIPOS>ATOM
      1  C          6.4140    1.3210    0.6940 C.3     1  UNL1        0.1270
      2  C          5.1820    1.3320    1.4660 C.2     1  UNL1        0.3030
      3  O          4.2530    2.1290    1.3220 O.2     1  UNL1       -0.2520
      4  O          5.0360    0.3530    2.4610 O.3     1  UNL1       -0.4810
      5  H          5.8610   -0.1820    2.6830 H       1  UNL1        0.2960
      6  C          6.2450    0.8550   -0.6990 C.3     1  UNL1        0.0470
      7  C          6.9850   -0.3410   -1.1080 C.2     1  UNL1       -0.0430
      8  C          7.2840   -0.5900   -2.4380 C.2     1  UNL1        0.0080
      9  C          7.3720   -1.2750   -0.1830 C.2     1  UNL1        0.0540
     10  C          7.9480   -1.7320   -2.8280 C.2     1  UNL1        0.0510
     11  C          8.0400   -2.4280   -0.5500 C.2     1  UNL1        0.1660
     12  C          8.3300   -2.6600   -1.8730 C.2     1  UNL1        0.1650
     13  O          8.5190   -3.4900    0.1970 O.2     1  UNL1       -0.4540
     14  O          8.9970   -3.8850   -1.9300 O.2     1  UNL1       -0.4540
     15  C          8.8470   -4.5600   -0.7020 C.3     1  UNL1        0.4680
@<TRIPOS>BOND
     1    10     8    1
     2    10    12    2
     3     8     7    2
     4    14    12    1
     5    14    15    1
     6    12    11    1
     7     7     6    1
     8     7     9    1
     9    15    13    1
    10     6     1    1
    11    11     9    2
    12    11    13    1
    13     1     2    1
    14     3     2    2
    15     2     4    1
    16     4     5    1
