MODEL 1
REMARK VINA RESULT:      -7.7      0.000      0.000
REMARK SMILES O=C(O)CCc1ccc2c(c1)OCO2
REMARK SMILES IDX 4 1 2 2 1 3 3 4 5 6 6 7 7 8 11 9 8 10 10 11 9 12 12 13 14 14
REMARK SMILES IDX 13 15
REMARK H PARENT 3 5
REMARK Flexibility Score: inf
ROOT
ATOM      1  C   UNL     1       5.415   2.880   0.109  1.00  0.00     0.127 C 
ENDROOT
BRANCH   1   2
ATOM      2  C   UNL     1       6.233   3.863   0.802  1.00  0.00     0.303 C 
ATOM      3  O   UNL     1       6.875   4.768   0.265  1.00  0.00    -0.252 OA
BRANCH   2   4
ATOM      4  O   UNL     1       6.299   3.776   2.201  1.00  0.00    -0.481 OA
ATOM      5  H   UNL     1       5.500   4.126   2.707  1.00  0.00     0.296 HD
ENDBRANCH   2   4
ENDBRANCH   1   2
BRANCH   1   6
ATOM      6  C   UNL     1       5.346   1.570   0.791  1.00  0.00     0.047 C 
BRANCH   6   7
ATOM      7  C   UNL     1       6.121   0.467   0.219  1.00  0.00    -0.043 A 
ATOM      8  C   UNL     1       6.574  -0.584   1.003  1.00  0.00     0.008 A 
ATOM      9  C   UNL     1       6.457   0.461  -1.109  1.00  0.00     0.054 A 
ATOM     10  C   UNL     1       7.333  -1.603   0.473  1.00  0.00     0.051 A 
ATOM     11  C   UNL     1       7.217  -0.551  -1.662  1.00  0.00     0.166 A 
ATOM     12  C   UNL     1       7.658  -1.587  -0.873  1.00  0.00     0.165 A 
ATOM     13  O   UNL     1       7.668  -0.761  -2.953  1.00  0.00    -0.454 OA
ATOM     14  O   UNL     1       8.390  -2.440  -1.701  1.00  0.00    -0.454 OA
ATOM     15  C   UNL     1       8.671  -1.789  -2.918  1.00  0.00     0.468 C 
ENDBRANCH   6   7
ENDBRANCH   1   6
TORSDOF 4
ENDMDL
MODEL 2
REMARK VINA RESULT:      -7.6      2.123      2.513
REMARK SMILES O=C(O)CCc1ccc2c(c1)OCO2
REMARK SMILES IDX 4 1 2 2 1 3 3 4 5 6 6 7 7 8 11 9 8 10 10 11 9 12 12 13 14 14
REMARK SMILES IDX 13 15
REMARK H PARENT 3 5
REMARK Flexibility Score: inf
ROOT
ATOM      1  C   UNL     1       4.699   1.872   0.679  1.00  0.00     0.127 C 
ENDROOT
BRANCH   1   2
ATOM      2  C   UNL     1       4.396   1.165   1.914  1.00  0.00     0.303 C 
ATOM      3  O   UNL     1       5.124   0.336   2.462  1.00  0.00    -0.252 OA
BRANCH   2   4
ATOM      4  O   UNL     1       3.171   1.450   2.536  1.00  0.00    -0.481 OA
ATOM      5  H   UNL     1       3.221   1.945   3.413  1.00  0.00     0.296 HD
ENDBRANCH   2   4
ENDBRANCH   1   2
BRANCH   1   6
ATOM      6  C   UNL     1       6.124   2.235   0.529  1.00  0.00     0.047 C 
BRANCH   6   7
ATOM      7  C   UNL     1       6.975   1.328  -0.245  1.00  0.00    -0.043 A 
ATOM      8  C   UNL     1       8.336   1.556  -0.386  1.00  0.00     0.008 A 
ATOM      9  C   UNL     1       6.441   0.244  -0.888  1.00  0.00     0.054 A 
ATOM     10  C   UNL     1       9.131   0.724  -1.143  1.00  0.00     0.051 A 
ATOM     11  C   UNL     1       7.219  -0.604  -1.652  1.00  0.00     0.166 A 
ATOM     12  C   UNL     1       8.567  -0.368  -1.783  1.00  0.00     0.165 A 
ATOM     13  O   UNL     1       6.902  -1.740  -2.378  1.00  0.00    -0.454 OA
ATOM     14  O   UNL     1       9.076  -1.377  -2.601  1.00  0.00    -0.454 OA
ATOM     15  C   UNL     1       8.012  -2.053  -3.232  1.00  0.00     0.468 C 
ENDBRANCH   6   7
ENDBRANCH   1   6
TORSDOF 4
ENDMDL
MODEL 3
REMARK VINA RESULT:      -7.5      1.974      2.883
REMARK SMILES O=C(O)CCc1ccc2c(c1)OCO2
REMARK SMILES IDX 4 1 2 2 1 3 3 4 5 6 6 7 7 8 11 9 8 10 10 11 9 12 12 13 14 14
REMARK SMILES IDX 13 15
REMARK H PARENT 3 5
REMARK Flexibility Score: inf
ROOT
ATOM      1  C   UNL     1       6.414   1.321   0.694  1.00  0.00     0.127 C 
ENDROOT
BRANCH   1   2
ATOM      2  C   UNL     1       5.182   1.332   1.466  1.00  0.00     0.303 C 
ATOM      3  O   UNL     1       4.253   2.129   1.322  1.00  0.00    -0.252 OA
BRANCH   2   4
ATOM      4  O   UNL     1       5.036   0.353   2.461  1.00  0.00    -0.481 OA
ATOM      5  H   UNL     1       5.861  -0.182   2.683  1.00  0.00     0.296 HD
ENDBRANCH   2   4
ENDBRANCH   1   2
BRANCH   1   6
ATOM      6  C   UNL     1       6.245   0.855  -0.699  1.00  0.00     0.047 C 
BRANCH   6   7
ATOM      7  C   UNL     1       6.985  -0.341  -1.108  1.00  0.00    -0.043 A 
ATOM      8  C   UNL     1       7.284  -0.590  -2.438  1.00  0.00     0.008 A 
ATOM      9  C   UNL     1       7.372  -1.275  -0.183  1.00  0.00     0.054 A 
ATOM     10  C   UNL     1       7.948  -1.732  -2.828  1.00  0.00     0.051 A 
ATOM     11  C   UNL     1       8.040  -2.428  -0.550  1.00  0.00     0.166 A 
ATOM     12  C   UNL     1       8.330  -2.660  -1.873  1.00  0.00     0.165 A 
ATOM     13  O   UNL     1       8.519  -3.490   0.197  1.00  0.00    -0.454 OA
ATOM     14  O   UNL     1       8.997  -3.885  -1.930  1.00  0.00    -0.454 OA
ATOM     15  C   UNL     1       8.847  -4.560  -0.702  1.00  0.00     0.468 C 
ENDBRANCH   6   7
ENDBRANCH   1   6
TORSDOF 4
ENDMDL
MODEL 4
REMARK VINA RESULT:      -7.5      1.798      5.291
REMARK SMILES O=C(O)CCc1ccc2c(c1)OCO2
REMARK SMILES IDX 4 1 2 2 1 3 3 4 5 6 6 7 7 8 11 9 8 10 10 11 9 12 12 13 14 14
REMARK SMILES IDX 13 15
REMARK H PARENT 3 5
REMARK Flexibility Score: inf
ROOT
ATOM      1  C   UNL     1       8.314  -0.321  -2.838  1.00  0.00     0.127 C 
ENDROOT
BRANCH   1   2
ATOM      2  C   UNL     1       8.471  -1.749  -3.066  1.00  0.00     0.303 C 
ATOM      3  O   UNL     1       9.536  -2.367  -3.035  1.00  0.00    -0.252 OA
BRANCH   2   4
ATOM      4  O   UNL     1       7.311  -2.488  -3.345  1.00  0.00    -0.481 OA
ATOM      5  H   UNL     1       7.362  -3.479  -3.170  1.00  0.00     0.296 HD
ENDBRANCH   2   4
ENDBRANCH   1   2
BRANCH   1   6
ATOM      6  C   UNL     1       8.768   0.128  -1.504  1.00  0.00     0.047 C 
BRANCH   6   7
ATOM      7  C   UNL     1       7.794   0.092  -0.410  1.00  0.00    -0.043 A 
ATOM      8  C   UNL     1       7.739  -0.971   0.477  1.00  0.00     0.008 A 
ATOM      9  C   UNL     1       6.878   1.099  -0.256  1.00  0.00     0.054 A 
ATOM     10  C   UNL     1       6.800  -1.023   1.484  1.00  0.00     0.051 A 
ATOM     11  C   UNL     1       5.928   1.069   0.747  1.00  0.00     0.166 A 
ATOM     12  C   UNL     1       5.886   0.008   1.620  1.00  0.00     0.165 A 
ATOM     13  O   UNL     1       4.923   1.957   1.088  1.00  0.00    -0.454 OA
ATOM     14  O   UNL     1       4.836   0.257   2.506  1.00  0.00    -0.454 OA
ATOM     15  C   UNL     1       4.033   1.300   2.003  1.00  0.00     0.468 C 
ENDBRANCH   6   7
ENDBRANCH   1   6
TORSDOF 4
ENDMDL
MODEL 5
REMARK VINA RESULT:      -7.4      1.084      2.164
REMARK SMILES O=C(O)CCc1ccc2c(c1)OCO2
REMARK SMILES IDX 4 1 2 2 1 3 3 4 5 6 6 7 7 8 11 9 8 10 10 11 9 12 12 13 14 14
REMARK SMILES IDX 13 15
REMARK H PARENT 3 5
REMARK Flexibility Score: inf
ROOT
ATOM      1  C   UNL     1       5.638   2.462   0.041  1.00  0.00     0.127 C 
ENDROOT
BRANCH   1   2
ATOM      2  C   UNL     1       6.302   3.450   0.877  1.00  0.00     0.303 C 
ATOM      3  O   UNL     1       6.559   3.320   2.075  1.00  0.00    -0.252 OA
BRANCH   2   4
ATOM      4  O   UNL     1       6.684   4.656   0.269  1.00  0.00    -0.481 OA
ATOM      5  H   UNL     1       6.169   4.922  -0.556  1.00  0.00     0.296 HD
ENDBRANCH   2   4
ENDBRANCH   1   2
BRANCH   1   6
ATOM      6  C   UNL     1       5.597   1.107   0.631  1.00  0.00     0.047 C 
BRANCH   6   7
ATOM      7  C   UNL     1       6.406   0.066  -0.007  1.00  0.00    -0.043 A 
ATOM      8  C   UNL     1       6.568   0.016  -1.383  1.00  0.00     0.008 A 
ATOM      9  C   UNL     1       6.996  -0.919   0.740  1.00  0.00     0.054 A 
ATOM     10  C   UNL     1       7.298  -0.983  -1.988  1.00  0.00     0.051 A 
ATOM     11  C   UNL     1       7.733  -1.931   0.155  1.00  0.00     0.166 A 
ATOM     12  C   UNL     1       7.887  -1.967  -1.210  1.00  0.00     0.165 A 
ATOM     13  O   UNL     1       8.408  -3.010   0.700  1.00  0.00    -0.454 OA
ATOM     14  O   UNL     1       8.668  -3.087  -1.498  1.00  0.00    -0.454 OA
ATOM     15  C   UNL     1       8.738  -3.917  -0.362  1.00  0.00     0.468 C 
ENDBRANCH   6   7
ENDBRANCH   1   6
TORSDOF 4
ENDMDL
