@<TRIPOS>MOLECULE
/home/cewinharhar/GITHUB/reincatalyze/data/processed/docking_pred/2023-May-17-1006_maxeplen10_maxtrainstep1000_seadep16_gamma099_lrac9e-4_lrcr1e-3_sub6/3bf4b9a3f06cfa5433c2fd34b58c3faf64c233d9_ligand_6.pdbqt
 15 16 0 0 0
SMALL
GASTEIGER

@<TRIPOS>ATOM
      1  C          4.6990    1.8720    0.6790 C.3     1  UNL1        0.1270
      2  C          4.3960    1.1650    1.9140 C.2     1  UNL1        0.3030
      3  O          5.1240    0.3360    2.4620 O.2     1  UNL1       -0.2520
      4  O          3.1710    1.4500    2.5360 O.3     1  UNL1       -0.4810
      5  H          3.2210    1.9450    3.4130 H       1  UNL1        0.2960
      6  C          6.1240    2.2350    0.5290 C.3     1  UNL1        0.0470
      7  C          6.9750    1.3280   -0.2450 C.2     1  UNL1       -0.0430
      8  C          8.3360    1.5560   -0.3860 C.2     1  UNL1        0.0080
      9  C          6.4410    0.2440   -0.8880 C.2     1  UNL1        0.0540
     10  C          9.1310    0.7240   -1.1430 C.2     1  UNL1        0.0510
     11  C          7.2190   -0.6040   -1.6520 C.2     1  UNL1        0.1660
     12  C          8.5670   -0.3680   -1.7830 C.2     1  UNL1        0.1650
     13  O          6.9020   -1.7400   -2.3780 O.2     1  UNL1       -0.4540
     14  O          9.0760   -1.3770   -2.6010 O.2     1  UNL1       -0.4540
     15  C          8.0120   -2.0530   -3.2320 C.3     1  UNL1        0.4680
@<TRIPOS>BOND
     1    15    14    1
     2    15    13    1
     3    14    12    1
     4    13    11    1
     5    12    11    2
     6    12    10    1
     7    11     9    1
     8    10     8    2
     9     9     7    2
    10     8     7    1
    11     7     6    1
    12     6     1    1
    13     1     2    1
    14     2     3    2
    15     2     4    1
    16     4     5    1
