@<TRIPOS>MOLECULE
/home/cewinharhar/GITHUB/reincatalyze/data/processed/docking_pred/2023-May-17-1006_maxeplen10_maxtrainstep1000_seadep16_gamma099_lrac9e-4_lrcr1e-3_sub6/3c607cf36dcc024da10d53d595c24d9744c2a083_ligand_6.pdbqt
 15 16 0 0 0
SMALL
GASTEIGER

@<TRIPOS>ATOM
      1  C          8.2630   -0.2000   -2.8440 C.3     1  UNL1        0.1270
      2  C          8.5000   -1.6210   -3.0450 C.2     1  UNL1        0.3030
      3  O          9.5890   -2.1880   -2.9420 O.2     1  UNL1       -0.2520
      4  O          7.3950   -2.4170   -3.3860 O.3     1  UNL1       -0.4810
      5  H          6.5500   -1.9240   -3.6300 H       1  UNL1        0.2960
      6  C          8.7130    0.3030   -1.5290 C.3     1  UNL1        0.0470
      7  C          7.7610    0.2410   -0.4180 C.2     1  UNL1       -0.0430
      8  C          7.7820   -0.8000    0.4970 C.2     1  UNL1        0.0080
      9  C          6.7920    1.1980   -0.2720 C.2     1  UNL1        0.0540
     10  C          6.8640   -0.8780    1.5210 C.2     1  UNL1        0.0510
     11  C          5.8620    1.1410    0.7480 C.2     1  UNL1        0.1660
     12  C          5.8940    0.1030    1.6480 C.2     1  UNL1        0.1650
     13  O          4.8130    1.9790    1.0830 O.2     1  UNL1       -0.4540
     14  O          4.8470    0.3150    2.5460 O.2     1  UNL1       -0.4540
     15  C          3.9770    1.2970    2.0310 C.3     1  UNL1        0.4680
@<TRIPOS>BOND
     1     5     4    1
     2     4     2    1
     3     2     3    2
     4     2     1    1
     5     1     6    1
     6     6     7    1
     7     7     9    2
     8     7     8    1
     9     9    11    1
    10     8    10    2
    11    11    13    1
    12    11    12    2
    13    13    15    1
    14    10    12    1
    15    12    14    1
    16    15    14    1
