@<TRIPOS>MOLECULE
/home/cewinharhar/GITHUB/reincatalyze/data/processed/docking_pred/2023-May-17-1006_maxeplen10_maxtrainstep1000_seadep16_gamma099_lrac9e-4_lrcr1e-3_sub6/3c607cf36dcc024da10d53d595c24d9744c2a083_ligand_6.pdbqt
 15 16 0 0 0
SMALL
GASTEIGER

@<TRIPOS>ATOM
      1  C          4.6780    1.8540    0.6830 C.3     1  UNL1        0.1270
      2  C          4.4020    1.1430    1.9200 C.2     1  UNL1        0.3030
      3  O          5.1480    0.3230    2.4580 O.2     1  UNL1       -0.2520
      4  O          3.1810    1.4110    2.5590 O.3     1  UNL1       -0.4810
      5  H          2.8950    0.7510    3.2670 H       1  UNL1        0.2960
      6  C          6.0970    2.2350    0.5130 C.3     1  UNL1        0.0470
      7  C          6.9570    1.3240   -0.2440 C.2     1  UNL1       -0.0430
      8  C          8.3220    1.5390   -0.3540 C.2     1  UNL1        0.0080
      9  C          6.4270    0.2460   -0.9030 C.2     1  UNL1        0.0540
     10  C          9.1270    0.7030   -1.0960 C.2     1  UNL1        0.0510
     11  C          7.2150   -0.6070   -1.6530 C.2     1  UNL1        0.1660
     12  C          8.5670   -0.3820   -1.7510 C.2     1  UNL1        0.1650
     13  O          6.9040   -1.7360   -2.3890 O.2     1  UNL1       -0.4540
     14  O          9.0850   -1.3930   -2.5620 O.2     1  UNL1       -0.4540
     15  C          8.0300   -2.0570   -3.2190 C.3     1  UNL1        0.4680
@<TRIPOS>BOND
     1    15    14    1
     2    15    13    1
     3    14    12    1
     4    13    11    1
     5    12    11    2
     6    12    10    1
     7    11     9    1
     8    10     8    2
     9     9     7    2
    10     8     7    1
    11     7     6    1
    12     6     1    1
    13     1     2    1
    14     2     3    2
    15     2     4    1
    16     4     5    1
