@<TRIPOS>MOLECULE
/home/cewinharhar/GITHUB/reincatalyze/data/processed/docking_pred/2023-May-17-1006_maxeplen10_maxtrainstep1000_seadep16_gamma099_lrac9e-4_lrcr1e-3_sub6/3c607cf36dcc024da10d53d595c24d9744c2a083_ligand_6.pdbqt
 15 16 0 0 0
SMALL
GASTEIGER

@<TRIPOS>ATOM
      1  C          6.3800    1.3270    0.6420 C.3     1  UNL1        0.1270
      2  C          5.1820    1.3020    1.4670 C.2     1  UNL1        0.3030
      3  O          4.2440    2.0970    1.3920 O.2     1  UNL1       -0.2520
      4  O          5.0850    0.2860    2.4300 O.3     1  UNL1       -0.4810
      5  H          5.3700   -0.6360    2.1360 H       1  UNL1        0.2960
      6  C          6.1680    0.8500   -0.7410 C.3     1  UNL1        0.0470
      7  C          6.9450   -0.3100   -1.1840 C.2     1  UNL1       -0.0430
      8  C          7.2720   -0.4960   -2.5180 C.2     1  UNL1        0.0080
      9  C          7.3420   -1.2690   -0.2910 C.2     1  UNL1        0.0540
     10  C          7.9720   -1.6040   -2.9410 C.2     1  UNL1        0.0510
     11  C          8.0460   -2.3890   -0.6930 C.2     1  UNL1        0.1660
     12  C          8.3630   -2.5600   -2.0180 C.2     1  UNL1        0.1650
     13  O          8.5410   -3.4670    0.0190 O.2     1  UNL1       -0.4540
     14  O          9.0630   -3.7640   -2.1130 O.2     1  UNL1       -0.4540
     15  C          8.9120   -4.4910   -0.9160 C.3     1  UNL1        0.4680
@<TRIPOS>BOND
     1    10     8    1
     2    10    12    2
     3     8     7    2
     4    14    12    1
     5    14    15    1
     6    12    11    1
     7     7     6    1
     8     7     9    1
     9    15    13    1
    10     6     1    1
    11    11     9    2
    12    11    13    1
    13     1     2    1
    14     3     2    2
    15     2     4    1
    16     5     4    1
