@<TRIPOS>MOLECULE
/home/cewinharhar/GITHUB/reincatalyze/data/processed/docking_pred/2023-May-17-1006_maxeplen10_maxtrainstep1000_seadep16_gamma099_lrac9e-4_lrcr1e-3_sub6/3c607cf36dcc024da10d53d595c24d9744c2a083_ligand_6.pdbqt
 15 16 0 0 0
SMALL
GASTEIGER

@<TRIPOS>ATOM
      1  C          5.3800    2.8410    0.0980 C.3     1  UNL1        0.1270
      2  C          6.1360    3.8410    0.8360 C.2     1  UNL1        0.3030
      3  O          6.1880    3.9400    2.0630 O.2     1  UNL1       -0.2520
      4  O          6.8710    4.7750    0.0880 O.3     1  UNL1       -0.4810
      5  H          6.4580    5.0710   -0.7830 H       1  UNL1        0.2960
      6  C          5.3680    1.5070    0.7360 C.3     1  UNL1        0.0470
      7  C          6.2070    0.4650    0.1400 C.2     1  UNL1       -0.0430
      8  C          6.5040    0.4590   -1.2140 C.2     1  UNL1        0.0080
      9  C          6.6930   -0.5640    0.9020 C.2     1  UNL1        0.0540
     10  C          7.2620   -0.5400   -1.7830 C.2     1  UNL1        0.0510
     11  C          7.4560   -1.5770    0.3540 C.2     1  UNL1        0.1660
     12  C          7.7430   -1.5690   -0.9890 C.2     1  UNL1        0.1650
     13  O          8.0430   -2.6950    0.9210 O.2     1  UNL1       -0.4540
     14  O          8.5180   -2.7020   -1.2430 O.2     1  UNL1       -0.4540
     15  C          8.4510   -3.5740   -0.1380 C.3     1  UNL1        0.4680
@<TRIPOS>BOND
     1    10     8    1
     2    10    12    2
     3    14    12    1
     4    14    15    1
     5     8     7    2
     6    12    11    1
     7     5     4    1
     8    15    13    1
     9     4     2    1
    10     1     6    1
    11     1     2    1
    12     7     6    1
    13     7     9    1
    14    11     9    2
    15    11    13    1
    16     2     3    2
