MODEL 1
REMARK VINA RESULT:      -7.7      0.000      0.000
REMARK SMILES O=C(O)CCc1ccc2c(c1)OCO2
REMARK SMILES IDX 4 1 2 2 1 3 3 4 5 6 6 7 7 8 11 9 8 10 10 11 9 12 12 13 14 14
REMARK SMILES IDX 13 15
REMARK H PARENT 3 5
REMARK Flexibility Score: inf
ROOT
ATOM      1  C   UNL     1       5.411   2.865   0.131  1.00  0.00     0.127 C 
ENDROOT
BRANCH   1   2
ATOM      2  C   UNL     1       6.239   3.849   0.811  1.00  0.00     0.303 C 
ATOM      3  O   UNL     1       6.872   4.754   0.264  1.00  0.00    -0.252 OA
BRANCH   2   4
ATOM      4  O   UNL     1       6.327   3.763   2.209  1.00  0.00    -0.481 OA
ATOM      5  H   UNL     1       7.037   3.145   2.573  1.00  0.00     0.296 HD
ENDBRANCH   2   4
ENDBRANCH   1   2
BRANCH   1   6
ATOM      6  C   UNL     1       5.350   1.557   0.816  1.00  0.00     0.047 C 
BRANCH   6   7
ATOM      7  C   UNL     1       6.130   0.456   0.245  1.00  0.00    -0.043 A 
ATOM      8  C   UNL     1       6.594  -0.587   1.031  1.00  0.00     0.008 A 
ATOM      9  C   UNL     1       6.457   0.447  -1.084  1.00  0.00     0.054 A 
ATOM     10  C   UNL     1       7.358  -1.604   0.503  1.00  0.00     0.051 A 
ATOM     11  C   UNL     1       7.222  -0.563  -1.637  1.00  0.00     0.166 A 
ATOM     12  C   UNL     1       7.675  -1.592  -0.846  1.00  0.00     0.165 A 
ATOM     13  O   UNL     1       7.667  -0.776  -2.930  1.00  0.00    -0.454 OA
ATOM     14  O   UNL     1       8.408  -2.444  -1.674  1.00  0.00    -0.454 OA
ATOM     15  C   UNL     1       8.676  -1.796  -2.896  1.00  0.00     0.468 C 
ENDBRANCH   6   7
ENDBRANCH   1   6
TORSDOF 4
ENDMDL
MODEL 2
REMARK VINA RESULT:      -7.6      2.125      2.506
REMARK SMILES O=C(O)CCc1ccc2c(c1)OCO2
REMARK SMILES IDX 4 1 2 2 1 3 3 4 5 6 6 7 7 8 11 9 8 10 10 11 9 12 12 13 14 14
REMARK SMILES IDX 13 15
REMARK H PARENT 3 5
REMARK Flexibility Score: inf
ROOT
ATOM      1  C   UNL     1       4.678   1.854   0.683  1.00  0.00     0.127 C 
ENDROOT
BRANCH   1   2
ATOM      2  C   UNL     1       4.402   1.143   1.920  1.00  0.00     0.303 C 
ATOM      3  O   UNL     1       5.148   0.323   2.458  1.00  0.00    -0.252 OA
BRANCH   2   4
ATOM      4  O   UNL     1       3.181   1.411   2.559  1.00  0.00    -0.481 OA
ATOM      5  H   UNL     1       2.895   0.751   3.267  1.00  0.00     0.296 HD
ENDBRANCH   2   4
ENDBRANCH   1   2
BRANCH   1   6
ATOM      6  C   UNL     1       6.097   2.235   0.513  1.00  0.00     0.047 C 
BRANCH   6   7
ATOM      7  C   UNL     1       6.957   1.324  -0.244  1.00  0.00    -0.043 A 
ATOM      8  C   UNL     1       8.322   1.539  -0.354  1.00  0.00     0.008 A 
ATOM      9  C   UNL     1       6.427   0.246  -0.903  1.00  0.00     0.054 A 
ATOM     10  C   UNL     1       9.127   0.703  -1.096  1.00  0.00     0.051 A 
ATOM     11  C   UNL     1       7.215  -0.607  -1.653  1.00  0.00     0.166 A 
ATOM     12  C   UNL     1       8.567  -0.382  -1.751  1.00  0.00     0.165 A 
ATOM     13  O   UNL     1       6.904  -1.736  -2.389  1.00  0.00    -0.454 OA
ATOM     14  O   UNL     1       9.085  -1.393  -2.562  1.00  0.00    -0.454 OA
ATOM     15  C   UNL     1       8.030  -2.057  -3.219  1.00  0.00     0.468 C 
ENDBRANCH   6   7
ENDBRANCH   1   6
TORSDOF 4
ENDMDL
MODEL 3
REMARK VINA RESULT:      -7.5      1.958      2.867
REMARK SMILES O=C(O)CCc1ccc2c(c1)OCO2
REMARK SMILES IDX 4 1 2 2 1 3 3 4 5 6 6 7 7 8 11 9 8 10 10 11 9 12 12 13 14 14
REMARK SMILES IDX 13 15
REMARK H PARENT 3 5
REMARK Flexibility Score: inf
ROOT
ATOM      1  C   UNL     1       6.380   1.327   0.642  1.00  0.00     0.127 C 
ENDROOT
BRANCH   1   2
ATOM      2  C   UNL     1       5.182   1.302   1.467  1.00  0.00     0.303 C 
ATOM      3  O   UNL     1       4.244   2.097   1.392  1.00  0.00    -0.252 OA
BRANCH   2   4
ATOM      4  O   UNL     1       5.085   0.286   2.430  1.00  0.00    -0.481 OA
ATOM      5  H   UNL     1       5.370  -0.636   2.136  1.00  0.00     0.296 HD
ENDBRANCH   2   4
ENDBRANCH   1   2
BRANCH   1   6
ATOM      6  C   UNL     1       6.168   0.850  -0.741  1.00  0.00     0.047 C 
BRANCH   6   7
ATOM      7  C   UNL     1       6.945  -0.310  -1.184  1.00  0.00    -0.043 A 
ATOM      8  C   UNL     1       7.272  -0.496  -2.518  1.00  0.00     0.008 A 
ATOM      9  C   UNL     1       7.342  -1.269  -0.291  1.00  0.00     0.054 A 
ATOM     10  C   UNL     1       7.972  -1.604  -2.941  1.00  0.00     0.051 A 
ATOM     11  C   UNL     1       8.046  -2.389  -0.693  1.00  0.00     0.166 A 
ATOM     12  C   UNL     1       8.363  -2.560  -2.018  1.00  0.00     0.165 A 
ATOM     13  O   UNL     1       8.541  -3.467   0.019  1.00  0.00    -0.454 OA
ATOM     14  O   UNL     1       9.063  -3.764  -2.113  1.00  0.00    -0.454 OA
ATOM     15  C   UNL     1       8.912  -4.491  -0.916  1.00  0.00     0.468 C 
ENDBRANCH   6   7
ENDBRANCH   1   6
TORSDOF 4
ENDMDL
MODEL 4
REMARK VINA RESULT:      -7.5      1.797      5.263
REMARK SMILES O=C(O)CCc1ccc2c(c1)OCO2
REMARK SMILES IDX 4 1 2 2 1 3 3 4 5 6 6 7 7 8 11 9 8 10 10 11 9 12 12 13 14 14
REMARK SMILES IDX 13 15
REMARK H PARENT 3 5
REMARK Flexibility Score: inf
ROOT
ATOM      1  C   UNL     1       8.263  -0.200  -2.844  1.00  0.00     0.127 C 
ENDROOT
BRANCH   1   2
ATOM      2  C   UNL     1       8.500  -1.621  -3.045  1.00  0.00     0.303 C 
ATOM      3  O   UNL     1       9.589  -2.188  -2.942  1.00  0.00    -0.252 OA
BRANCH   2   4
ATOM      4  O   UNL     1       7.395  -2.417  -3.386  1.00  0.00    -0.481 OA
ATOM      5  H   UNL     1       6.550  -1.924  -3.630  1.00  0.00     0.296 HD
ENDBRANCH   2   4
ENDBRANCH   1   2
BRANCH   1   6
ATOM      6  C   UNL     1       8.713   0.303  -1.529  1.00  0.00     0.047 C 
BRANCH   6   7
ATOM      7  C   UNL     1       7.761   0.241  -0.418  1.00  0.00    -0.043 A 
ATOM      8  C   UNL     1       7.782  -0.800   0.497  1.00  0.00     0.008 A 
ATOM      9  C   UNL     1       6.792   1.198  -0.272  1.00  0.00     0.054 A 
ATOM     10  C   UNL     1       6.864  -0.878   1.521  1.00  0.00     0.051 A 
ATOM     11  C   UNL     1       5.862   1.141   0.748  1.00  0.00     0.166 A 
ATOM     12  C   UNL     1       5.894   0.103   1.648  1.00  0.00     0.165 A 
ATOM     13  O   UNL     1       4.813   1.979   1.083  1.00  0.00    -0.454 OA
ATOM     14  O   UNL     1       4.847   0.315   2.546  1.00  0.00    -0.454 OA
ATOM     15  C   UNL     1       3.977   1.297   2.031  1.00  0.00     0.468 C 
ENDBRANCH   6   7
ENDBRANCH   1   6
TORSDOF 4
ENDMDL
MODEL 5
REMARK VINA RESULT:      -7.4      0.945      2.114
REMARK SMILES O=C(O)CCc1ccc2c(c1)OCO2
REMARK SMILES IDX 4 1 2 2 1 3 3 4 5 6 6 7 7 8 11 9 8 10 10 11 9 12 12 13 14 14
REMARK SMILES IDX 13 15
REMARK H PARENT 3 5
REMARK Flexibility Score: inf
ROOT
ATOM      1  C   UNL     1       5.380   2.841   0.098  1.00  0.00     0.127 C 
ENDROOT
BRANCH   1   2
ATOM      2  C   UNL     1       6.136   3.841   0.836  1.00  0.00     0.303 C 
ATOM      3  O   UNL     1       6.188   3.940   2.063  1.00  0.00    -0.252 OA
BRANCH   2   4
ATOM      4  O   UNL     1       6.871   4.775   0.088  1.00  0.00    -0.481 OA
ATOM      5  H   UNL     1       6.458   5.071  -0.783  1.00  0.00     0.296 HD
ENDBRANCH   2   4
ENDBRANCH   1   2
BRANCH   1   6
ATOM      6  C   UNL     1       5.368   1.507   0.736  1.00  0.00     0.047 C 
BRANCH   6   7
ATOM      7  C   UNL     1       6.207   0.465   0.140  1.00  0.00    -0.043 A 
ATOM      8  C   UNL     1       6.504   0.459  -1.214  1.00  0.00     0.008 A 
ATOM      9  C   UNL     1       6.693  -0.564   0.902  1.00  0.00     0.054 A 
ATOM     10  C   UNL     1       7.262  -0.540  -1.783  1.00  0.00     0.051 A 
ATOM     11  C   UNL     1       7.456  -1.577   0.354  1.00  0.00     0.166 A 
ATOM     12  C   UNL     1       7.743  -1.569  -0.989  1.00  0.00     0.165 A 
ATOM     13  O   UNL     1       8.043  -2.695   0.921  1.00  0.00    -0.454 OA
ATOM     14  O   UNL     1       8.518  -2.702  -1.243  1.00  0.00    -0.454 OA
ATOM     15  C   UNL     1       8.451  -3.574  -0.138  1.00  0.00     0.468 C 
ENDBRANCH   6   7
ENDBRANCH   1   6
TORSDOF 4
ENDMDL
