@<TRIPOS>MOLECULE
/home/cewinharhar/GITHUB/reincatalyze/data/processed/docking_pred/2023-May-17-1006_maxeplen10_maxtrainstep1000_seadep16_gamma099_lrac9e-4_lrcr1e-3_sub6/3c607cf36dcc024da10d53d595c24d9744c2a083_ligand_6.pdbqt
 15 16 0 0 0
SMALL
GASTEIGER

@<TRIPOS>ATOM
      1  C          5.4110    2.8650    0.1310 C.3     1  UNL1        0.1270
      2  C          6.2390    3.8490    0.8110 C.2     1  UNL1        0.3030
      3  O          6.8720    4.7540    0.2640 O.2     1  UNL1       -0.2520
      4  O          6.3270    3.7630    2.2090 O.3     1  UNL1       -0.4810
      5  H          7.0370    3.1450    2.5730 H       1  UNL1        0.2960
      6  C          5.3500    1.5570    0.8160 C.3     1  UNL1        0.0470
      7  C          6.1300    0.4560    0.2450 C.2     1  UNL1       -0.0430
      8  C          6.5940   -0.5870    1.0310 C.2     1  UNL1        0.0080
      9  C          6.4570    0.4470   -1.0840 C.2     1  UNL1        0.0540
     10  C          7.3580   -1.6040    0.5030 C.2     1  UNL1        0.0510
     11  C          7.2220   -0.5630   -1.6370 C.2     1  UNL1        0.1660
     12  C          7.6750   -1.5920   -0.8460 C.2     1  UNL1        0.1650
     13  O          7.6670   -0.7760   -2.9300 O.2     1  UNL1       -0.4540
     14  O          8.4080   -2.4440   -1.6740 O.2     1  UNL1       -0.4540
     15  C          8.6760   -1.7960   -2.8960 C.3     1  UNL1        0.4680
@<TRIPOS>BOND
     1    13    15    1
     2    13    11    1
     3    15    14    1
     4    14    12    1
     5    11     9    1
     6    11    12    2
     7     9     7    2
     8    12    10    1
     9     1     2    1
    10     1     6    1
    11     7     6    1
    12     7     8    1
    13     3     2    2
    14    10     8    2
    15     2     4    1
    16     4     5    1
