@<TRIPOS>MOLECULE
/home/cewinharhar/GITHUB/reincatalyze/data/processed/docking_pred/2023-May-17-1006_maxeplen10_maxtrainstep1000_seadep16_gamma099_lrac9e-4_lrcr1e-3_sub6/3c93f0ab1d0179ecce707f4524a6ff468bff7290_ligand_6.pdbqt
 15 16 0 0 0
SMALL
GASTEIGER

@<TRIPOS>ATOM
      1  C          4.6940    1.8800    0.6780 C.3     1  UNL1        0.1270
      2  C          4.4160    1.1600    1.9110 C.2     1  UNL1        0.3030
      3  O          5.1660    0.3430    2.4490 O.2     1  UNL1       -0.2520
      4  O          3.1900    1.4170    2.5450 O.3     1  UNL1       -0.4810
      5  H          2.9140    0.7630    3.2610 H       1  UNL1        0.2960
      6  C          6.1150    2.2540    0.5090 C.3     1  UNL1        0.0470
      7  C          6.9710    1.3370   -0.2470 C.2     1  UNL1       -0.0430
      8  C          8.3370    1.5460   -0.3580 C.2     1  UNL1        0.0080
      9  C          6.4360    0.2590   -0.9020 C.2     1  UNL1        0.0540
     10  C          9.1370    0.7050   -1.0980 C.2     1  UNL1        0.0510
     11  C          7.2200   -0.5980   -1.6500 C.2     1  UNL1        0.1660
     12  C          8.5730   -0.3790   -1.7500 C.2     1  UNL1        0.1650
     13  O          6.9040   -1.7290   -2.3830 O.2     1  UNL1       -0.4540
     14  O          9.0870   -1.3950   -2.5590 O.2     1  UNL1       -0.4540
     15  C          8.0280   -2.0560   -3.2130 C.3     1  UNL1        0.4680
@<TRIPOS>BOND
     1    15    14    1
     2    15    13    1
     3    14    12    1
     4    13    11    1
     5    12    11    2
     6    12    10    1
     7    11     9    1
     8    10     8    2
     9     9     7    2
    10     8     7    1
    11     7     6    1
    12     6     1    1
    13     1     2    1
    14     2     3    2
    15     2     4    1
    16     4     5    1
