@<TRIPOS>MOLECULE
/home/cewinharhar/GITHUB/reincatalyze/data/processed/docking_pred/2023-May-17-1006_maxeplen10_maxtrainstep1000_seadep16_gamma099_lrac9e-4_lrcr1e-3_sub6/3c93f0ab1d0179ecce707f4524a6ff468bff7290_ligand_6.pdbqt
 15 16 0 0 0
SMALL
GASTEIGER

@<TRIPOS>ATOM
      1  C          5.5450    2.7080    0.0510 C.3     1  UNL1        0.1270
      2  C          6.1960    3.7150    0.8740 C.2     1  UNL1        0.3030
      3  O          6.2270    3.7240    2.1060 O.2     1  UNL1       -0.2520
      4  O          6.8460    4.7670    0.2110 O.3     1  UNL1       -0.4810
      5  H          7.0760    5.5730    0.7720 H       1  UNL1        0.2960
      6  C          5.5210    1.3600    0.6580 C.3     1  UNL1        0.0470
      7  C          6.3150    0.3120    0.0140 C.2     1  UNL1       -0.0430
      8  C          6.4390    0.2410   -1.3650 C.2     1  UNL1        0.0080
      9  C          6.9320   -0.6580    0.7590 C.2     1  UNL1        0.0540
     10  C          7.1560   -0.7640   -1.9740 C.2     1  UNL1        0.0510
     11  C          7.6570   -1.6760    0.1700 C.2     1  UNL1        0.1660
     12  C          7.7720   -1.7330   -1.1980 C.2     1  UNL1        0.1650
     13  O          8.3510   -2.7430    0.7130 O.2     1  UNL1       -0.4540
     14  O          8.5490   -2.8540   -1.4910 O.2     1  UNL1       -0.4540
     15  C          8.6560   -3.6660   -0.3440 C.3     1  UNL1        0.4680
@<TRIPOS>BOND
     1    10     8    1
     2    10    12    2
     3    14    12    1
     4    14    15    1
     5     8     7    2
     6    12    11    1
     7    15    13    1
     8     7     6    1
     9     7     9    1
    10     1     6    1
    11     1     2    1
    12    11    13    1
    13    11     9    2
    14     4     5    1
    15     4     2    1
    16     2     3    2
