MODEL 1
REMARK VINA RESULT:      -7.6      0.000      0.000
REMARK SMILES O=C(O)CCc1ccc2c(c1)OCO2
REMARK SMILES IDX 4 1 2 2 1 3 3 4 5 6 6 7 7 8 11 9 8 10 10 11 9 12 12 13 14 14
REMARK SMILES IDX 13 15
REMARK H PARENT 3 5
REMARK Flexibility Score: inf
ROOT
ATOM      1  C   UNL     1       5.417   2.864   0.133  1.00  0.00     0.127 C 
ENDROOT
BRANCH   1   2
ATOM      2  C   UNL     1       6.252   3.838   0.819  1.00  0.00     0.303 C 
ATOM      3  O   UNL     1       6.890   4.743   0.279  1.00  0.00    -0.252 OA
BRANCH   2   4
ATOM      4  O   UNL     1       6.342   3.738   2.217  1.00  0.00    -0.481 OA
ATOM      5  H   UNL     1       5.638   4.232   2.744  1.00  0.00     0.296 HD
ENDBRANCH   2   4
ENDBRANCH   1   2
BRANCH   1   6
ATOM      6  C   UNL     1       5.345   1.552   0.810  1.00  0.00     0.047 C 
BRANCH   6   7
ATOM      7  C   UNL     1       6.124   0.451   0.239  1.00  0.00    -0.043 A 
ATOM      8  C   UNL     1       6.579  -0.598   1.022  1.00  0.00     0.008 A 
ATOM      9  C   UNL     1       6.461   0.448  -1.089  1.00  0.00     0.054 A 
ATOM     10  C   UNL     1       7.342  -1.615   0.494  1.00  0.00     0.051 A 
ATOM     11  C   UNL     1       7.226  -0.563  -1.641  1.00  0.00     0.166 A 
ATOM     12  C   UNL     1       7.669  -1.597  -0.853  1.00  0.00     0.165 A 
ATOM     13  O   UNL     1       7.679  -0.770  -2.932  1.00  0.00    -0.454 OA
ATOM     14  O   UNL     1       8.404  -2.448  -1.679  1.00  0.00    -0.454 OA
ATOM     15  C   UNL     1       8.684  -1.795  -2.896  1.00  0.00     0.468 C 
ENDBRANCH   6   7
ENDBRANCH   1   6
TORSDOF 4
ENDMDL
MODEL 2
REMARK VINA RESULT:      -7.6      2.111      2.501
REMARK SMILES O=C(O)CCc1ccc2c(c1)OCO2
REMARK SMILES IDX 4 1 2 2 1 3 3 4 5 6 6 7 7 8 11 9 8 10 10 11 9 12 12 13 14 14
REMARK SMILES IDX 13 15
REMARK H PARENT 3 5
REMARK Flexibility Score: inf
ROOT
ATOM      1  C   UNL     1       4.694   1.880   0.678  1.00  0.00     0.127 C 
ENDROOT
BRANCH   1   2
ATOM      2  C   UNL     1       4.416   1.160   1.911  1.00  0.00     0.303 C 
ATOM      3  O   UNL     1       5.166   0.343   2.449  1.00  0.00    -0.252 OA
BRANCH   2   4
ATOM      4  O   UNL     1       3.190   1.417   2.545  1.00  0.00    -0.481 OA
ATOM      5  H   UNL     1       2.914   0.763   3.261  1.00  0.00     0.296 HD
ENDBRANCH   2   4
ENDBRANCH   1   2
BRANCH   1   6
ATOM      6  C   UNL     1       6.115   2.254   0.509  1.00  0.00     0.047 C 
BRANCH   6   7
ATOM      7  C   UNL     1       6.971   1.337  -0.247  1.00  0.00    -0.043 A 
ATOM      8  C   UNL     1       8.337   1.546  -0.358  1.00  0.00     0.008 A 
ATOM      9  C   UNL     1       6.436   0.259  -0.902  1.00  0.00     0.054 A 
ATOM     10  C   UNL     1       9.137   0.705  -1.098  1.00  0.00     0.051 A 
ATOM     11  C   UNL     1       7.220  -0.598  -1.650  1.00  0.00     0.166 A 
ATOM     12  C   UNL     1       8.573  -0.379  -1.750  1.00  0.00     0.165 A 
ATOM     13  O   UNL     1       6.904  -1.729  -2.383  1.00  0.00    -0.454 OA
ATOM     14  O   UNL     1       9.087  -1.395  -2.559  1.00  0.00    -0.454 OA
ATOM     15  C   UNL     1       8.028  -2.056  -3.213  1.00  0.00     0.468 C 
ENDBRANCH   6   7
ENDBRANCH   1   6
TORSDOF 4
ENDMDL
MODEL 3
REMARK VINA RESULT:      -7.5      1.959      2.865
REMARK SMILES O=C(O)CCc1ccc2c(c1)OCO2
REMARK SMILES IDX 4 1 2 2 1 3 3 4 5 6 6 7 7 8 11 9 8 10 10 11 9 12 12 13 14 14
REMARK SMILES IDX 13 15
REMARK H PARENT 3 5
REMARK Flexibility Score: inf
ROOT
ATOM      1  C   UNL     1       6.417   1.331   0.668  1.00  0.00     0.127 C 
ENDROOT
BRANCH   1   2
ATOM      2  C   UNL     1       5.194   1.351   1.454  1.00  0.00     0.303 C 
ATOM      3  O   UNL     1       4.264   2.147   1.314  1.00  0.00    -0.252 OA
BRANCH   2   4
ATOM      4  O   UNL     1       5.058   0.381   2.460  1.00  0.00    -0.481 OA
ATOM      5  H   UNL     1       4.886   0.726   3.392  1.00  0.00     0.296 HD
ENDBRANCH   2   4
ENDBRANCH   1   2
BRANCH   1   6
ATOM      6  C   UNL     1       6.232   0.851  -0.718  1.00  0.00     0.047 C 
BRANCH   6   7
ATOM      7  C   UNL     1       6.985  -0.336  -1.129  1.00  0.00    -0.043 A 
ATOM      8  C   UNL     1       7.280  -0.582  -2.461  1.00  0.00     0.008 A 
ATOM      9  C   UNL     1       7.387  -1.265  -0.206  1.00  0.00     0.054 A 
ATOM     10  C   UNL     1       7.956  -1.716  -2.853  1.00  0.00     0.051 A 
ATOM     11  C   UNL     1       8.067  -2.410  -0.575  1.00  0.00     0.166 A 
ATOM     12  C   UNL     1       8.354  -2.640  -1.899  1.00  0.00     0.165 A 
ATOM     13  O   UNL     1       8.562  -3.465   0.170  1.00  0.00    -0.454 OA
ATOM     14  O   UNL     1       9.035  -3.856  -1.959  1.00  0.00    -0.454 OA
ATOM     15  C   UNL     1       8.899  -4.532  -0.730  1.00  0.00     0.468 C 
ENDBRANCH   6   7
ENDBRANCH   1   6
TORSDOF 4
ENDMDL
MODEL 4
REMARK VINA RESULT:      -7.4      1.784      5.282
REMARK SMILES O=C(O)CCc1ccc2c(c1)OCO2
REMARK SMILES IDX 4 1 2 2 1 3 3 4 5 6 6 7 7 8 11 9 8 10 10 11 9 12 12 13 14 14
REMARK SMILES IDX 13 15
REMARK H PARENT 3 5
REMARK Flexibility Score: inf
ROOT
ATOM      1  C   UNL     1       8.310  -0.318  -2.862  1.00  0.00     0.127 C 
ENDROOT
BRANCH   1   2
ATOM      2  C   UNL     1       8.469  -1.748  -3.076  1.00  0.00     0.303 C 
ATOM      3  O   UNL     1       9.536  -2.365  -3.038  1.00  0.00    -0.252 OA
BRANCH   2   4
ATOM      4  O   UNL     1       7.311  -2.491  -3.352  1.00  0.00    -0.481 OA
ATOM      5  H   UNL     1       7.325  -3.041  -4.197  1.00  0.00     0.296 HD
ENDBRANCH   2   4
ENDBRANCH   1   2
BRANCH   1   6
ATOM      6  C   UNL     1       8.764   0.143  -1.532  1.00  0.00     0.047 C 
BRANCH   6   7
ATOM      7  C   UNL     1       7.795   0.103  -0.435  1.00  0.00    -0.043 A 
ATOM      8  C   UNL     1       7.742  -0.967   0.446  1.00  0.00     0.008 A 
ATOM      9  C   UNL     1       6.881   1.110  -0.270  1.00  0.00     0.054 A 
ATOM     10  C   UNL     1       6.808  -1.023   1.456  1.00  0.00     0.051 A 
ATOM     11  C   UNL     1       5.935   1.075   0.737  1.00  0.00     0.166 A 
ATOM     12  C   UNL     1       5.895   0.009   1.604  1.00  0.00     0.165 A 
ATOM     13  O   UNL     1       4.933   1.962   1.088  1.00  0.00    -0.454 OA
ATOM     14  O   UNL     1       4.850   0.254   2.496  1.00  0.00    -0.454 OA
ATOM     15  C   UNL     1       4.046   1.301   2.003  1.00  0.00     0.468 C 
ENDBRANCH   6   7
ENDBRANCH   1   6
TORSDOF 4
ENDMDL
MODEL 5
REMARK VINA RESULT:      -7.4      0.951      2.092
REMARK SMILES O=C(O)CCc1ccc2c(c1)OCO2
REMARK SMILES IDX 4 1 2 2 1 3 3 4 5 6 6 7 7 8 11 9 8 10 10 11 9 12 12 13 14 14
REMARK SMILES IDX 13 15
REMARK H PARENT 3 5
REMARK Flexibility Score: inf
ROOT
ATOM      1  C   UNL     1       5.545   2.708   0.051  1.00  0.00     0.127 C 
ENDROOT
BRANCH   1   2
ATOM      2  C   UNL     1       6.196   3.715   0.874  1.00  0.00     0.303 C 
ATOM      3  O   UNL     1       6.227   3.724   2.106  1.00  0.00    -0.252 OA
BRANCH   2   4
ATOM      4  O   UNL     1       6.846   4.767   0.211  1.00  0.00    -0.481 OA
ATOM      5  H   UNL     1       7.076   5.573   0.772  1.00  0.00     0.296 HD
ENDBRANCH   2   4
ENDBRANCH   1   2
BRANCH   1   6
ATOM      6  C   UNL     1       5.521   1.360   0.658  1.00  0.00     0.047 C 
BRANCH   6   7
ATOM      7  C   UNL     1       6.315   0.312   0.014  1.00  0.00    -0.043 A 
ATOM      8  C   UNL     1       6.439   0.241  -1.365  1.00  0.00     0.008 A 
ATOM      9  C   UNL     1       6.932  -0.658   0.759  1.00  0.00     0.054 A 
ATOM     10  C   UNL     1       7.156  -0.764  -1.974  1.00  0.00     0.051 A 
ATOM     11  C   UNL     1       7.657  -1.676   0.170  1.00  0.00     0.166 A 
ATOM     12  C   UNL     1       7.772  -1.733  -1.198  1.00  0.00     0.165 A 
ATOM     13  O   UNL     1       8.351  -2.743   0.713  1.00  0.00    -0.454 OA
ATOM     14  O   UNL     1       8.549  -2.854  -1.491  1.00  0.00    -0.454 OA
ATOM     15  C   UNL     1       8.656  -3.666  -0.344  1.00  0.00     0.468 C 
ENDBRANCH   6   7
ENDBRANCH   1   6
TORSDOF 4
ENDMDL
