@<TRIPOS>MOLECULE
/home/cewinharhar/GITHUB/reincatalyze/data/processed/docking_pred/2023-May-17-1006_maxeplen10_maxtrainstep1000_seadep16_gamma099_lrac9e-4_lrcr1e-3_sub6/3c93f0ab1d0179ecce707f4524a6ff468bff7290_ligand_6.pdbqt
 15 16 0 0 0
SMALL
GASTEIGER

@<TRIPOS>ATOM
      1  C          6.4170    1.3310    0.6680 C.3     1  UNL1        0.1270
      2  C          5.1940    1.3510    1.4540 C.2     1  UNL1        0.3030
      3  O          4.2640    2.1470    1.3140 O.2     1  UNL1       -0.2520
      4  O          5.0580    0.3810    2.4600 O.3     1  UNL1       -0.4810
      5  H          4.8860    0.7260    3.3920 H       1  UNL1        0.2960
      6  C          6.2320    0.8510   -0.7180 C.3     1  UNL1        0.0470
      7  C          6.9850   -0.3360   -1.1290 C.2     1  UNL1       -0.0430
      8  C          7.2800   -0.5820   -2.4610 C.2     1  UNL1        0.0080
      9  C          7.3870   -1.2650   -0.2060 C.2     1  UNL1        0.0540
     10  C          7.9560   -1.7160   -2.8530 C.2     1  UNL1        0.0510
     11  C          8.0670   -2.4100   -0.5750 C.2     1  UNL1        0.1660
     12  C          8.3540   -2.6400   -1.8990 C.2     1  UNL1        0.1650
     13  O          8.5620   -3.4650    0.1700 O.2     1  UNL1       -0.4540
     14  O          9.0350   -3.8560   -1.9590 O.2     1  UNL1       -0.4540
     15  C          8.8990   -4.5320   -0.7300 C.3     1  UNL1        0.4680
@<TRIPOS>BOND
     1    10     8    1
     2    10    12    2
     3     8     7    2
     4    14    12    1
     5    14    15    1
     6    12    11    1
     7     7     6    1
     8     7     9    1
     9    15    13    1
    10     6     1    1
    11    11     9    2
    12    11    13    1
    13     1     2    1
    14     3     2    2
    15     2     4    1
    16     4     5    1
