@<TRIPOS>MOLECULE
/home/cewinharhar/GITHUB/reincatalyze/data/processed/docking_pred/2023-May-17-1006_maxeplen10_maxtrainstep1000_seadep16_gamma099_lrac9e-4_lrcr1e-3_sub6/3c93f0ab1d0179ecce707f4524a6ff468bff7290_ligand_6.pdbqt
 15 16 0 0 0
SMALL
GASTEIGER

@<TRIPOS>ATOM
      1  C          8.3100   -0.3180   -2.8620 C.3     1  UNL1        0.1270
      2  C          8.4690   -1.7480   -3.0760 C.2     1  UNL1        0.3030
      3  O          9.5360   -2.3650   -3.0380 O.2     1  UNL1       -0.2520
      4  O          7.3110   -2.4910   -3.3520 O.3     1  UNL1       -0.4810
      5  H          7.3250   -3.0410   -4.1970 H       1  UNL1        0.2960
      6  C          8.7640    0.1430   -1.5320 C.3     1  UNL1        0.0470
      7  C          7.7950    0.1030   -0.4350 C.2     1  UNL1       -0.0430
      8  C          7.7420   -0.9670    0.4460 C.2     1  UNL1        0.0080
      9  C          6.8810    1.1100   -0.2700 C.2     1  UNL1        0.0540
     10  C          6.8080   -1.0230    1.4560 C.2     1  UNL1        0.0510
     11  C          5.9350    1.0750    0.7370 C.2     1  UNL1        0.1660
     12  C          5.8950    0.0090    1.6040 C.2     1  UNL1        0.1650
     13  O          4.9330    1.9620    1.0880 O.2     1  UNL1       -0.4540
     14  O          4.8500    0.2540    2.4960 O.2     1  UNL1       -0.4540
     15  C          4.0460    1.3010    2.0030 C.3     1  UNL1        0.4680
@<TRIPOS>BOND
     1     5     4    1
     2     4     2    1
     3     2     3    2
     4     2     1    1
     5     1     6    1
     6     6     7    1
     7     7     9    2
     8     7     8    1
     9     9    11    1
    10     8    10    2
    11    11    13    1
    12    11    12    2
    13    13    15    1
    14    10    12    1
    15    12    14    1
    16    15    14    1
