@<TRIPOS>MOLECULE
/home/cewinharhar/GITHUB/reincatalyze/data/processed/docking_pred/2023-May-17-1006_maxeplen10_maxtrainstep1000_seadep16_gamma099_lrac9e-4_lrcr1e-3_sub6/3dd20a82ca316ee4e9168eadca9f8684e5881f32_ligand_6.pdbqt
 15 16 0 0 0
SMALL
GASTEIGER

@<TRIPOS>ATOM
      1  C          4.7440    1.8850    0.6940 C.3     1  UNL1        0.1270
      2  C          4.4320    1.1590    1.9150 C.2     1  UNL1        0.3030
      3  O          5.1590    0.3260    2.4600 O.2     1  UNL1       -0.2520
      4  O          3.1980    1.4280    2.5280 O.3     1  UNL1       -0.4810
      5  H          3.2350    1.9330    3.4000 H       1  UNL1        0.2960
      6  C          6.1740    2.2300    0.5490 C.3     1  UNL1        0.0470
      7  C          7.0140    1.3210   -0.2330 C.2     1  UNL1       -0.0430
      8  C          8.3750    1.5410   -0.3840 C.2     1  UNL1        0.0080
      9  C          6.4690    0.2410   -0.8750 C.2     1  UNL1        0.0540
     10  C          9.1600    0.7070   -1.1480 C.2     1  UNL1        0.0510
     11  C          7.2370   -0.6100   -1.6470 C.2     1  UNL1        0.1660
     12  C          8.5850   -0.3800   -1.7860 C.2     1  UNL1        0.1650
     13  O          6.9080   -1.7420   -2.3720 O.2     1  UNL1       -0.4540
     14  O          9.0820   -1.3910   -2.6110 O.2     1  UNL1       -0.4540
     15  C          8.0110   -2.0590   -3.2350 C.3     1  UNL1        0.4680
@<TRIPOS>BOND
     1    15    14    1
     2    15    13    1
     3    14    12    1
     4    13    11    1
     5    12    11    2
     6    12    10    1
     7    11     9    1
     8    10     8    2
     9     9     7    2
    10     8     7    1
    11     7     6    1
    12     6     1    1
    13     1     2    1
    14     2     3    2
    15     2     4    1
    16     4     5    1
