@<TRIPOS>MOLECULE
/home/cewinharhar/GITHUB/reincatalyze/data/processed/docking_pred/2023-May-17-1006_maxeplen10_maxtrainstep1000_seadep16_gamma099_lrac9e-4_lrcr1e-3_sub6/3dd20a82ca316ee4e9168eadca9f8684e5881f32_ligand_6.pdbqt
 15 16 0 0 0
SMALL
GASTEIGER

@<TRIPOS>ATOM
      1  C          5.6880    2.6530    0.4820 C.3     1  UNL1        0.1270
      2  C          6.2300    3.8720    1.0620 C.2     1  UNL1        0.3030
      3  O          6.1460    4.2010    2.2470 O.2     1  UNL1       -0.2520
      4  O          6.9060    4.7500    0.2010 O.3     1  UNL1       -0.4810
      5  H          6.7770    4.5930   -0.7870 H       1  UNL1        0.2960
      6  C          6.1040    1.4190    1.1820 C.3     1  UNL1        0.0470
      7  C          6.6710    0.3390    0.3720 C.2     1  UNL1       -0.0430
      8  C          6.4890    0.2910   -1.0020 C.2     1  UNL1        0.0080
      9  C          7.3690   -0.6830    0.9570 C.2     1  UNL1        0.0540
     10  C          6.9910   -0.7430   -1.7600 C.2     1  UNL1        0.0510
     11  C          7.8830   -1.7310    0.2160 C.2     1  UNL1        0.1660
     12  C          7.6950   -1.7650   -1.1450 C.2     1  UNL1        0.1650
     13  O          8.6070   -2.8500    0.5870 O.2     1  UNL1       -0.4540
     14  O          8.3170   -2.9250   -1.6080 O.2     1  UNL1       -0.4540
     15  C          8.6160   -3.7660   -0.5190 C.3     1  UNL1        0.4680
@<TRIPOS>BOND
     1    10    12    2
     2    10     8    1
     3    14    12    1
     4    14    15    1
     5    12    11    1
     6     8     7    2
     7     5     4    1
     8    15    13    1
     9     4     2    1
    10    11    13    1
    11    11     9    2
    12     7     9    1
    13     7     6    1
    14     1     2    1
    15     1     6    1
    16     2     3    2
