@<TRIPOS>MOLECULE
/home/cewinharhar/GITHUB/reincatalyze/data/processed/docking_pred/2023-May-17-1006_maxeplen10_maxtrainstep1000_seadep16_gamma099_lrac9e-4_lrcr1e-3_sub6/3dd20a82ca316ee4e9168eadca9f8684e5881f32_ligand_6.pdbqt
 15 16 0 0 0
SMALL
GASTEIGER

@<TRIPOS>ATOM
      1  C          8.3050   -0.3210   -2.8250 C.3     1  UNL1        0.1270
      2  C          8.4700   -1.7470   -3.0560 C.2     1  UNL1        0.3030
      3  O          9.5380   -2.3600   -3.0240 O.2     1  UNL1       -0.2520
      4  O          7.3140   -2.4910   -3.3420 O.3     1  UNL1       -0.4810
      5  H          6.8380   -2.2620   -4.2010 H       1  UNL1        0.2960
      6  C          8.7640    0.1280   -1.4930 C.3     1  UNL1        0.0470
      7  C          7.7940    0.0960   -0.3960 C.2     1  UNL1       -0.0430
      8  C          7.7570   -0.9540    0.5080 C.2     1  UNL1        0.0080
      9  C          6.8640    1.0910   -0.2550 C.2     1  UNL1        0.0540
     10  C          6.8230   -1.0040    1.5180 C.2     1  UNL1        0.0510
     11  C          5.9170    1.0630    0.7520 C.2     1  UNL1        0.1660
     12  C          5.8930    0.0160    1.6420 C.2     1  UNL1        0.1650
     13  O          4.8990    1.9410    1.0810 O.2     1  UNL1       -0.4540
     14  O          4.8420    0.2630    2.5270 O.2     1  UNL1       -0.4540
     15  C          4.0220    1.2850    2.0090 C.3     1  UNL1        0.4680
@<TRIPOS>BOND
     1     5     4    1
     2     4     2    1
     3     2     3    2
     4     2     1    1
     5     1     6    1
     6     6     7    1
     7     7     9    2
     8     7     8    1
     9     9    11    1
    10     8    10    2
    11    11    13    1
    12    11    12    2
    13    13    15    1
    14    10    12    1
    15    12    14    1
    16    15    14    1
