@<TRIPOS>MOLECULE
/home/cewinharhar/GITHUB/reincatalyze/data/processed/docking_pred/2023-May-17-1006_maxeplen10_maxtrainstep1000_seadep16_gamma099_lrac9e-4_lrcr1e-3_sub6/3dd20a82ca316ee4e9168eadca9f8684e5881f32_ligand_6.pdbqt
 15 16 0 0 0
SMALL
GASTEIGER

@<TRIPOS>ATOM
      1  C          5.4230    2.8660    0.1270 C.3     1  UNL1        0.1270
      2  C          6.2600    3.8460    0.8000 C.2     1  UNL1        0.3030
      3  O          6.8950    4.7470    0.2480 O.2     1  UNL1       -0.2520
      4  O          6.3550    3.7610    2.1980 O.3     1  UNL1       -0.4810
      5  H          7.2680    3.5490    2.5700 H       1  UNL1        0.2960
      6  C          5.3590    1.5580    0.8140 C.3     1  UNL1        0.0470
      7  C          6.1360    0.4550    0.2450 C.2     1  UNL1       -0.0430
      8  C          6.5950   -0.5900    1.0320 C.2     1  UNL1        0.0080
      9  C          6.4670    0.4440   -1.0840 C.2     1  UNL1        0.0540
     10  C          7.3570   -1.6090    0.5050 C.2     1  UNL1        0.0510
     11  C          7.2290   -0.5680   -1.6350 C.2     1  UNL1        0.1660
     12  C          7.6770   -1.5980   -0.8430 C.2     1  UNL1        0.1650
     13  O          7.6770   -0.7830   -2.9270 O.2     1  UNL1       -0.4540
     14  O          8.4090   -2.4530   -1.6680 O.2     1  UNL1       -0.4540
     15  C          8.6830   -1.8060   -2.8900 C.3     1  UNL1        0.4680
@<TRIPOS>BOND
     1    13    15    1
     2    13    11    1
     3    15    14    1
     4    14    12    1
     5    11     9    1
     6    11    12    2
     7     9     7    2
     8    12    10    1
     9     1     2    1
    10     1     6    1
    11     7     6    1
    12     7     8    1
    13     3     2    2
    14    10     8    2
    15     2     4    1
    16     4     5    1
