@<TRIPOS>MOLECULE
/home/cewinharhar/GITHUB/reincatalyze/data/processed/docking_pred/2023-May-17-1006_maxeplen10_maxtrainstep1000_seadep16_gamma099_lrac9e-4_lrcr1e-3_sub6/3dd20a82ca316ee4e9168eadca9f8684e5881f32_ligand_6.pdbqt
 15 16 0 0 0
SMALL
GASTEIGER

@<TRIPOS>ATOM
      1  C          6.4200    1.2150    0.6800 C.3     1  UNL1        0.1270
      2  C          5.2320    1.1610    1.5180 C.2     1  UNL1        0.3030
      3  O          5.0080    0.3210    2.3910 O.2     1  UNL1       -0.2520
      4  O          4.2550    2.1490    1.3160 O.3     1  UNL1       -0.4810
      5  H          3.5600    2.2420    2.0400 H       1  UNL1        0.2960
      6  C          6.2040    0.7280   -0.6990 C.3     1  UNL1        0.0470
      7  C          6.9750   -0.4390   -1.1330 C.2     1  UNL1       -0.0430
      8  C          7.2780   -0.6510   -2.4690 C.2     1  UNL1        0.0080
      9  C          7.3860   -1.3820   -0.2290 C.2     1  UNL1        0.0540
     10  C          7.9710   -1.7670   -2.8830 C.2     1  UNL1        0.0510
     11  C          8.0840   -2.5090   -0.6210 C.2     1  UNL1        0.1660
     12  C          8.3790   -2.7060   -1.9490 C.2     1  UNL1        0.1650
     13  O          8.5910   -3.5740    0.1030 O.2     1  UNL1       -0.4540
     14  O          9.0770   -3.9110   -2.0320 O.2     1  UNL1       -0.4540
     15  C          8.9460   -4.6150   -0.8190 C.3     1  UNL1        0.4680
@<TRIPOS>BOND
     1    10     8    1
     2    10    12    2
     3     8     7    2
     4    14    12    1
     5    14    15    1
     6    12    11    1
     7     7     6    1
     8     7     9    1
     9    15    13    1
    10     6     1    1
    11    11     9    2
    12    11    13    1
    13     1     2    1
    14     4     2    1
    15     4     5    1
    16     2     3    2
