@<TRIPOS>MOLECULE
/home/cewinharhar/GITHUB/reincatalyze/data/processed/docking_pred/2023-May-17-1006_maxeplen10_maxtrainstep1000_seadep16_gamma099_lrac9e-4_lrcr1e-3_sub6/3e742204aaadd08b2af2eabe2bac092cf241077d_ligand_6.pdbqt
 15 16 0 0 0
SMALL
GASTEIGER

@<TRIPOS>ATOM
      1  C          5.4140    2.8730    0.1210 C.3     1  UNL1        0.1270
      2  C          6.2420    3.8580    0.7990 C.2     1  UNL1        0.3030
      3  O          6.8880    4.7520    0.2490 O.2     1  UNL1       -0.2520
      4  O          6.3140    3.7860    2.1990 O.3     1  UNL1       -0.4810
      5  H          5.6060    4.2930    2.7070 H       1  UNL1        0.2960
      6  C          5.3470    1.5680    0.8120 C.3     1  UNL1        0.0470
      7  C          6.1270    0.4630    0.2500 C.2     1  UNL1       -0.0430
      8  C          6.5760   -0.5830    1.0420 C.2     1  UNL1        0.0080
      9  C          6.4710    0.4510   -1.0750 C.2     1  UNL1        0.0540
     10  C          7.3400   -1.6040    0.5220 C.2     1  UNL1        0.0510
     11  C          7.2360   -0.5630   -1.6190 C.2     1  UNL1        0.1660
     12  C          7.6730   -1.5940   -0.8220 C.2     1  UNL1        0.1650
     13  O          7.6960   -0.7790   -2.9060 O.2     1  UNL1       -0.4540
     14  O          8.4120   -2.4500   -1.6410 O.2     1  UNL1       -0.4540
     15  C          8.6990   -1.8050   -2.8600 C.3     1  UNL1        0.4680
@<TRIPOS>BOND
     1    13    15    1
     2    13    11    1
     3    15    14    1
     4    14    12    1
     5    11     9    1
     6    11    12    2
     7     9     7    2
     8    12    10    1
     9     1     2    1
    10     1     6    1
    11     3     2    2
    12     7     6    1
    13     7     8    1
    14    10     8    2
    15     2     4    1
    16     4     5    1
