@<TRIPOS>MOLECULE
/home/cewinharhar/GITHUB/reincatalyze/data/processed/docking_pred/2023-May-17-1006_maxeplen10_maxtrainstep1000_seadep16_gamma099_lrac9e-4_lrcr1e-3_sub6/3e742204aaadd08b2af2eabe2bac092cf241077d_ligand_6.pdbqt
 15 16 0 0 0
SMALL
GASTEIGER

@<TRIPOS>ATOM
      1  C          6.3820    1.3250    0.6210 C.3     1  UNL1        0.1270
      2  C          5.1840    1.3150    1.4460 C.2     1  UNL1        0.3030
      3  O          4.2530    2.1190    1.3690 O.2     1  UNL1       -0.2520
      4  O          5.0770    0.3050    2.4140 O.3     1  UNL1       -0.4810
      5  H          4.1580   -0.0880    2.5480 H       1  UNL1        0.2960
      6  C          6.1650    0.8350   -0.7570 C.3     1  UNL1        0.0470
      7  C          6.9420   -0.3290   -1.1910 C.2     1  UNL1       -0.0430
      8  C          7.2550   -0.5340   -2.5260 C.2     1  UNL1        0.0080
      9  C          7.3500   -1.2740   -0.2880 C.2     1  UNL1        0.0540
     10  C          7.9530   -1.6460   -2.9400 C.2     1  UNL1        0.0510
     11  C          8.0530   -2.3980   -0.6810 C.2     1  UNL1        0.1660
     12  C          8.3570   -2.5880   -2.0070 C.2     1  UNL1        0.1650
     13  O          8.5580   -3.4650    0.0420 O.2     1  UNL1       -0.4540
     14  O          9.0590   -3.7910   -2.0910 O.2     1  UNL1       -0.4540
     15  C          8.9220   -4.5010   -0.8820 C.3     1  UNL1        0.4680
@<TRIPOS>BOND
     1    10     8    1
     2    10    12    2
     3     8     7    2
     4    14    12    1
     5    14    15    1
     6    12    11    1
     7     7     6    1
     8     7     9    1
     9    15    13    1
    10     6     1    1
    11    11     9    2
    12    11    13    1
    13     1     2    1
    14     3     2    2
    15     2     4    1
    16     4     5    1
