@<TRIPOS>MOLECULE
/home/cewinharhar/GITHUB/reincatalyze/data/processed/docking_pred/2023-May-17-1006_maxeplen10_maxtrainstep1000_seadep16_gamma099_lrac9e-4_lrcr1e-3_sub6/3e742204aaadd08b2af2eabe2bac092cf241077d_ligand_6.pdbqt
 15 16 0 0 0
SMALL
GASTEIGER

@<TRIPOS>ATOM
      1  C          5.4070    2.8180    0.0850 C.3     1  UNL1        0.1270
      2  C          6.1130    3.8390    0.8430 C.2     1  UNL1        0.3030
      3  O          6.1040    3.9550    2.0700 O.2     1  UNL1       -0.2520
      4  O          6.8680    4.7740    0.1190 O.3     1  UNL1       -0.4810
      5  H          7.6000    5.2460    0.6280 H       1  UNL1        0.2960
      6  C          5.4020    1.4880    0.7290 C.3     1  UNL1        0.0470
      7  C          6.2440    0.4450    0.1390 C.2     1  UNL1       -0.0430
      8  C          6.5360    0.4310   -1.2160 C.2     1  UNL1        0.0080
      9  C          6.7390   -0.5740    0.9080 C.2     1  UNL1        0.0540
     10  C          7.2980   -0.5690   -1.7790 C.2     1  UNL1        0.0510
     11  C          7.5060   -1.5870    0.3650 C.2     1  UNL1        0.1660
     12  C          7.7880   -1.5880   -0.9800 C.2     1  UNL1        0.1650
     13  O          8.1010   -2.6970    0.9390 O.2     1  UNL1       -0.4540
     14  O          8.5690   -2.7190   -1.2270 O.2     1  UNL1       -0.4540
     15  C          8.5120   -3.5820   -0.1150 C.3     1  UNL1        0.4680
@<TRIPOS>BOND
     1    10     8    1
     2    10    12    2
     3    14    12    1
     4    14    15    1
     5     8     7    2
     6    12    11    1
     7    15    13    1
     8     1     6    1
     9     1     2    1
    10     4     5    1
    11     4     2    1
    12     7     6    1
    13     7     9    1
    14    11     9    2
    15    11    13    1
    16     2     3    2
