@<TRIPOS>MOLECULE
/home/cewinharhar/GITHUB/reincatalyze/data/processed/docking_pred/2023-May-17-1006_maxeplen10_maxtrainstep1000_seadep16_gamma099_lrac9e-4_lrcr1e-3_sub6/3e742204aaadd08b2af2eabe2bac092cf241077d_ligand_6.pdbqt
 15 16 0 0 0
SMALL
GASTEIGER

@<TRIPOS>ATOM
      1  C          8.3210   -0.3200   -2.8260 C.3     1  UNL1        0.1270
      2  C          8.4790   -1.7460   -3.0660 C.2     1  UNL1        0.3030
      3  O          9.5440   -2.3640   -3.0370 O.2     1  UNL1       -0.2520
      4  O          7.3200   -2.4820   -3.3560 O.3     1  UNL1       -0.4810
      5  H          6.5470   -1.9630   -3.7440 H       1  UNL1        0.2960
      6  C          8.7660    0.1160   -1.4850 C.3     1  UNL1        0.0470
      7  C          7.7820    0.0810   -0.4000 C.2     1  UNL1       -0.0430
      8  C          7.7130   -0.9850    0.4820 C.2     1  UNL1        0.0080
      9  C          6.8700    1.0920   -0.2500 C.2     1  UNL1        0.0540
     10  C          6.7650   -1.0360    1.4800 C.2     1  UNL1        0.0510
     11  C          5.9110    1.0630    0.7440 C.2     1  UNL1        0.1660
     12  C          5.8550   -0.0000    1.6120 C.2     1  UNL1        0.1650
     13  O          4.9070    1.9550    1.0780 O.2     1  UNL1       -0.4540
     14  O          4.7990    0.2510    2.4890 O.2     1  UNL1       -0.4540
     15  C          4.0060    1.3000    1.9830 C.3     1  UNL1        0.4680
@<TRIPOS>BOND
     1     5     4    1
     2     4     2    1
     3     2     3    2
     4     2     1    1
     5     1     6    1
     6     6     7    1
     7     7     9    2
     8     7     8    1
     9     9    11    1
    10     8    10    2
    11    11    13    1
    12    11    12    2
    13    13    15    1
    14    10    12    1
    15    12    14    1
    16    15    14    1
