@<TRIPOS>MOLECULE
/home/cewinharhar/GITHUB/reincatalyze/data/processed/docking_pred/2023-May-17-1006_maxeplen10_maxtrainstep1000_seadep16_gamma099_lrac9e-4_lrcr1e-3_sub6/3e742204aaadd08b2af2eabe2bac092cf241077d_ligand_6.pdbqt
 15 16 0 0 0
SMALL
GASTEIGER

@<TRIPOS>ATOM
      1  C          4.7060    1.8780    0.6830 C.3     1  UNL1        0.1270
      2  C          4.3940    1.1690    1.9140 C.2     1  UNL1        0.3030
      3  O          5.1150    0.3330    2.4630 O.2     1  UNL1       -0.2520
      4  O          3.1680    1.4600    2.5330 O.3     1  UNL1       -0.4810
      5  H          3.2190    1.9520    3.4110 H       1  UNL1        0.2960
      6  C          6.1340    2.2360    0.5420 C.3     1  UNL1        0.0470
      7  C          6.9850    1.3310   -0.2340 C.2     1  UNL1       -0.0430
      8  C          8.3450    1.5600   -0.3760 C.2     1  UNL1        0.0080
      9  C          6.4510    0.2460   -0.8760 C.2     1  UNL1        0.0540
     10  C          9.1400    0.7300   -1.1350 C.2     1  UNL1        0.0510
     11  C          7.2300   -0.6010   -1.6420 C.2     1  UNL1        0.1660
     12  C          8.5770   -0.3620   -1.7740 C.2     1  UNL1        0.1650
     13  O          6.9130   -1.7360   -2.3680 O.2     1  UNL1       -0.4540
     14  O          9.0860   -1.3700   -2.5940 O.2     1  UNL1       -0.4540
     15  C          8.0230   -2.0470   -3.2230 C.3     1  UNL1        0.4680
@<TRIPOS>BOND
     1    15    14    1
     2    15    13    1
     3    14    12    1
     4    13    11    1
     5    12    11    2
     6    12    10    1
     7    11     9    1
     8    10     8    2
     9     9     7    2
    10     8     7    1
    11     7     6    1
    12     6     1    1
    13     1     2    1
    14     2     3    2
    15     2     4    1
    16     4     5    1
