MODEL 1
REMARK VINA RESULT:      -7.7      0.000      0.000
REMARK SMILES O=C(O)CCc1ccc2c(c1)OCO2
REMARK SMILES IDX 4 1 2 2 1 3 3 4 5 6 6 7 7 8 11 9 8 10 10 11 9 12 12 13 14 14
REMARK SMILES IDX 13 15
REMARK H PARENT 3 5
REMARK Flexibility Score: inf
ROOT
ATOM      1  C   UNL     1       5.411   2.877   0.121  1.00  0.00     0.127 C 
ENDROOT
BRANCH   1   2
ATOM      2  C   UNL     1       6.237   3.857   0.809  1.00  0.00     0.303 C 
ATOM      3  O   UNL     1       6.861   4.773   0.270  1.00  0.00    -0.252 OA
BRANCH   2   4
ATOM      4  O   UNL     1       6.334   3.752   2.205  1.00  0.00    -0.481 OA
ATOM      5  H   UNL     1       5.635   4.246   2.738  1.00  0.00     0.296 HD
ENDBRANCH   2   4
ENDBRANCH   1   2
BRANCH   1   6
ATOM      6  C   UNL     1       5.340   1.567   0.804  1.00  0.00     0.047 C 
BRANCH   6   7
ATOM      7  C   UNL     1       6.120   0.465   0.238  1.00  0.00    -0.043 A 
ATOM      8  C   UNL     1       6.590  -0.571   1.030  1.00  0.00     0.008 A 
ATOM      9  C   UNL     1       6.442   0.446  -1.093  1.00  0.00     0.054 A 
ATOM     10  C   UNL     1       7.355  -1.590   0.506  1.00  0.00     0.051 A 
ATOM     11  C   UNL     1       7.207  -0.566  -1.641  1.00  0.00     0.166 A 
ATOM     12  C   UNL     1       7.666  -1.587  -0.844  1.00  0.00     0.165 A 
ATOM     13  O   UNL     1       7.648  -0.788  -2.934  1.00  0.00    -0.454 OA
ATOM     14  O   UNL     1       8.398  -2.444  -1.668  1.00  0.00    -0.454 OA
ATOM     15  C   UNL     1       8.660  -1.805  -2.896  1.00  0.00     0.468 C 
ENDBRANCH   6   7
ENDBRANCH   1   6
TORSDOF 4
ENDMDL
MODEL 2
REMARK VINA RESULT:      -7.6      2.123      2.508
REMARK SMILES O=C(O)CCc1ccc2c(c1)OCO2
REMARK SMILES IDX 4 1 2 2 1 3 3 4 5 6 6 7 7 8 11 9 8 10 10 11 9 12 12 13 14 14
REMARK SMILES IDX 13 15
REMARK H PARENT 3 5
REMARK Flexibility Score: inf
ROOT
ATOM      1  C   UNL     1       4.657   1.852   0.679  1.00  0.00     0.127 C 
ENDROOT
BRANCH   1   2
ATOM      2  C   UNL     1       4.383   1.150   1.923  1.00  0.00     0.303 C 
ATOM      3  O   UNL     1       5.131   0.335   2.467  1.00  0.00    -0.252 OA
BRANCH   2   4
ATOM      4  O   UNL     1       3.163   1.423   2.562  1.00  0.00    -0.481 OA
ATOM      5  H   UNL     1       2.452   0.713   2.485  1.00  0.00     0.296 HD
ENDBRANCH   2   4
ENDBRANCH   1   2
BRANCH   1   6
ATOM      6  C   UNL     1       6.073   2.240   0.508  1.00  0.00     0.047 C 
BRANCH   6   7
ATOM      7  C   UNL     1       6.938   1.331  -0.247  1.00  0.00    -0.043 A 
ATOM      8  C   UNL     1       8.302   1.555  -0.360  1.00  0.00     0.008 A 
ATOM      9  C   UNL     1       6.415   0.246  -0.899  1.00  0.00     0.054 A 
ATOM     10  C   UNL     1       9.111   0.721  -1.100  1.00  0.00     0.051 A 
ATOM     11  C   UNL     1       7.207  -0.604  -1.646  1.00  0.00     0.166 A 
ATOM     12  C   UNL     1       8.557  -0.370  -1.749  1.00  0.00     0.165 A 
ATOM     13  O   UNL     1       6.903  -1.740  -2.376  1.00  0.00    -0.454 OA
ATOM     14  O   UNL     1       9.081  -1.382  -2.556  1.00  0.00    -0.454 OA
ATOM     15  C   UNL     1       8.030  -2.056  -3.207  1.00  0.00     0.468 C 
ENDBRANCH   6   7
ENDBRANCH   1   6
TORSDOF 4
ENDMDL
MODEL 3
REMARK VINA RESULT:      -7.5      1.963      2.867
REMARK SMILES O=C(O)CCc1ccc2c(c1)OCO2
REMARK SMILES IDX 4 1 2 2 1 3 3 4 5 6 6 7 7 8 11 9 8 10 10 11 9 12 12 13 14 14
REMARK SMILES IDX 13 15
REMARK H PARENT 3 5
REMARK Flexibility Score: inf
ROOT
ATOM      1  C   UNL     1       6.395   1.346   0.651  1.00  0.00     0.127 C 
ENDROOT
BRANCH   1   2
ATOM      2  C   UNL     1       5.202   1.297   1.481  1.00  0.00     0.303 C 
ATOM      3  O   UNL     1       4.248   2.075   1.412  1.00  0.00    -0.252 OA
BRANCH   2   4
ATOM      4  O   UNL     1       5.128   0.278   2.443  1.00  0.00    -0.481 OA
ATOM      5  H   UNL     1       5.989  -0.204   2.648  1.00  0.00     0.296 HD
ENDBRANCH   2   4
ENDBRANCH   1   2
BRANCH   1   6
ATOM      6  C   UNL     1       6.184   0.869  -0.733  1.00  0.00     0.047 C 
BRANCH   6   7
ATOM      7  C   UNL     1       6.953  -0.297  -1.172  1.00  0.00    -0.043 A 
ATOM      8  C   UNL     1       7.258  -0.502  -2.508  1.00  0.00     0.008 A 
ATOM      9  C   UNL     1       7.362  -1.245  -0.272  1.00  0.00     0.054 A 
ATOM     10  C   UNL     1       7.950  -1.617  -2.927  1.00  0.00     0.051 A 
ATOM     11  C   UNL     1       8.058  -2.372  -0.669  1.00  0.00     0.166 A 
ATOM     12  C   UNL     1       8.355  -2.561  -1.997  1.00  0.00     0.165 A 
ATOM     13  O   UNL     1       8.562  -3.441   0.050  1.00  0.00    -0.454 OA
ATOM     14  O   UNL     1       9.051  -3.767  -2.086  1.00  0.00    -0.454 OA
ATOM     15  C   UNL     1       8.917  -4.478  -0.877  1.00  0.00     0.468 C 
ENDBRANCH   6   7
ENDBRANCH   1   6
TORSDOF 4
ENDMDL
MODEL 4
REMARK VINA RESULT:      -7.4      1.785      5.286
REMARK SMILES O=C(O)CCc1ccc2c(c1)OCO2
REMARK SMILES IDX 4 1 2 2 1 3 3 4 5 6 6 7 7 8 11 9 8 10 10 11 9 12 12 13 14 14
REMARK SMILES IDX 13 15
REMARK H PARENT 3 5
REMARK Flexibility Score: inf
ROOT
ATOM      1  C   UNL     1       8.306  -0.321  -2.867  1.00  0.00     0.127 C 
ENDROOT
BRANCH   1   2
ATOM      2  C   UNL     1       8.470  -1.751  -3.078  1.00  0.00     0.303 C 
ATOM      3  O   UNL     1       9.537  -2.365  -3.035  1.00  0.00    -0.252 OA
BRANCH   2   4
ATOM      4  O   UNL     1       7.313  -2.498  -3.354  1.00  0.00    -0.481 OA
ATOM      5  H   UNL     1       7.442  -3.326  -3.914  1.00  0.00     0.296 HD
ENDBRANCH   2   4
ENDBRANCH   1   2
BRANCH   1   6
ATOM      6  C   UNL     1       8.757   0.144  -1.538  1.00  0.00     0.047 C 
BRANCH   6   7
ATOM      7  C   UNL     1       7.787   0.103  -0.441  1.00  0.00    -0.043 A 
ATOM      8  C   UNL     1       7.731  -0.969   0.437  1.00  0.00     0.008 A 
ATOM      9  C   UNL     1       6.876   1.112  -0.274  1.00  0.00     0.054 A 
ATOM     10  C   UNL     1       6.796  -1.025   1.446  1.00  0.00     0.051 A 
ATOM     11  C   UNL     1       5.929   1.076   0.732  1.00  0.00     0.166 A 
ATOM     12  C   UNL     1       5.886   0.008   1.596  1.00  0.00     0.165 A 
ATOM     13  O   UNL     1       4.929   1.966   1.084  1.00  0.00    -0.454 OA
ATOM     14  O   UNL     1       4.840   0.254   2.487  1.00  0.00    -0.454 OA
ATOM     15  C   UNL     1       4.040   1.304   1.997  1.00  0.00     0.468 C 
ENDBRANCH   6   7
ENDBRANCH   1   6
TORSDOF 4
ENDMDL
MODEL 5
REMARK VINA RESULT:      -7.4      0.934      2.072
REMARK SMILES O=C(O)CCc1ccc2c(c1)OCO2
REMARK SMILES IDX 4 1 2 2 1 3 3 4 5 6 6 7 7 8 11 9 8 10 10 11 9 12 12 13 14 14
REMARK SMILES IDX 13 15
REMARK H PARENT 3 5
REMARK Flexibility Score: inf
ROOT
ATOM      1  C   UNL     1       5.488   2.662   0.102  1.00  0.00     0.127 C 
ENDROOT
BRANCH   1   2
ATOM      2  C   UNL     1       6.184   3.656   0.904  1.00  0.00     0.303 C 
ATOM      3  O   UNL     1       6.280   3.648   2.132  1.00  0.00    -0.252 OA
BRANCH   2   4
ATOM      4  O   UNL     1       6.800   4.717   0.221  1.00  0.00    -0.481 OA
ATOM      5  H   UNL     1       6.459   4.906  -0.709  1.00  0.00     0.296 HD
ENDBRANCH   2   4
ENDBRANCH   1   2
BRANCH   1   6
ATOM      6  C   UNL     1       5.508   1.302   0.683  1.00  0.00     0.047 C 
BRANCH   6   7
ATOM      7  C   UNL     1       6.314   0.286   0.003  1.00  0.00    -0.043 A 
ATOM      8  C   UNL     1       6.461   0.281  -1.375  1.00  0.00     0.008 A 
ATOM      9  C   UNL     1       6.919  -0.717   0.712  1.00  0.00     0.054 A 
ATOM     10  C   UNL     1       7.189  -0.695  -2.019  1.00  0.00     0.051 A 
ATOM     11  C   UNL     1       7.655  -1.706   0.087  1.00  0.00     0.166 A 
ATOM     12  C   UNL     1       7.793  -1.699  -1.280  1.00  0.00     0.165 A 
ATOM     13  O   UNL     1       8.342  -2.797   0.591  1.00  0.00    -0.454 OA
ATOM     14  O   UNL     1       8.577  -2.805  -1.612  1.00  0.00    -0.454 OA
ATOM     15  C   UNL     1       8.665  -3.669  -0.503  1.00  0.00     0.468 C 
ENDBRANCH   6   7
ENDBRANCH   1   6
TORSDOF 4
ENDMDL
