@<TRIPOS>MOLECULE
/home/cewinharhar/GITHUB/reincatalyze/data/processed/docking_pred/2023-May-17-1006_maxeplen10_maxtrainstep1000_seadep16_gamma099_lrac9e-4_lrcr1e-3_sub6/3ef00b253c4480de2280c2f95d83164b82996574_ligand_6.pdbqt
 15 16 0 0 0
SMALL
GASTEIGER

@<TRIPOS>ATOM
      1  C          5.4110    2.8770    0.1210 C.3     1  UNL1        0.1270
      2  C          6.2370    3.8570    0.8090 C.2     1  UNL1        0.3030
      3  O          6.8610    4.7730    0.2700 O.2     1  UNL1       -0.2520
      4  O          6.3340    3.7520    2.2050 O.3     1  UNL1       -0.4810
      5  H          5.6350    4.2460    2.7380 H       1  UNL1        0.2960
      6  C          5.3400    1.5670    0.8040 C.3     1  UNL1        0.0470
      7  C          6.1200    0.4650    0.2380 C.2     1  UNL1       -0.0430
      8  C          6.5900   -0.5710    1.0300 C.2     1  UNL1        0.0080
      9  C          6.4420    0.4460   -1.0930 C.2     1  UNL1        0.0540
     10  C          7.3550   -1.5900    0.5060 C.2     1  UNL1        0.0510
     11  C          7.2070   -0.5660   -1.6410 C.2     1  UNL1        0.1660
     12  C          7.6660   -1.5870   -0.8440 C.2     1  UNL1        0.1650
     13  O          7.6480   -0.7880   -2.9340 O.2     1  UNL1       -0.4540
     14  O          8.3980   -2.4440   -1.6680 O.2     1  UNL1       -0.4540
     15  C          8.6600   -1.8050   -2.8960 C.3     1  UNL1        0.4680
@<TRIPOS>BOND
     1    13    15    1
     2    13    11    1
     3    15    14    1
     4    14    12    1
     5    11     9    1
     6    11    12    2
     7     9     7    2
     8    12    10    1
     9     1     6    1
    10     1     2    1
    11     7     6    1
    12     7     8    1
    13     3     2    2
    14    10     8    2
    15     2     4    1
    16     4     5    1
