@<TRIPOS>MOLECULE
/home/cewinharhar/GITHUB/reincatalyze/data/processed/docking_pred/2023-May-17-1006_maxeplen10_maxtrainstep1000_seadep16_gamma099_lrac9e-4_lrcr1e-3_sub6/3ef00b253c4480de2280c2f95d83164b82996574_ligand_6.pdbqt
 15 16 0 0 0
SMALL
GASTEIGER

@<TRIPOS>ATOM
      1  C          5.4880    2.6620    0.1020 C.3     1  UNL1        0.1270
      2  C          6.1840    3.6560    0.9040 C.2     1  UNL1        0.3030
      3  O          6.2800    3.6480    2.1320 O.2     1  UNL1       -0.2520
      4  O          6.8000    4.7170    0.2210 O.3     1  UNL1       -0.4810
      5  H          6.4590    4.9060   -0.7090 H       1  UNL1        0.2960
      6  C          5.5080    1.3020    0.6830 C.3     1  UNL1        0.0470
      7  C          6.3140    0.2860    0.0030 C.2     1  UNL1       -0.0430
      8  C          6.4610    0.2810   -1.3750 C.2     1  UNL1        0.0080
      9  C          6.9190   -0.7170    0.7120 C.2     1  UNL1        0.0540
     10  C          7.1890   -0.6950   -2.0190 C.2     1  UNL1        0.0510
     11  C          7.6550   -1.7060    0.0870 C.2     1  UNL1        0.1660
     12  C          7.7930   -1.6990   -1.2800 C.2     1  UNL1        0.1650
     13  O          8.3420   -2.7970    0.5910 O.2     1  UNL1       -0.4540
     14  O          8.5770   -2.8050   -1.6120 O.2     1  UNL1       -0.4540
     15  C          8.6650   -3.6690   -0.5030 C.3     1  UNL1        0.4680
@<TRIPOS>BOND
     1    10     8    1
     2    10    12    2
     3    14    12    1
     4    14    15    1
     5     8     7    2
     6    12    11    1
     7     5     4    1
     8    15    13    1
     9     7     6    1
    10     7     9    1
    11    11    13    1
    12    11     9    2
    13     1     6    1
    14     1     2    1
    15     4     2    1
    16     2     3    2
