@<TRIPOS>MOLECULE
/home/cewinharhar/GITHUB/reincatalyze/data/processed/docking_pred/2023-May-17-1006_maxeplen10_maxtrainstep1000_seadep16_gamma099_lrac9e-4_lrcr1e-3_sub6/3ef00b253c4480de2280c2f95d83164b82996574_ligand_6.pdbqt
 15 16 0 0 0
SMALL
GASTEIGER

@<TRIPOS>ATOM
      1  C          8.3060   -0.3210   -2.8670 C.3     1  UNL1        0.1270
      2  C          8.4700   -1.7510   -3.0780 C.2     1  UNL1        0.3030
      3  O          9.5370   -2.3650   -3.0350 O.2     1  UNL1       -0.2520
      4  O          7.3130   -2.4980   -3.3540 O.3     1  UNL1       -0.4810
      5  H          7.4420   -3.3260   -3.9140 H       1  UNL1        0.2960
      6  C          8.7570    0.1440   -1.5380 C.3     1  UNL1        0.0470
      7  C          7.7870    0.1030   -0.4410 C.2     1  UNL1       -0.0430
      8  C          7.7310   -0.9690    0.4370 C.2     1  UNL1        0.0080
      9  C          6.8760    1.1120   -0.2740 C.2     1  UNL1        0.0540
     10  C          6.7960   -1.0250    1.4460 C.2     1  UNL1        0.0510
     11  C          5.9290    1.0760    0.7320 C.2     1  UNL1        0.1660
     12  C          5.8860    0.0080    1.5960 C.2     1  UNL1        0.1650
     13  O          4.9290    1.9660    1.0840 O.2     1  UNL1       -0.4540
     14  O          4.8400    0.2540    2.4870 O.2     1  UNL1       -0.4540
     15  C          4.0400    1.3040    1.9970 C.3     1  UNL1        0.4680
@<TRIPOS>BOND
     1     5     4    1
     2     4     2    1
     3     2     3    2
     4     2     1    1
     5     1     6    1
     6     6     7    1
     7     7     9    2
     8     7     8    1
     9     9    11    1
    10     8    10    2
    11    11    13    1
    12    11    12    2
    13    13    15    1
    14    10    12    1
    15    12    14    1
    16    15    14    1
