@<TRIPOS>MOLECULE
/home/cewinharhar/GITHUB/reincatalyze/data/processed/docking_pred/2023-May-17-1006_maxeplen10_maxtrainstep1000_seadep16_gamma099_lrac9e-4_lrcr1e-3_sub6/3ef00b253c4480de2280c2f95d83164b82996574_ligand_6.pdbqt
 15 16 0 0 0
SMALL
GASTEIGER

@<TRIPOS>ATOM
      1  C          6.3950    1.3460    0.6510 C.3     1  UNL1        0.1270
      2  C          5.2020    1.2970    1.4810 C.2     1  UNL1        0.3030
      3  O          4.2480    2.0750    1.4120 O.2     1  UNL1       -0.2520
      4  O          5.1280    0.2780    2.4430 O.3     1  UNL1       -0.4810
      5  H          5.9890   -0.2040    2.6480 H       1  UNL1        0.2960
      6  C          6.1840    0.8690   -0.7330 C.3     1  UNL1        0.0470
      7  C          6.9530   -0.2970   -1.1720 C.2     1  UNL1       -0.0430
      8  C          7.2580   -0.5020   -2.5080 C.2     1  UNL1        0.0080
      9  C          7.3620   -1.2450   -0.2720 C.2     1  UNL1        0.0540
     10  C          7.9500   -1.6170   -2.9270 C.2     1  UNL1        0.0510
     11  C          8.0580   -2.3720   -0.6690 C.2     1  UNL1        0.1660
     12  C          8.3550   -2.5610   -1.9970 C.2     1  UNL1        0.1650
     13  O          8.5620   -3.4410    0.0500 O.2     1  UNL1       -0.4540
     14  O          9.0510   -3.7670   -2.0860 O.2     1  UNL1       -0.4540
     15  C          8.9170   -4.4780   -0.8770 C.3     1  UNL1        0.4680
@<TRIPOS>BOND
     1    10     8    1
     2    10    12    2
     3     8     7    2
     4    14    12    1
     5    14    15    1
     6    12    11    1
     7     7     6    1
     8     7     9    1
     9    15    13    1
    10     6     1    1
    11    11     9    2
    12    11    13    1
    13     1     2    1
    14     3     2    2
    15     2     4    1
    16     4     5    1
