@<TRIPOS>MOLECULE
/home/cewinharhar/GITHUB/reincatalyze/data/processed/docking_pred/2023-May-17-1006_maxeplen10_maxtrainstep1000_seadep16_gamma099_lrac9e-4_lrcr1e-3_sub6/3ef00b253c4480de2280c2f95d83164b82996574_ligand_6.pdbqt
 15 16 0 0 0
SMALL
GASTEIGER

@<TRIPOS>ATOM
      1  C          4.6570    1.8520    0.6790 C.3     1  UNL1        0.1270
      2  C          4.3830    1.1500    1.9230 C.2     1  UNL1        0.3030
      3  O          5.1310    0.3350    2.4670 O.2     1  UNL1       -0.2520
      4  O          3.1630    1.4230    2.5620 O.3     1  UNL1       -0.4810
      5  H          2.4520    0.7130    2.4850 H       1  UNL1        0.2960
      6  C          6.0730    2.2400    0.5080 C.3     1  UNL1        0.0470
      7  C          6.9380    1.3310   -0.2470 C.2     1  UNL1       -0.0430
      8  C          8.3020    1.5550   -0.3600 C.2     1  UNL1        0.0080
      9  C          6.4150    0.2460   -0.8990 C.2     1  UNL1        0.0540
     10  C          9.1110    0.7210   -1.1000 C.2     1  UNL1        0.0510
     11  C          7.2070   -0.6040   -1.6460 C.2     1  UNL1        0.1660
     12  C          8.5570   -0.3700   -1.7490 C.2     1  UNL1        0.1650
     13  O          6.9030   -1.7400   -2.3760 O.2     1  UNL1       -0.4540
     14  O          9.0810   -1.3820   -2.5560 O.2     1  UNL1       -0.4540
     15  C          8.0300   -2.0560   -3.2070 C.3     1  UNL1        0.4680
@<TRIPOS>BOND
     1    15    14    1
     2    15    13    1
     3    14    12    1
     4    13    11    1
     5    12    11    2
     6    12    10    1
     7    11     9    1
     8    10     8    2
     9     9     7    2
    10     8     7    1
    11     7     6    1
    12     6     1    1
    13     1     2    1
    14     2     3    2
    15     2     4    1
    16     5     4    1
