@<TRIPOS>MOLECULE
/home/cewinharhar/GITHUB/reincatalyze/data/processed/docking_pred/2023-May-17-1006_maxeplen10_maxtrainstep1000_seadep16_gamma099_lrac9e-4_lrcr1e-3_sub6/40246e00fe273733fff606c0d5025fbb5a6aafa7_ligand_6.pdbqt
 15 16 0 0 0
SMALL
GASTEIGER

@<TRIPOS>ATOM
      1  C          5.0010    1.7150    0.7400 C.3     1  UNL1        0.1270
      2  C          4.5910    1.1580    2.0190 C.2     1  UNL1        0.3030
      3  O          5.2160    0.3160    2.6680 O.2     1  UNL1       -0.2520
      4  O          3.3810    1.6150    2.5630 O.3     1  UNL1       -0.4810
      5  H          2.5470    1.3980    2.0400 H       1  UNL1        0.2960
      6  C          6.4530    1.6180    0.4800 C.3     1  UNL1        0.0470
      7  C          6.9460    0.4000   -0.1650 C.2     1  UNL1       -0.0430
      8  C          6.7110    0.1460   -1.5080 C.2     1  UNL1        0.0080
      9  C          7.6250   -0.5480    0.5530 C.2     1  UNL1        0.0540
     10  C          7.1430   -1.0160   -2.1080 C.2     1  UNL1        0.0510
     11  C          8.0680   -1.7210   -0.0280 C.2     1  UNL1        0.1660
     12  C          7.8290   -1.9590   -1.3600 C.2     1  UNL1        0.1650
     13  O          8.7610   -2.8000    0.4930 O.2     1  UNL1       -0.4540
     14  O          8.3870   -3.2050   -1.6520 O.2     1  UNL1       -0.4540
     15  C          8.6920   -3.8770   -0.4530 C.3     1  UNL1        0.4680
@<TRIPOS>BOND
     1    10     8    1
     2    10    12    2
     3    14    12    1
     4    14    15    1
     5     8     7    2
     6    12    11    1
     7    15    13    1
     8     7     6    1
     9     7     9    1
    10    11    13    1
    11    11     9    2
    12     6     1    1
    13     1     2    1
    14     2     4    1
    15     2     3    2
    16     5     4    1
