MODEL 1
REMARK VINA RESULT:      -8.0      0.000      0.000
REMARK SMILES O=C(O)CCc1ccc2c(c1)OCO2
REMARK SMILES IDX 4 1 2 2 1 3 3 4 5 6 6 7 7 8 11 9 8 10 10 11 9 12 12 13 14 14
REMARK SMILES IDX 13 15
REMARK H PARENT 3 5
REMARK Flexibility Score: inf
ROOT
ATOM      1  C   UNL     1       5.319   2.156   1.394  1.00  0.00     0.127 C 
ENDROOT
BRANCH   1   2
ATOM      2  C   UNL     1       4.567   1.147   2.125  1.00  0.00     0.303 C 
ATOM      3  O   UNL     1       4.928  -0.015   2.320  1.00  0.00    -0.252 OA
BRANCH   2   4
ATOM      4  O   UNL     1       3.324   1.528   2.654  1.00  0.00    -0.481 OA
ATOM      5  H   UNL     1       3.003   2.453   2.415  1.00  0.00     0.296 HD
ENDBRANCH   2   4
ENDBRANCH   1   2
BRANCH   1   6
ATOM      6  C   UNL     1       5.354   1.936  -0.067  1.00  0.00     0.047 C 
BRANCH   6   7
ATOM      7  C   UNL     1       6.482   1.177  -0.611  1.00  0.00    -0.043 A 
ATOM      8  C   UNL     1       7.792   1.585  -0.415  1.00  0.00     0.008 A 
ATOM      9  C   UNL     1       6.271   0.055  -1.368  1.00  0.00     0.054 A 
ATOM     10  C   UNL     1       8.852   0.892  -0.956  1.00  0.00     0.051 A 
ATOM     11  C   UNL     1       7.319  -0.656  -1.921  1.00  0.00     0.166 A 
ATOM     12  C   UNL     1       8.613  -0.241  -1.717  1.00  0.00     0.165 A 
ATOM     13  O   UNL     1       7.343  -1.797  -2.705  1.00  0.00    -0.454 OA
ATOM     14  O   UNL     1       9.437  -1.145  -2.388  1.00  0.00    -0.454 OA
ATOM     15  C   UNL     1       8.660  -1.931  -3.262  1.00  0.00     0.468 C 
ENDBRANCH   6   7
ENDBRANCH   1   6
TORSDOF 4
ENDMDL
MODEL 2
REMARK VINA RESULT:      -7.8      1.335      5.634
REMARK SMILES O=C(O)CCc1ccc2c(c1)OCO2
REMARK SMILES IDX 4 1 2 2 1 3 3 4 5 6 6 7 7 8 11 9 8 10 10 11 9 12 12 13 14 14
REMARK SMILES IDX 13 15
REMARK H PARENT 3 5
REMARK Flexibility Score: inf
ROOT
ATOM      1  C   UNL     1       8.800  -0.638  -2.407  1.00  0.00     0.127 C 
ENDROOT
BRANCH   1   2
ATOM      2  C   UNL     1       8.819  -1.962  -3.009  1.00  0.00     0.303 C 
ATOM      3  O   UNL     1       9.829  -2.626  -3.249  1.00  0.00    -0.252 OA
BRANCH   2   4
ATOM      4  O   UNL     1       7.582  -2.535  -3.345  1.00  0.00    -0.481 OA
ATOM      5  H   UNL     1       6.793  -1.908  -3.367  1.00  0.00     0.296 HD
ENDBRANCH   2   4
ENDBRANCH   1   2
BRANCH   1   6
ATOM      6  C   UNL     1       7.454  -0.031  -2.335  1.00  0.00     0.047 C 
BRANCH   6   7
ATOM      7  C   UNL     1       6.800   0.015  -1.025  1.00  0.00    -0.043 A 
ATOM      8  C   UNL     1       6.902  -1.037  -0.128  1.00  0.00     0.008 A 
ATOM      9  C   UNL     1       6.032   1.090  -0.663  1.00  0.00     0.054 A 
ATOM     10  C   UNL     1       6.258  -1.011   1.089  1.00  0.00     0.051 A 
ATOM     11  C   UNL     1       5.378   1.138   0.553  1.00  0.00     0.166 A 
ATOM     12  C   UNL     1       5.489   0.089   1.433  1.00  0.00     0.165 A 
ATOM     13  O   UNL     1       4.564   2.102   1.121  1.00  0.00    -0.454 OA
ATOM     14  O   UNL     1       4.728   0.422   2.556  1.00  0.00    -0.454 OA
ATOM     15  C   UNL     1       3.899   1.520   2.253  1.00  0.00     0.468 C 
ENDBRANCH   6   7
ENDBRANCH   1   6
TORSDOF 4
ENDMDL
MODEL 3
REMARK VINA RESULT:      -7.6      1.779      2.099
REMARK SMILES O=C(O)CCc1ccc2c(c1)OCO2
REMARK SMILES IDX 4 1 2 2 1 3 3 4 5 6 6 7 7 8 11 9 8 10 10 11 9 12 12 13 14 14
REMARK SMILES IDX 13 15
REMARK H PARENT 3 5
REMARK Flexibility Score: inf
ROOT
ATOM      1  C   UNL     1       5.001   1.715   0.740  1.00  0.00     0.127 C 
ENDROOT
BRANCH   1   2
ATOM      2  C   UNL     1       4.591   1.158   2.019  1.00  0.00     0.303 C 
ATOM      3  O   UNL     1       5.216   0.316   2.668  1.00  0.00    -0.252 OA
BRANCH   2   4
ATOM      4  O   UNL     1       3.381   1.615   2.563  1.00  0.00    -0.481 OA
ATOM      5  H   UNL     1       2.547   1.398   2.040  1.00  0.00     0.296 HD
ENDBRANCH   2   4
ENDBRANCH   1   2
BRANCH   1   6
ATOM      6  C   UNL     1       6.453   1.618   0.480  1.00  0.00     0.047 C 
BRANCH   6   7
ATOM      7  C   UNL     1       6.946   0.400  -0.165  1.00  0.00    -0.043 A 
ATOM      8  C   UNL     1       6.711   0.146  -1.508  1.00  0.00     0.008 A 
ATOM      9  C   UNL     1       7.625  -0.548   0.553  1.00  0.00     0.054 A 
ATOM     10  C   UNL     1       7.143  -1.016  -2.108  1.00  0.00     0.051 A 
ATOM     11  C   UNL     1       8.068  -1.721  -0.028  1.00  0.00     0.166 A 
ATOM     12  C   UNL     1       7.829  -1.959  -1.360  1.00  0.00     0.165 A 
ATOM     13  O   UNL     1       8.761  -2.800   0.493  1.00  0.00    -0.454 OA
ATOM     14  O   UNL     1       8.387  -3.205  -1.652  1.00  0.00    -0.454 OA
ATOM     15  C   UNL     1       8.692  -3.877  -0.453  1.00  0.00     0.468 C 
ENDBRANCH   6   7
ENDBRANCH   1   6
TORSDOF 4
ENDMDL
MODEL 4
REMARK VINA RESULT:      -7.4      2.205      2.505
REMARK SMILES O=C(O)CCc1ccc2c(c1)OCO2
REMARK SMILES IDX 4 1 2 2 1 3 3 4 5 6 6 7 7 8 11 9 8 10 10 11 9 12 12 13 14 14
REMARK SMILES IDX 13 15
REMARK H PARENT 3 5
REMARK Flexibility Score: inf
ROOT
ATOM      1  C   UNL     1       5.483   2.854   0.015  1.00  0.00     0.127 C 
ENDROOT
BRANCH   1   2
ATOM      2  C   UNL     1       6.222   3.844   0.782  1.00  0.00     0.303 C 
ATOM      3  O   UNL     1       6.877   4.774   0.308  1.00  0.00    -0.252 OA
BRANCH   2   4
ATOM      4  O   UNL     1       6.189   3.733   2.180  1.00  0.00    -0.481 OA
ATOM      5  H   UNL     1       6.210   4.599   2.697  1.00  0.00     0.296 HD
ENDBRANCH   2   4
ENDBRANCH   1   2
BRANCH   1   6
ATOM      6  C   UNL     1       5.347   1.547   0.695  1.00  0.00     0.047 C 
BRANCH   6   7
ATOM      7  C   UNL     1       6.132   0.427   0.170  1.00  0.00    -0.043 A 
ATOM      8  C   UNL     1       6.587  -0.588   0.997  1.00  0.00     0.008 A 
ATOM      9  C   UNL     1       6.473   0.371  -1.155  1.00  0.00     0.054 A 
ATOM     10  C   UNL     1       7.355  -1.624   0.512  1.00  0.00     0.051 A 
ATOM     11  C   UNL     1       7.242  -0.659  -1.664  1.00  0.00     0.166 A 
ATOM     12  C   UNL     1       7.685  -1.659  -0.833  1.00  0.00     0.165 A 
ATOM     13  O   UNL     1       7.700  -0.917  -2.944  1.00  0.00    -0.454 OA
ATOM     14  O   UNL     1       8.426  -2.540  -1.623  1.00  0.00    -0.454 OA
ATOM     15  C   UNL     1       8.707  -1.936  -2.864  1.00  0.00     0.468 C 
ENDBRANCH   6   7
ENDBRANCH   1   6
TORSDOF 4
ENDMDL
MODEL 5
REMARK VINA RESULT:      -7.4      1.999      5.652
REMARK SMILES O=C(O)CCc1ccc2c(c1)OCO2
REMARK SMILES IDX 4 1 2 2 1 3 3 4 5 6 6 7 7 8 11 9 8 10 10 11 9 12 12 13 14 14
REMARK SMILES IDX 13 15
REMARK H PARENT 3 5
REMARK Flexibility Score: inf
ROOT
ATOM      1  C   UNL     1       8.213  -0.954  -1.866  1.00  0.00     0.127 C 
ENDROOT
BRANCH   1   2
ATOM      2  C   UNL     1       8.394  -2.067  -2.785  1.00  0.00     0.303 C 
ATOM      3  O   UNL     1       9.454  -2.659  -2.995  1.00  0.00    -0.252 OA
BRANCH   2   4
ATOM      4  O   UNL     1       7.265  -2.506  -3.496  1.00  0.00    -0.481 OA
ATOM      5  H   UNL     1       7.106  -3.501  -3.507  1.00  0.00     0.296 HD
ENDBRANCH   2   4
ENDBRANCH   1   2
BRANCH   1   6
ATOM      6  C   UNL     1       6.889  -0.928  -1.208  1.00  0.00     0.047 C 
BRANCH   6   7
ATOM      7  C   UNL     1       6.647   0.122  -0.216  1.00  0.00    -0.043 A 
ATOM      8  C   UNL     1       5.990  -0.144   0.976  1.00  0.00     0.008 A 
ATOM      9  C   UNL     1       7.030   1.415  -0.457  1.00  0.00     0.054 A 
ATOM     10  C   UNL     1       5.729   0.850   1.893  1.00  0.00     0.051 A 
ATOM     11  C   UNL     1       6.779   2.428   0.449  1.00  0.00     0.166 A 
ATOM     12  C   UNL     1       6.128   2.149   1.626  1.00  0.00     0.165 A 
ATOM     13  O   UNL     1       7.070   3.781   0.418  1.00  0.00    -0.454 OA
ATOM     14  O   UNL     1       6.022   3.354   2.323  1.00  0.00    -0.454 OA
ATOM     15  C   UNL     1       6.318   4.426   1.457  1.00  0.00     0.468 C 
ENDBRANCH   6   7
ENDBRANCH   1   6
TORSDOF 4
ENDMDL
