@<TRIPOS>MOLECULE
/home/cewinharhar/GITHUB/reincatalyze/data/processed/docking_pred/2023-May-17-1006_maxeplen10_maxtrainstep1000_seadep16_gamma099_lrac9e-4_lrcr1e-3_sub6/40246e00fe273733fff606c0d5025fbb5a6aafa7_ligand_6.pdbqt
 15 16 0 0 0
SMALL
GASTEIGER

@<TRIPOS>ATOM
      1  C          8.8000   -0.6380   -2.4070 C.3     1  UNL1        0.1270
      2  C          8.8190   -1.9620   -3.0090 C.2     1  UNL1        0.3030
      3  O          9.8290   -2.6260   -3.2490 O.2     1  UNL1       -0.2520
      4  O          7.5820   -2.5350   -3.3450 O.3     1  UNL1       -0.4810
      5  H          6.7930   -1.9080   -3.3670 H       1  UNL1        0.2960
      6  C          7.4540   -0.0310   -2.3350 C.3     1  UNL1        0.0470
      7  C          6.8000    0.0150   -1.0250 C.2     1  UNL1       -0.0430
      8  C          6.9020   -1.0370   -0.1280 C.2     1  UNL1        0.0080
      9  C          6.0320    1.0900   -0.6630 C.2     1  UNL1        0.0540
     10  C          6.2580   -1.0110    1.0890 C.2     1  UNL1        0.0510
     11  C          5.3780    1.1380    0.5530 C.2     1  UNL1        0.1660
     12  C          5.4890    0.0890    1.4330 C.2     1  UNL1        0.1650
     13  O          4.5640    2.1020    1.1210 O.2     1  UNL1       -0.4540
     14  O          4.7280    0.4220    2.5560 O.2     1  UNL1       -0.4540
     15  C          3.8990    1.5200    2.2530 C.3     1  UNL1        0.4680
@<TRIPOS>BOND
     1     5     4    1
     2     4     2    1
     3     3     2    2
     4     2     1    1
     5     1     6    1
     6     6     7    1
     7     7     9    2
     8     7     8    1
     9     9    11    1
    10     8    10    2
    11    11    13    1
    12    11    12    2
    13    10    12    1
    14    13    15    1
    15    12    14    1
    16    15    14    1
