@<TRIPOS>MOLECULE
/home/cewinharhar/GITHUB/reincatalyze/data/processed/docking_pred/2023-May-17-1006_maxeplen10_maxtrainstep1000_seadep16_gamma099_lrac9e-4_lrcr1e-3_sub6/40246e00fe273733fff606c0d5025fbb5a6aafa7_ligand_6.pdbqt
 15 16 0 0 0
SMALL
GASTEIGER

@<TRIPOS>ATOM
      1  C          5.3190    2.1560    1.3940 C.3     1  UNL1        0.1270
      2  C          4.5670    1.1470    2.1250 C.2     1  UNL1        0.3030
      3  O          4.9280   -0.0150    2.3200 O.2     1  UNL1       -0.2520
      4  O          3.3240    1.5280    2.6540 O.3     1  UNL1       -0.4810
      5  H          3.0030    2.4530    2.4150 H       1  UNL1        0.2960
      6  C          5.3540    1.9360   -0.0670 C.3     1  UNL1        0.0470
      7  C          6.4820    1.1770   -0.6110 C.2     1  UNL1       -0.0430
      8  C          7.7920    1.5850   -0.4150 C.2     1  UNL1        0.0080
      9  C          6.2710    0.0550   -1.3680 C.2     1  UNL1        0.0540
     10  C          8.8520    0.8920   -0.9560 C.2     1  UNL1        0.0510
     11  C          7.3190   -0.6560   -1.9210 C.2     1  UNL1        0.1660
     12  C          8.6130   -0.2410   -1.7170 C.2     1  UNL1        0.1650
     13  O          7.3430   -1.7970   -2.7050 O.2     1  UNL1       -0.4540
     14  O          9.4370   -1.1450   -2.3880 O.2     1  UNL1       -0.4540
     15  C          8.6600   -1.9310   -3.2620 C.3     1  UNL1        0.4680
@<TRIPOS>BOND
     1    15    13    1
     2    15    14    1
     3    13    11    1
     4    14    12    1
     5    11    12    2
     6    11     9    1
     7    12    10    1
     8     9     7    2
     9    10     8    2
    10     7     8    1
    11     7     6    1
    12     6     1    1
    13     1     2    1
    14     2     3    2
    15     2     4    1
    16     5     4    1
