@<TRIPOS>MOLECULE
/home/cewinharhar/GITHUB/reincatalyze/data/processed/docking_pred/2023-May-17-1006_maxeplen10_maxtrainstep1000_seadep16_gamma099_lrac9e-4_lrcr1e-3_sub6/40246e00fe273733fff606c0d5025fbb5a6aafa7_ligand_6.pdbqt
 15 16 0 0 0
SMALL
GASTEIGER

@<TRIPOS>ATOM
      1  C          5.4830    2.8540    0.0150 C.3     1  UNL1        0.1270
      2  C          6.2220    3.8440    0.7820 C.2     1  UNL1        0.3030
      3  O          6.8770    4.7740    0.3080 O.2     1  UNL1       -0.2520
      4  O          6.1890    3.7330    2.1800 O.3     1  UNL1       -0.4810
      5  H          6.2100    4.5990    2.6970 H       1  UNL1        0.2960
      6  C          5.3470    1.5470    0.6950 C.3     1  UNL1        0.0470
      7  C          6.1320    0.4270    0.1700 C.2     1  UNL1       -0.0430
      8  C          6.5870   -0.5880    0.9970 C.2     1  UNL1        0.0080
      9  C          6.4730    0.3710   -1.1550 C.2     1  UNL1        0.0540
     10  C          7.3550   -1.6240    0.5120 C.2     1  UNL1        0.0510
     11  C          7.2420   -0.6590   -1.6640 C.2     1  UNL1        0.1660
     12  C          7.6850   -1.6590   -0.8330 C.2     1  UNL1        0.1650
     13  O          7.7000   -0.9170   -2.9440 O.2     1  UNL1       -0.4540
     14  O          8.4260   -2.5400   -1.6230 O.2     1  UNL1       -0.4540
     15  C          8.7070   -1.9360   -2.8640 C.3     1  UNL1        0.4680
@<TRIPOS>BOND
     1    13    15    1
     2    13    11    1
     3    15    14    1
     4    11     9    1
     5    11    12    2
     6    14    12    1
     7     9     7    2
     8    12    10    1
     9     1     6    1
    10     1     2    1
    11     7     6    1
    12     7     8    1
    13     3     2    2
    14    10     8    2
    15     2     4    1
    16     4     5    1
