@<TRIPOS>MOLECULE
/home/cewinharhar/GITHUB/reincatalyze/data/processed/docking_pred/2023-May-17-1006_maxeplen10_maxtrainstep1000_seadep16_gamma099_lrac9e-4_lrcr1e-3_sub6/40246e00fe273733fff606c0d5025fbb5a6aafa7_ligand_6.pdbqt
 15 16 0 0 0
SMALL
GASTEIGER

@<TRIPOS>ATOM
      1  C          8.2130   -0.9540   -1.8660 C.3     1  UNL1        0.1270
      2  C          8.3940   -2.0670   -2.7850 C.2     1  UNL1        0.3030
      3  O          9.4540   -2.6590   -2.9950 O.2     1  UNL1       -0.2520
      4  O          7.2650   -2.5060   -3.4960 O.3     1  UNL1       -0.4810
      5  H          7.1060   -3.5010   -3.5070 H       1  UNL1        0.2960
      6  C          6.8890   -0.9280   -1.2080 C.3     1  UNL1        0.0470
      7  C          6.6470    0.1220   -0.2160 C.2     1  UNL1       -0.0430
      8  C          5.9900   -0.1440    0.9760 C.2     1  UNL1        0.0080
      9  C          7.0300    1.4150   -0.4570 C.2     1  UNL1        0.0540
     10  C          5.7290    0.8500    1.8930 C.2     1  UNL1        0.0510
     11  C          6.7790    2.4280    0.4490 C.2     1  UNL1        0.1660
     12  C          6.1280    2.1490    1.6260 C.2     1  UNL1        0.1650
     13  O          7.0700    3.7810    0.4180 O.2     1  UNL1       -0.4540
     14  O          6.0220    3.3540    2.3230 O.2     1  UNL1       -0.4540
     15  C          6.3180    4.4260    1.4570 C.3     1  UNL1        0.4680
@<TRIPOS>BOND
     1     5     4    1
     2     4     2    1
     3     3     2    2
     4     2     1    1
     5     1     6    1
     6     6     7    1
     7     9     7    2
     8     9    11    1
     9     7     8    1
    10    13    11    1
    11    13    15    1
    12    11    12    2
    13     8    10    2
    14    15    14    1
    15    12    10    1
    16    12    14    1
