@<TRIPOS>MOLECULE
/home/cewinharhar/GITHUB/reincatalyze/data/processed/docking_pred/2023-May-17-1006_maxeplen10_maxtrainstep1000_seadep16_gamma099_lrac9e-4_lrcr1e-3_sub6/404021d27c656f8fbd9408a440432f577c9906d0_ligand_6.pdbqt
 15 16 0 0 0
SMALL
GASTEIGER

@<TRIPOS>ATOM
      1  C          6.5350    1.6320    1.4460 C.3     1  UNL1        0.1270
      2  C          6.6380    3.0660    1.2280 C.2     1  UNL1        0.3030
      3  O          6.6940    3.6220    0.1290 O.2     1  UNL1       -0.2520
      4  O          6.6790    3.8900    2.3640 O.3     1  UNL1       -0.4810
      5  H          7.1770    4.7610    2.2640 H       1  UNL1        0.2960
      6  C          5.8330    0.9090    0.3640 C.3     1  UNL1        0.0470
      7  C          6.5980   -0.0840   -0.3940 C.2     1  UNL1       -0.0430
      8  C          6.7260   -0.0020   -1.7720 C.2     1  UNL1        0.0080
      9  C          7.1790   -1.1510    0.2380 C.2     1  UNL1        0.0540
     10  C          7.4150   -0.9550   -2.4900 C.2     1  UNL1        0.0510
     11  C          7.8750   -2.1190   -0.4620 C.2     1  UNL1        0.1660
     12  C          7.9960   -2.0240   -1.8270 C.2     1  UNL1        0.1650
     13  O          8.5330   -3.2610   -0.0420 O.2     1  UNL1       -0.4540
     14  O          8.7390   -3.1290   -2.2440 O.2     1  UNL1       -0.4540
     15  C          8.8140   -4.0680   -1.1960 C.3     1  UNL1        0.4680
@<TRIPOS>BOND
     1    10    12    2
     2    10     8    1
     3    14    12    1
     4    14    15    1
     5    12    11    1
     6     8     7    2
     7    15    13    1
     8    11    13    1
     9    11     9    2
    10     7     9    1
    11     7     6    1
    12     3     2    2
    13     6     1    1
    14     2     1    1
    15     2     4    1
    16     5     4    1
