MODEL 1
REMARK VINA RESULT:      -7.4      0.000      0.000
REMARK SMILES O=C(O)CCc1ccc2c(c1)OCO2
REMARK SMILES IDX 4 1 2 2 1 3 3 4 5 6 6 7 7 8 11 9 8 10 10 11 9 12 12 13 14 14
REMARK SMILES IDX 13 15
REMARK H PARENT 3 5
REMARK Flexibility Score: inf
ROOT
ATOM      1  C   UNL     1       5.428   0.982   0.538  1.00  0.00     0.127 C 
ENDROOT
BRANCH   1   2
ATOM      2  C   UNL     1       5.095   0.527   1.879  1.00  0.00     0.303 C 
ATOM      3  O   UNL     1       5.778  -0.233   2.568  1.00  0.00    -0.252 OA
BRANCH   2   4
ATOM      4  O   UNL     1       3.894   0.991   2.437  1.00  0.00    -0.481 OA
ATOM      5  H   UNL     1       3.243   0.284   2.744  1.00  0.00     0.296 HD
ENDBRANCH   2   4
ENDBRANCH   1   2
BRANCH   1   6
ATOM      6  C   UNL     1       6.874   0.941   0.232  1.00  0.00     0.047 C 
BRANCH   6   7
ATOM      7  C   UNL     1       7.379  -0.225  -0.496  1.00  0.00    -0.043 A 
ATOM      8  C   UNL     1       7.347  -0.284  -1.881  1.00  0.00     0.008 A 
ATOM      9  C   UNL     1       7.865  -1.314   0.177  1.00  0.00     0.054 A 
ATOM     10  C   UNL     1       7.788  -1.395  -2.566  1.00  0.00     0.051 A 
ATOM     11  C   UNL     1       8.314  -2.439  -0.489  1.00  0.00     0.166 A 
ATOM     12  C   UNL     1       8.277  -2.483  -1.862  1.00  0.00     0.165 A 
ATOM     13  O   UNL     1       8.838  -3.634  -0.026  1.00  0.00    -0.454 OA
ATOM     14  O   UNL     1       8.787  -3.727  -2.239  1.00  0.00    -0.454 OA
ATOM     15  C   UNL     1       8.847  -4.572  -1.113  1.00  0.00     0.468 C 
ENDBRANCH   6   7
ENDBRANCH   1   6
TORSDOF 4
ENDMDL
MODEL 2
REMARK VINA RESULT:      -7.1      1.745      5.254
REMARK SMILES O=C(O)CCc1ccc2c(c1)OCO2
REMARK SMILES IDX 4 1 2 2 1 3 3 4 5 6 6 7 7 8 11 9 8 10 10 11 9 12 12 13 14 14
REMARK SMILES IDX 13 15
REMARK H PARENT 3 5
REMARK Flexibility Score: inf
ROOT
ATOM      1  C   UNL     1       8.392  -0.313  -3.205  1.00  0.00     0.127 C 
ENDROOT
BRANCH   1   2
ATOM      2  C   UNL     1       8.498  -1.764  -3.201  1.00  0.00     0.303 C 
ATOM      3  O   UNL     1       9.540  -2.407  -3.059  1.00  0.00    -0.252 OA
BRANCH   2   4
ATOM      4  O   UNL     1       7.313  -2.497  -3.374  1.00  0.00    -0.481 OA
ATOM      5  H   UNL     1       6.691  -2.173  -4.099  1.00  0.00     0.296 HD
ENDBRANCH   2   4
ENDBRANCH   1   2
BRANCH   1   6
ATOM      6  C   UNL     1       8.924   0.331  -1.985  1.00  0.00     0.047 C 
BRANCH   6   7
ATOM      7  C   UNL     1       8.169   0.156  -0.743  1.00  0.00    -0.043 A 
ATOM      8  C   UNL     1       8.600  -0.709   0.252  1.00  0.00     0.008 A 
ATOM      9  C   UNL     1       6.986   0.817  -0.543  1.00  0.00     0.054 A 
ATOM     10  C   UNL     1       7.872  -0.902   1.405  1.00  0.00     0.051 A 
ATOM     11  C   UNL     1       6.239   0.639   0.606  1.00  0.00     0.166 A 
ATOM     12  C   UNL     1       6.679  -0.220   1.584  1.00  0.00     0.165 A 
ATOM     13  O   UNL     1       5.038   1.191   1.016  1.00  0.00    -0.454 OA
ATOM     14  O   UNL     1       5.729  -0.189   2.605  1.00  0.00    -0.454 OA
ATOM     15  C   UNL     1       4.556   0.436   2.138  1.00  0.00     0.468 C 
ENDBRANCH   6   7
ENDBRANCH   1   6
TORSDOF 4
ENDMDL
MODEL 3
REMARK VINA RESULT:      -7.0      1.842      1.965
REMARK SMILES O=C(O)CCc1ccc2c(c1)OCO2
REMARK SMILES IDX 4 1 2 2 1 3 3 4 5 6 6 7 7 8 11 9 8 10 10 11 9 12 12 13 14 14
REMARK SMILES IDX 13 15
REMARK H PARENT 3 5
REMARK Flexibility Score: inf
ROOT
ATOM      1  C   UNL     1       6.535   1.632   1.446  1.00  0.00     0.127 C 
ENDROOT
BRANCH   1   2
ATOM      2  C   UNL     1       6.638   3.066   1.228  1.00  0.00     0.303 C 
ATOM      3  O   UNL     1       6.694   3.622   0.129  1.00  0.00    -0.252 OA
BRANCH   2   4
ATOM      4  O   UNL     1       6.679   3.890   2.364  1.00  0.00    -0.481 OA
ATOM      5  H   UNL     1       7.177   4.761   2.264  1.00  0.00     0.296 HD
ENDBRANCH   2   4
ENDBRANCH   1   2
BRANCH   1   6
ATOM      6  C   UNL     1       5.833   0.909   0.364  1.00  0.00     0.047 C 
BRANCH   6   7
ATOM      7  C   UNL     1       6.598  -0.084  -0.394  1.00  0.00    -0.043 A 
ATOM      8  C   UNL     1       6.726  -0.002  -1.772  1.00  0.00     0.008 A 
ATOM      9  C   UNL     1       7.179  -1.151   0.238  1.00  0.00     0.054 A 
ATOM     10  C   UNL     1       7.415  -0.955  -2.490  1.00  0.00     0.051 A 
ATOM     11  C   UNL     1       7.875  -2.119  -0.462  1.00  0.00     0.166 A 
ATOM     12  C   UNL     1       7.996  -2.024  -1.827  1.00  0.00     0.165 A 
ATOM     13  O   UNL     1       8.533  -3.261  -0.042  1.00  0.00    -0.454 OA
ATOM     14  O   UNL     1       8.739  -3.129  -2.244  1.00  0.00    -0.454 OA
ATOM     15  C   UNL     1       8.814  -4.068  -1.196  1.00  0.00     0.468 C 
ENDBRANCH   6   7
ENDBRANCH   1   6
TORSDOF 4
ENDMDL
MODEL 4
REMARK VINA RESULT:      -6.8      1.737      5.083
REMARK SMILES O=C(O)CCc1ccc2c(c1)OCO2
REMARK SMILES IDX 4 1 2 2 1 3 3 4 5 6 6 7 7 8 11 9 8 10 10 11 9 12 12 13 14 14
REMARK SMILES IDX 13 15
REMARK H PARENT 3 5
REMARK Flexibility Score: inf
ROOT
ATOM      1  C   UNL     1       8.710  -0.594  -2.831  1.00  0.00     0.127 C 
ENDROOT
BRANCH   1   2
ATOM      2  C   UNL     1       8.658  -2.019  -3.117  1.00  0.00     0.303 C 
ATOM      3  O   UNL     1       7.635  -2.707  -3.153  1.00  0.00    -0.252 OA
BRANCH   2   4
ATOM      4  O   UNL     1       9.875  -2.670  -3.373  1.00  0.00    -0.481 OA
ATOM      5  H   UNL     1      10.699  -2.089  -3.374  1.00  0.00     0.296 HD
ENDBRANCH   2   4
ENDBRANCH   1   2
BRANCH   1   6
ATOM      6  C   UNL     1       7.381   0.039  -2.689  1.00  0.00     0.047 C 
BRANCH   6   7
ATOM      7  C   UNL     1       6.807   0.113  -1.343  1.00  0.00    -0.043 A 
ATOM      8  C   UNL     1       6.008   1.177  -0.955  1.00  0.00     0.008 A 
ATOM      9  C   UNL     1       7.078  -0.854  -0.412  1.00  0.00     0.054 A 
ATOM     10  C   UNL     1       5.497   1.267   0.321  1.00  0.00     0.051 A 
ATOM     11  C   UNL     1       6.576  -0.785   0.874  1.00  0.00     0.166 A 
ATOM     12  C   UNL     1       5.784   0.275   1.245  1.00  0.00     0.165 A 
ATOM     13  O   UNL     1       6.714  -1.631   1.960  1.00  0.00    -0.454 OA
ATOM     14  O   UNL     1       5.436   0.069   2.581  1.00  0.00    -0.454 OA
ATOM     15  C   UNL     1       6.253  -0.938   3.130  1.00  0.00     0.468 C 
ENDBRANCH   6   7
ENDBRANCH   1   6
TORSDOF 4
ENDMDL
MODEL 5
REMARK VINA RESULT:      -6.6      1.893      2.326
REMARK SMILES O=C(O)CCc1ccc2c(c1)OCO2
REMARK SMILES IDX 4 1 2 2 1 3 3 4 5 6 6 7 7 8 11 9 8 10 10 11 9 12 12 13 14 14
REMARK SMILES IDX 13 15
REMARK H PARENT 3 5
REMARK Flexibility Score: inf
ROOT
ATOM      1  C   UNL     1       5.174   0.306   1.831  1.00  0.00     0.127 C 
ENDROOT
BRANCH   1   2
ATOM      2  C   UNL     1       6.294  -0.455   2.361  1.00  0.00     0.303 C 
ATOM      3  O   UNL     1       7.296   0.022   2.897  1.00  0.00    -0.252 OA
BRANCH   2   4
ATOM      4  O   UNL     1       6.231  -1.853   2.254  1.00  0.00    -0.481 OA
ATOM      5  H   UNL     1       6.168  -2.226   1.319  1.00  0.00     0.296 HD
ENDBRANCH   2   4
ENDBRANCH   1   2
BRANCH   1   6
ATOM      6  C   UNL     1       5.473   1.015   0.568  1.00  0.00     0.047 C 
BRANCH   6   7
ATOM      7  C   UNL     1       6.605   0.533  -0.226  1.00  0.00    -0.043 A 
ATOM      8  C   UNL     1       7.756   1.290  -0.382  1.00  0.00     0.008 A 
ATOM      9  C   UNL     1       6.543  -0.671  -0.876  1.00  0.00     0.054 A 
ATOM     10  C   UNL     1       8.807   0.855  -1.158  1.00  0.00     0.051 A 
ATOM     11  C   UNL     1       7.585  -1.129  -1.660  1.00  0.00     0.166 A 
ATOM     12  C   UNL     1       8.720  -0.368  -1.804  1.00  0.00     0.165 A 
ATOM     13  O   UNL     1       7.740  -2.291  -2.394  1.00  0.00    -0.454 OA
ATOM     14  O   UNL     1       9.580  -1.081  -2.640  1.00  0.00    -0.454 OA
ATOM     15  C   UNL     1       8.869  -2.125  -3.266  1.00  0.00     0.468 C 
ENDBRANCH   6   7
ENDBRANCH   1   6
TORSDOF 4
ENDMDL
