@<TRIPOS>MOLECULE
/home/cewinharhar/GITHUB/reincatalyze/data/processed/docking_pred/2023-May-17-1006_maxeplen10_maxtrainstep1000_seadep16_gamma099_lrac9e-4_lrcr1e-3_sub6/404021d27c656f8fbd9408a440432f577c9906d0_ligand_6.pdbqt
 15 16 0 0 0
SMALL
GASTEIGER

@<TRIPOS>ATOM
      1  C          8.3920   -0.3130   -3.2050 C.3     1  UNL1        0.1270
      2  C          8.4980   -1.7640   -3.2010 C.2     1  UNL1        0.3030
      3  O          9.5400   -2.4070   -3.0590 O.2     1  UNL1       -0.2520
      4  O          7.3130   -2.4970   -3.3740 O.3     1  UNL1       -0.4810
      5  H          6.6910   -2.1730   -4.0990 H       1  UNL1        0.2960
      6  C          8.9240    0.3310   -1.9850 C.3     1  UNL1        0.0470
      7  C          8.1690    0.1560   -0.7430 C.2     1  UNL1       -0.0430
      8  C          8.6000   -0.7090    0.2520 C.2     1  UNL1        0.0080
      9  C          6.9860    0.8170   -0.5430 C.2     1  UNL1        0.0540
     10  C          7.8720   -0.9020    1.4050 C.2     1  UNL1        0.0510
     11  C          6.2390    0.6390    0.6060 C.2     1  UNL1        0.1660
     12  C          6.6790   -0.2200    1.5840 C.2     1  UNL1        0.1650
     13  O          5.0380    1.1910    1.0160 O.2     1  UNL1       -0.4540
     14  O          5.7290   -0.1890    2.6050 O.2     1  UNL1       -0.4540
     15  C          4.5560    0.4360    2.1380 C.3     1  UNL1        0.4680
@<TRIPOS>BOND
     1     5     4    1
     2     4     2    1
     3     1     2    1
     4     1     6    1
     5     2     3    2
     6     6     7    1
     7     7     9    2
     8     7     8    1
     9     9    11    1
    10     8    10    2
    11    11    13    1
    12    11    12    2
    13    13    15    1
    14    10    12    1
    15    12    14    1
    16    15    14    1
