@<TRIPOS>MOLECULE
/home/cewinharhar/GITHUB/reincatalyze/data/processed/docking_pred/2023-May-17-1006_maxeplen10_maxtrainstep1000_seadep16_gamma099_lrac9e-4_lrcr1e-3_sub6/404021d27c656f8fbd9408a440432f577c9906d0_ligand_6.pdbqt
 15 16 0 0 0
SMALL
GASTEIGER

@<TRIPOS>ATOM
      1  C          5.4280    0.9820    0.5380 C.3     1  UNL1        0.1270
      2  C          5.0950    0.5270    1.8790 C.2     1  UNL1        0.3030
      3  O          5.7780   -0.2330    2.5680 O.2     1  UNL1       -0.2520
      4  O          3.8940    0.9910    2.4370 O.3     1  UNL1       -0.4810
      5  H          3.2430    0.2840    2.7440 H       1  UNL1        0.2960
      6  C          6.8740    0.9410    0.2320 C.3     1  UNL1        0.0470
      7  C          7.3790   -0.2250   -0.4960 C.2     1  UNL1       -0.0430
      8  C          7.3470   -0.2840   -1.8810 C.2     1  UNL1        0.0080
      9  C          7.8650   -1.3140    0.1770 C.2     1  UNL1        0.0540
     10  C          7.7880   -1.3950   -2.5660 C.2     1  UNL1        0.0510
     11  C          8.3140   -2.4390   -0.4890 C.2     1  UNL1        0.1660
     12  C          8.2770   -2.4830   -1.8620 C.2     1  UNL1        0.1650
     13  O          8.8380   -3.6340   -0.0260 O.2     1  UNL1       -0.4540
     14  O          8.7870   -3.7270   -2.2390 O.2     1  UNL1       -0.4540
     15  C          8.8470   -4.5720   -1.1130 C.3     1  UNL1        0.4680
@<TRIPOS>BOND
     1    10     8    1
     2    10    12    2
     3    14    12    1
     4    14    15    1
     5     8     7    2
     6    12    11    1
     7    15    13    1
     8     7     9    1
     9     7     6    1
    10    11    13    1
    11    11     9    2
    12     6     1    1
    13     1     2    1
    14     2     4    1
    15     2     3    2
    16     4     5    1
