@<TRIPOS>MOLECULE
/home/cewinharhar/GITHUB/reincatalyze/data/processed/docking_pred/2023-May-17-1006_maxeplen10_maxtrainstep1000_seadep16_gamma099_lrac9e-4_lrcr1e-3_sub6/404021d27c656f8fbd9408a440432f577c9906d0_ligand_6.pdbqt
 15 16 0 0 0
SMALL
GASTEIGER

@<TRIPOS>ATOM
      1  C          5.1740    0.3060    1.8310 C.3     1  UNL1        0.1270
      2  C          6.2940   -0.4550    2.3610 C.2     1  UNL1        0.3030
      3  O          7.2960    0.0220    2.8970 O.2     1  UNL1       -0.2520
      4  O          6.2310   -1.8530    2.2540 O.3     1  UNL1       -0.4810
      5  H          6.1680   -2.2260    1.3190 H       1  UNL1        0.2960
      6  C          5.4730    1.0150    0.5680 C.3     1  UNL1        0.0470
      7  C          6.6050    0.5330   -0.2260 C.2     1  UNL1       -0.0430
      8  C          7.7560    1.2900   -0.3820 C.2     1  UNL1        0.0080
      9  C          6.5430   -0.6710   -0.8760 C.2     1  UNL1        0.0540
     10  C          8.8070    0.8550   -1.1580 C.2     1  UNL1        0.0510
     11  C          7.5850   -1.1290   -1.6600 C.2     1  UNL1        0.1660
     12  C          8.7200   -0.3680   -1.8040 C.2     1  UNL1        0.1650
     13  O          7.7400   -2.2910   -2.3940 O.2     1  UNL1       -0.4540
     14  O          9.5800   -1.0810   -2.6400 O.2     1  UNL1       -0.4540
     15  C          8.8690   -2.1250   -3.2660 C.3     1  UNL1        0.4680
@<TRIPOS>BOND
     1    15    14    1
     2    15    13    1
     3    14    12    1
     4    13    11    1
     5    12    11    2
     6    12    10    1
     7    11     9    1
     8    10     8    2
     9     9     7    2
    10     8     7    1
    11     7     6    1
    12     6     1    1
    13     5     4    1
    14     1     2    1
    15     4     2    1
    16     2     3    2
