@<TRIPOS>MOLECULE
/home/cewinharhar/GITHUB/reincatalyze/data/processed/docking_pred/2023-May-17-1006_maxeplen10_maxtrainstep1000_seadep16_gamma099_lrac9e-4_lrcr1e-3_sub6/404021d27c656f8fbd9408a440432f577c9906d0_ligand_6.pdbqt
 15 16 0 0 0
SMALL
GASTEIGER

@<TRIPOS>ATOM
      1  C          8.7100   -0.5940   -2.8310 C.3     1  UNL1        0.1270
      2  C          8.6580   -2.0190   -3.1170 C.2     1  UNL1        0.3030
      3  O          7.6350   -2.7070   -3.1530 O.2     1  UNL1       -0.2520
      4  O          9.8750   -2.6700   -3.3730 O.3     1  UNL1       -0.4810
      5  H         10.6990   -2.0890   -3.3740 H       1  UNL1        0.2960
      6  C          7.3810    0.0390   -2.6890 C.3     1  UNL1        0.0470
      7  C          6.8070    0.1130   -1.3430 C.2     1  UNL1       -0.0430
      8  C          6.0080    1.1770   -0.9550 C.2     1  UNL1        0.0080
      9  C          7.0780   -0.8540   -0.4120 C.2     1  UNL1        0.0540
     10  C          5.4970    1.2670    0.3210 C.2     1  UNL1        0.0510
     11  C          6.5760   -0.7850    0.8740 C.2     1  UNL1        0.1660
     12  C          5.7840    0.2750    1.2450 C.2     1  UNL1        0.1650
     13  O          6.7140   -1.6310    1.9600 O.2     1  UNL1       -0.4540
     14  O          5.4360    0.0690    2.5810 O.2     1  UNL1       -0.4540
     15  C          6.2530   -0.9380    3.1300 C.3     1  UNL1        0.4680
@<TRIPOS>BOND
     1     5     4    1
     2     4     2    1
     3     3     2    2
     4     2     1    1
     5     1     6    1
     6     6     7    1
     7     7     8    2
     8     7     9    1
     9     8    10    1
    10     9    11    2
    11    10    12    2
    12    11    12    1
    13    11    13    1
    14    12    14    1
    15    13    15    1
    16    14    15    1
