@<TRIPOS>MOLECULE
/home/cewinharhar/GITHUB/reincatalyze/data/processed/docking_pred/2023-May-17-1006_maxeplen10_maxtrainstep1000_seadep16_gamma099_lrac9e-4_lrcr1e-3_sub6/41d0b72e0d67d5e9a3b384f9954b5fa92cfe5642_ligand_6.pdbqt
 15 16 0 0 0
SMALL
GASTEIGER

@<TRIPOS>ATOM
      1  C          8.3080   -0.3150   -2.8560 C.3     1  UNL1        0.1270
      2  C          8.4670   -1.7450   -3.0710 C.2     1  UNL1        0.3030
      3  O          9.5330   -2.3620   -3.0310 O.2     1  UNL1       -0.2520
      4  O          7.3090   -2.4870   -3.3480 O.3     1  UNL1       -0.4810
      5  H          6.8440   -2.9010   -2.5540 H       1  UNL1        0.2960
      6  C          8.7600    0.1460   -1.5260 C.3     1  UNL1        0.0470
      7  C          7.7900    0.1030   -0.4290 C.2     1  UNL1       -0.0430
      8  C          7.7410   -0.9650    0.4540 C.2     1  UNL1        0.0080
      9  C          6.8730    1.1070   -0.2660 C.2     1  UNL1        0.0540
     10  C          6.8060   -1.0230    1.4630 C.2     1  UNL1        0.0510
     11  C          5.9260    1.0700    0.7400 C.2     1  UNL1        0.1660
     12  C          5.8890    0.0050    1.6080 C.2     1  UNL1        0.1650
     13  O          4.9200    1.9540    1.0880 O.2     1  UNL1       -0.4540
     14  O          4.8420    0.2480    2.4990 O.2     1  UNL1       -0.4540
     15  C          4.0350    1.2910    2.0030 C.3     1  UNL1        0.4680
@<TRIPOS>BOND
     1     4     2    1
     2     4     5    1
     3     2     3    2
     4     2     1    1
     5     1     6    1
     6     6     7    1
     7     7     9    2
     8     7     8    1
     9     9    11    1
    10     8    10    2
    11    11    13    1
    12    11    12    2
    13    13    15    1
    14    10    12    1
    15    12    14    1
    16    15    14    1
