@<TRIPOS>MOLECULE
/home/cewinharhar/GITHUB/reincatalyze/data/processed/docking_pred/2023-May-17-1006_maxeplen10_maxtrainstep1000_seadep16_gamma099_lrac9e-4_lrcr1e-3_sub6/41d0b72e0d67d5e9a3b384f9954b5fa92cfe5642_ligand_6.pdbqt
 15 16 0 0 0
SMALL
GASTEIGER

@<TRIPOS>ATOM
      1  C          8.3070   -0.3190   -2.8430 C.3     1  UNL1        0.1270
      2  C          8.4650   -1.7470   -3.0680 C.2     1  UNL1        0.3030
      3  O          9.5300   -2.3650   -3.0310 O.2     1  UNL1       -0.2520
      4  O          7.3060   -2.4870   -3.3510 O.3     1  UNL1       -0.4810
      5  H          7.1730   -2.7540   -4.3140 H       1  UNL1        0.2960
      6  C          8.7630    0.1340   -1.5110 C.3     1  UNL1        0.0470
      7  C          7.7920    0.0990   -0.4150 C.2     1  UNL1       -0.0430
      8  C          7.7390   -0.9650    0.4720 C.2     1  UNL1        0.0080
      9  C          6.8770    1.1050   -0.2580 C.2     1  UNL1        0.0540
     10  C          6.8030   -1.0170    1.4810 C.2     1  UNL1        0.0510
     11  C          5.9290    1.0760    0.7480 C.2     1  UNL1        0.1660
     12  C          5.8890    0.0150    1.6210 C.2     1  UNL1        0.1650
     13  O          4.9250    1.9640    1.0910 O.2     1  UNL1       -0.4540
     14  O          4.8420    0.2640    2.5090 O.2     1  UNL1       -0.4540
     15  C          4.0380    1.3070    2.0080 C.3     1  UNL1        0.4680
@<TRIPOS>BOND
     1     5     4    1
     2     4     2    1
     3     2     3    2
     4     2     1    1
     5     1     6    1
     6     6     7    1
     7     7     9    2
     8     7     8    1
     9     9    11    1
    10     8    10    2
    11    11    13    1
    12    11    12    2
    13    13    15    1
    14    10    12    1
    15    12    14    1
    16    15    14    1
