@<TRIPOS>MOLECULE
/home/cewinharhar/GITHUB/reincatalyze/data/processed/docking_pred/2023-May-17-1006_maxeplen10_maxtrainstep1000_seadep16_gamma099_lrac9e-4_lrcr1e-3_sub6/41d0b72e0d67d5e9a3b384f9954b5fa92cfe5642_ligand_6.pdbqt
 15 16 0 0 0
SMALL
GASTEIGER

@<TRIPOS>ATOM
      1  C          4.6690    1.8780    0.6950 C.3     1  UNL1        0.1270
      2  C          4.3880    1.1560    1.9260 C.2     1  UNL1        0.3030
      3  O          5.1320    0.3310    2.4590 O.2     1  UNL1       -0.2520
      4  O          3.1660    1.4200    2.5640 O.3     1  UNL1       -0.4810
      5  H          2.9650    0.8730    3.3860 H       1  UNL1        0.2960
      6  C          6.0900    2.2540    0.5300 C.3     1  UNL1        0.0470
      7  C          6.9470    1.3430   -0.2320 C.2     1  UNL1       -0.0430
      8  C          8.3100    1.5630   -0.3540 C.2     1  UNL1        0.0080
      9  C          6.4150    0.2620   -0.8830 C.2     1  UNL1        0.0540
     10  C          9.1110    0.7280   -1.1000 C.2     1  UNL1        0.0510
     11  C          7.2000   -0.5900   -1.6370 C.2     1  UNL1        0.1660
     12  C          8.5500   -0.3610   -1.7480 C.2     1  UNL1        0.1650
     13  O          6.8860   -1.7230   -2.3680 O.2     1  UNL1       -0.4540
     14  O          9.0650   -1.3720   -2.5610 O.2     1  UNL1       -0.4540
     15  C          8.0070   -2.0420   -3.2060 C.3     1  UNL1        0.4680
@<TRIPOS>BOND
     1    15    14    1
     2    15    13    1
     3    14    12    1
     4    13    11    1
     5    12    11    2
     6    12    10    1
     7    11     9    1
     8    10     8    2
     9     9     7    2
    10     8     7    1
    11     7     6    1
    12     6     1    1
    13     1     2    1
    14     2     3    2
    15     2     4    1
    16     4     5    1
