@<TRIPOS>MOLECULE
/home/cewinharhar/GITHUB/reincatalyze/data/processed/docking_pred/2023-May-17-1006_maxeplen10_maxtrainstep1000_seadep16_gamma099_lrac9e-4_lrcr1e-3_sub6/41d0b72e0d67d5e9a3b384f9954b5fa92cfe5642_ligand_6.pdbqt
 15 16 0 0 0
SMALL
GASTEIGER

@<TRIPOS>ATOM
      1  C          5.4190    2.8760    0.1160 C.3     1  UNL1        0.1270
      2  C          6.2410    3.8630    0.7990 C.2     1  UNL1        0.3030
      3  O          6.8850    4.7610    0.2530 O.2     1  UNL1       -0.2520
      4  O          6.3090    3.7870    2.1990 O.3     1  UNL1       -0.4810
      5  H          7.2320    3.6950    2.5950 H       1  UNL1        0.2960
      6  C          5.3520    1.5700    0.8060 C.3     1  UNL1        0.0470
      7  C          6.1350    0.4670    0.2450 C.2     1  UNL1       -0.0430
      8  C          6.5850   -0.5790    1.0370 C.2     1  UNL1        0.0080
      9  C          6.4810    0.4570   -1.0800 C.2     1  UNL1        0.0540
     10  C          7.3520   -1.5980    0.5180 C.2     1  UNL1        0.0510
     11  C          7.2500   -0.5560   -1.6230 C.2     1  UNL1        0.1660
     12  C          7.6870   -1.5860   -0.8260 C.2     1  UNL1        0.1650
     13  O          7.7120   -0.7690   -2.9090 O.2     1  UNL1       -0.4540
     14  O          8.4290   -2.4400   -1.6440 O.2     1  UNL1       -0.4540
     15  C          8.7170   -1.7930   -2.8620 C.3     1  UNL1        0.4680
@<TRIPOS>BOND
     1    13    15    1
     2    13    11    1
     3    15    14    1
     4    14    12    1
     5    11     9    1
     6    11    12    2
     7     9     7    2
     8    12    10    1
     9     1     2    1
    10     1     6    1
    11     7     6    1
    12     7     8    1
    13     3     2    2
    14    10     8    2
    15     2     4    1
    16     4     5    1
