@<TRIPOS>MOLECULE
/home/cewinharhar/GITHUB/reincatalyze/data/processed/docking_pred/2023-May-17-1006_maxeplen10_maxtrainstep1000_seadep16_gamma099_lrac9e-4_lrcr1e-3_sub6/41d0b72e0d67d5e9a3b384f9954b5fa92cfe5642_ligand_6.pdbqt
 15 16 0 0 0
SMALL
GASTEIGER

@<TRIPOS>ATOM
      1  C          6.4750    1.2970    0.7890 C.3     1  UNL1        0.1270
      2  C          5.2720    1.1650    1.5960 C.2     1  UNL1        0.3030
      3  O          5.0700    0.2960    2.4470 O.2     1  UNL1       -0.2520
      4  O          4.2510    2.1060    1.3890 O.3     1  UNL1       -0.4810
      5  H          4.4450    2.8320    0.7160 H       1  UNL1        0.2960
      6  C          6.2950    0.9090   -0.6260 C.3     1  UNL1        0.0470
      7  C          7.0190   -0.2710   -1.1030 C.2     1  UNL1       -0.0430
      8  C          7.2640   -0.4750   -2.4520 C.2     1  UNL1        0.0080
      9  C          7.4450   -1.2330   -0.2260 C.2     1  UNL1        0.0540
     10  C          7.9130   -1.6020   -2.9050 C.2     1  UNL1        0.0510
     11  C          8.0990   -2.3710   -0.6570 C.2     1  UNL1        0.1660
     12  C          8.3360   -2.5600   -1.9970 C.2     1  UNL1        0.1650
     13  O          8.6100   -3.4560    0.0350 O.2     1  UNL1       -0.4540
     14  O          9.0020   -3.7800   -2.1210 O.2     1  UNL1       -0.4540
     15  C          8.9030   -4.4950   -0.9110 C.3     1  UNL1        0.4680
@<TRIPOS>BOND
     1    10     8    1
     2    10    12    2
     3     8     7    2
     4    14    12    1
     5    14    15    1
     6    12    11    1
     7     7     6    1
     8     7     9    1
     9    15    13    1
    10    11     9    2
    11    11    13    1
    12     6     1    1
    13     5     4    1
    14     1     2    1
    15     4     2    1
    16     2     3    2
