MODEL 1
REMARK VINA RESULT:      -7.7      0.000      0.000
REMARK SMILES O=C(O)CCc1ccc2c(c1)OCO2
REMARK SMILES IDX 4 1 2 2 1 3 3 4 5 6 6 7 7 8 11 9 8 10 10 11 9 12 12 13 14 14
REMARK SMILES IDX 13 15
REMARK H PARENT 3 5
REMARK Flexibility Score: inf
ROOT
ATOM      1  C   UNL     1       5.419   2.876   0.116  1.00  0.00     0.127 C 
ENDROOT
BRANCH   1   2
ATOM      2  C   UNL     1       6.241   3.863   0.799  1.00  0.00     0.303 C 
ATOM      3  O   UNL     1       6.885   4.761   0.253  1.00  0.00    -0.252 OA
BRANCH   2   4
ATOM      4  O   UNL     1       6.309   3.787   2.199  1.00  0.00    -0.481 OA
ATOM      5  H   UNL     1       7.232   3.695   2.595  1.00  0.00     0.296 HD
ENDBRANCH   2   4
ENDBRANCH   1   2
BRANCH   1   6
ATOM      6  C   UNL     1       5.352   1.570   0.806  1.00  0.00     0.047 C 
BRANCH   6   7
ATOM      7  C   UNL     1       6.135   0.467   0.245  1.00  0.00    -0.043 A 
ATOM      8  C   UNL     1       6.585  -0.579   1.037  1.00  0.00     0.008 A 
ATOM      9  C   UNL     1       6.481   0.457  -1.080  1.00  0.00     0.054 A 
ATOM     10  C   UNL     1       7.352  -1.598   0.518  1.00  0.00     0.051 A 
ATOM     11  C   UNL     1       7.250  -0.556  -1.623  1.00  0.00     0.166 A 
ATOM     12  C   UNL     1       7.687  -1.586  -0.826  1.00  0.00     0.165 A 
ATOM     13  O   UNL     1       7.712  -0.769  -2.909  1.00  0.00    -0.454 OA
ATOM     14  O   UNL     1       8.429  -2.440  -1.644  1.00  0.00    -0.454 OA
ATOM     15  C   UNL     1       8.717  -1.793  -2.862  1.00  0.00     0.468 C 
ENDBRANCH   6   7
ENDBRANCH   1   6
TORSDOF 4
ENDMDL
MODEL 2
REMARK VINA RESULT:      -7.6      2.132      2.516
REMARK SMILES O=C(O)CCc1ccc2c(c1)OCO2
REMARK SMILES IDX 4 1 2 2 1 3 3 4 5 6 6 7 7 8 11 9 8 10 10 11 9 12 12 13 14 14
REMARK SMILES IDX 13 15
REMARK H PARENT 3 5
REMARK Flexibility Score: inf
ROOT
ATOM      1  C   UNL     1       4.669   1.878   0.695  1.00  0.00     0.127 C 
ENDROOT
BRANCH   1   2
ATOM      2  C   UNL     1       4.388   1.156   1.926  1.00  0.00     0.303 C 
ATOM      3  O   UNL     1       5.132   0.331   2.459  1.00  0.00    -0.252 OA
BRANCH   2   4
ATOM      4  O   UNL     1       3.166   1.420   2.564  1.00  0.00    -0.481 OA
ATOM      5  H   UNL     1       2.965   0.873   3.386  1.00  0.00     0.296 HD
ENDBRANCH   2   4
ENDBRANCH   1   2
BRANCH   1   6
ATOM      6  C   UNL     1       6.090   2.254   0.530  1.00  0.00     0.047 C 
BRANCH   6   7
ATOM      7  C   UNL     1       6.947   1.343  -0.232  1.00  0.00    -0.043 A 
ATOM      8  C   UNL     1       8.310   1.563  -0.354  1.00  0.00     0.008 A 
ATOM      9  C   UNL     1       6.415   0.262  -0.883  1.00  0.00     0.054 A 
ATOM     10  C   UNL     1       9.111   0.728  -1.100  1.00  0.00     0.051 A 
ATOM     11  C   UNL     1       7.200  -0.590  -1.637  1.00  0.00     0.166 A 
ATOM     12  C   UNL     1       8.550  -0.361  -1.748  1.00  0.00     0.165 A 
ATOM     13  O   UNL     1       6.886  -1.723  -2.368  1.00  0.00    -0.454 OA
ATOM     14  O   UNL     1       9.065  -1.372  -2.561  1.00  0.00    -0.454 OA
ATOM     15  C   UNL     1       8.007  -2.042  -3.206  1.00  0.00     0.468 C 
ENDBRANCH   6   7
ENDBRANCH   1   6
TORSDOF 4
ENDMDL
MODEL 3
REMARK VINA RESULT:      -7.4      1.792      5.282
REMARK SMILES O=C(O)CCc1ccc2c(c1)OCO2
REMARK SMILES IDX 4 1 2 2 1 3 3 4 5 6 6 7 7 8 11 9 8 10 10 11 9 12 12 13 14 14
REMARK SMILES IDX 13 15
REMARK H PARENT 3 5
REMARK Flexibility Score: inf
ROOT
ATOM      1  C   UNL     1       8.308  -0.315  -2.856  1.00  0.00     0.127 C 
ENDROOT
BRANCH   1   2
ATOM      2  C   UNL     1       8.467  -1.745  -3.071  1.00  0.00     0.303 C 
ATOM      3  O   UNL     1       9.533  -2.362  -3.031  1.00  0.00    -0.252 OA
BRANCH   2   4
ATOM      4  O   UNL     1       7.309  -2.487  -3.348  1.00  0.00    -0.481 OA
ATOM      5  H   UNL     1       6.844  -2.901  -2.554  1.00  0.00     0.296 HD
ENDBRANCH   2   4
ENDBRANCH   1   2
BRANCH   1   6
ATOM      6  C   UNL     1       8.760   0.146  -1.526  1.00  0.00     0.047 C 
BRANCH   6   7
ATOM      7  C   UNL     1       7.790   0.103  -0.429  1.00  0.00    -0.043 A 
ATOM      8  C   UNL     1       7.741  -0.965   0.454  1.00  0.00     0.008 A 
ATOM      9  C   UNL     1       6.873   1.107  -0.266  1.00  0.00     0.054 A 
ATOM     10  C   UNL     1       6.806  -1.023   1.463  1.00  0.00     0.051 A 
ATOM     11  C   UNL     1       5.926   1.070   0.740  1.00  0.00     0.166 A 
ATOM     12  C   UNL     1       5.889   0.005   1.608  1.00  0.00     0.165 A 
ATOM     13  O   UNL     1       4.920   1.954   1.088  1.00  0.00    -0.454 OA
ATOM     14  O   UNL     1       4.842   0.248   2.499  1.00  0.00    -0.454 OA
ATOM     15  C   UNL     1       4.035   1.291   2.003  1.00  0.00     0.468 C 
ENDBRANCH   6   7
ENDBRANCH   1   6
TORSDOF 4
ENDMDL
MODEL 4
REMARK VINA RESULT:      -7.4      1.977      2.955
REMARK SMILES O=C(O)CCc1ccc2c(c1)OCO2
REMARK SMILES IDX 4 1 2 2 1 3 3 4 5 6 6 7 7 8 11 9 8 10 10 11 9 12 12 13 14 14
REMARK SMILES IDX 13 15
REMARK H PARENT 3 5
REMARK Flexibility Score: inf
ROOT
ATOM      1  C   UNL     1       6.475   1.297   0.789  1.00  0.00     0.127 C 
ENDROOT
BRANCH   1   2
ATOM      2  C   UNL     1       5.272   1.165   1.596  1.00  0.00     0.303 C 
ATOM      3  O   UNL     1       5.070   0.296   2.447  1.00  0.00    -0.252 OA
BRANCH   2   4
ATOM      4  O   UNL     1       4.251   2.106   1.389  1.00  0.00    -0.481 OA
ATOM      5  H   UNL     1       4.445   2.832   0.716  1.00  0.00     0.296 HD
ENDBRANCH   2   4
ENDBRANCH   1   2
BRANCH   1   6
ATOM      6  C   UNL     1       6.295   0.909  -0.626  1.00  0.00     0.047 C 
BRANCH   6   7
ATOM      7  C   UNL     1       7.019  -0.271  -1.103  1.00  0.00    -0.043 A 
ATOM      8  C   UNL     1       7.264  -0.475  -2.452  1.00  0.00     0.008 A 
ATOM      9  C   UNL     1       7.445  -1.233  -0.226  1.00  0.00     0.054 A 
ATOM     10  C   UNL     1       7.913  -1.602  -2.905  1.00  0.00     0.051 A 
ATOM     11  C   UNL     1       8.099  -2.371  -0.657  1.00  0.00     0.166 A 
ATOM     12  C   UNL     1       8.336  -2.560  -1.997  1.00  0.00     0.165 A 
ATOM     13  O   UNL     1       8.610  -3.456   0.035  1.00  0.00    -0.454 OA
ATOM     14  O   UNL     1       9.002  -3.780  -2.121  1.00  0.00    -0.454 OA
ATOM     15  C   UNL     1       8.903  -4.495  -0.911  1.00  0.00     0.468 C 
ENDBRANCH   6   7
ENDBRANCH   1   6
TORSDOF 4
ENDMDL
