@<TRIPOS>MOLECULE
/home/cewinharhar/GITHUB/reincatalyze/data/processed/docking_pred/2023-May-17-1006_maxeplen10_maxtrainstep1000_seadep16_gamma099_lrac9e-4_lrcr1e-3_sub6/42234a6127519c7502e2f6bf4b16ee47cf11c698_ligand_6.pdbqt
 15 16 0 0 0
SMALL
GASTEIGER

@<TRIPOS>ATOM
      1  C          5.6860    2.5730   -0.0460 C.3     1  UNL1        0.1270
      2  C          6.1900    3.6390    0.8060 C.2     1  UNL1        0.3030
      3  O          6.1000    3.6790    2.0340 O.2     1  UNL1       -0.2520
      4  O          6.8350    4.7160    0.1770 O.3     1  UNL1       -0.4810
      5  H          6.4700    4.9890   -0.7230 H       1  UNL1        0.2960
      6  C          5.6680    1.2450    0.6030 C.3     1  UNL1        0.0470
      7  C          6.4500    0.1760   -0.0220 C.2     1  UNL1       -0.0430
      8  C          6.6020    0.0980   -1.3980 C.2     1  UNL1        0.0080
      9  C          7.0250   -0.8080    0.7390 C.2     1  UNL1        0.0540
     10  C          7.3070   -0.9270   -1.9890 C.2     1  UNL1        0.0510
     11  C          7.7370   -1.8450    0.1680 C.2     1  UNL1        0.1660
     12  C          7.8810   -1.9090   -1.1970 C.2     1  UNL1        0.1650
     13  O          8.3920   -2.9280    0.7280 O.2     1  UNL1       -0.4540
     14  O          8.6360   -3.0500   -1.4700 O.2     1  UNL1       -0.4540
     15  C          8.6960   -3.8610   -0.3200 C.3     1  UNL1        0.4680
@<TRIPOS>BOND
     1    10     8    1
     2    10    12    2
     3    14    12    1
     4    14    15    1
     5     8     7    2
     6    12    11    1
     7     5     4    1
     8    15    13    1
     9     1     6    1
    10     1     2    1
    11     7     6    1
    12     7     9    1
    13    11    13    1
    14    11     9    2
    15     4     2    1
    16     2     3    2
