@<TRIPOS>MOLECULE
/home/cewinharhar/GITHUB/reincatalyze/data/processed/docking_pred/2023-May-17-1006_maxeplen10_maxtrainstep1000_seadep16_gamma099_lrac9e-4_lrcr1e-3_sub6/42234a6127519c7502e2f6bf4b16ee47cf11c698_ligand_6.pdbqt
 15 16 0 0 0
SMALL
GASTEIGER

@<TRIPOS>ATOM
      1  C          5.3800    2.8850    0.1550 C.3     1  UNL1        0.1270
      2  C          6.2260    3.8550    0.8330 C.2     1  UNL1        0.3030
      3  O          6.8390    4.7750    0.2890 O.2     1  UNL1       -0.2520
      4  O          6.3570    3.7340    2.2250 O.3     1  UNL1       -0.4810
      5  H          5.7170    4.2810    2.7810 H       1  UNL1        0.2960
      6  C          5.3090    1.5730    0.8330 C.3     1  UNL1        0.0470
      7  C          6.0840    0.4710    0.2600 C.2     1  UNL1       -0.0430
      8  C          6.5070   -0.5980    1.0350 C.2     1  UNL1        0.0080
      9  C          6.4490    0.4840   -1.0600 C.2     1  UNL1        0.0540
     10  C          7.2660   -1.6170    0.5050 C.2     1  UNL1        0.0510
     11  C          7.2100   -0.5280   -1.6140 C.2     1  UNL1        0.1660
     12  C          7.6210   -1.5820   -0.8340 C.2     1  UNL1        0.1650
     13  O          7.6870   -0.7210   -2.8990 O.2     1  UNL1       -0.4540
     14  O          8.3620   -2.4290   -1.6600 O.2     1  UNL1       -0.4540
     15  C          8.6770   -1.7600   -2.8590 C.3     1  UNL1        0.4680
@<TRIPOS>BOND
     1    13    15    1
     2    13    11    1
     3    15    14    1
     4    14    12    1
     5    11     9    1
     6    11    12    2
     7     9     7    2
     8    12    10    1
     9     1     2    1
    10     1     6    1
    11     7     6    1
    12     7     8    1
    13     3     2    2
    14    10     8    2
    15     2     4    1
    16     4     5    1
