MODEL 1
REMARK VINA RESULT:      -7.6      0.000      0.000
REMARK SMILES O=C(O)CCc1ccc2c(c1)OCO2
REMARK SMILES IDX 4 1 2 2 1 3 3 4 5 6 6 7 7 8 11 9 8 10 10 11 9 12 12 13 14 14
REMARK SMILES IDX 13 15
REMARK H PARENT 3 5
REMARK Flexibility Score: inf
ROOT
ATOM      1  C   UNL     1       4.707   1.893   0.682  1.00  0.00     0.127 C 
ENDROOT
BRANCH   1   2
ATOM      2  C   UNL     1       4.426   1.165   1.910  1.00  0.00     0.303 C 
ATOM      3  O   UNL     1       5.175   0.347   2.445  1.00  0.00    -0.252 OA
BRANCH   2   4
ATOM      4  O   UNL     1       3.197   1.415   2.540  1.00  0.00    -0.481 OA
ATOM      5  H   UNL     1       2.556   0.638   2.590  1.00  0.00     0.296 HD
ENDBRANCH   2   4
ENDBRANCH   1   2
BRANCH   1   6
ATOM      6  C   UNL     1       6.129   2.260   0.514  1.00  0.00     0.047 C 
BRANCH   6   7
ATOM      7  C   UNL     1       6.980   1.341  -0.246  1.00  0.00    -0.043 A 
ATOM      8  C   UNL     1       8.346   1.547  -0.363  1.00  0.00     0.008 A 
ATOM      9  C   UNL     1       6.440   0.265  -0.899  1.00  0.00     0.054 A 
ATOM     10  C   UNL     1       9.141   0.704  -1.106  1.00  0.00     0.051 A 
ATOM     11  C   UNL     1       7.219  -0.595  -1.650  1.00  0.00     0.166 A 
ATOM     12  C   UNL     1       8.572  -0.378  -1.757  1.00  0.00     0.165 A 
ATOM     13  O   UNL     1       6.897  -1.724  -2.382  1.00  0.00    -0.454 OA
ATOM     14  O   UNL     1       9.080  -1.395  -2.567  1.00  0.00    -0.454 OA
ATOM     15  C   UNL     1       8.017  -2.054  -3.217  1.00  0.00     0.468 C 
ENDBRANCH   6   7
ENDBRANCH   1   6
TORSDOF 4
ENDMDL
MODEL 2
REMARK VINA RESULT:      -7.5      1.451      5.367
REMARK SMILES O=C(O)CCc1ccc2c(c1)OCO2
REMARK SMILES IDX 4 1 2 2 1 3 3 4 5 6 6 7 7 8 11 9 8 10 10 11 9 12 12 13 14 14
REMARK SMILES IDX 13 15
REMARK H PARENT 3 5
REMARK Flexibility Score: inf
ROOT
ATOM      1  C   UNL     1       8.305  -0.314  -2.845  1.00  0.00     0.127 C 
ENDROOT
BRANCH   1   2
ATOM      2  C   UNL     1       8.467  -1.743  -3.065  1.00  0.00     0.303 C 
ATOM      3  O   UNL     1       9.534  -2.358  -3.023  1.00  0.00    -0.252 OA
BRANCH   2   4
ATOM      4  O   UNL     1       7.311  -2.486  -3.349  1.00  0.00    -0.481 OA
ATOM      5  H   UNL     1       7.385  -3.154  -4.101  1.00  0.00     0.296 HD
ENDBRANCH   2   4
ENDBRANCH   1   2
BRANCH   1   6
ATOM      6  C   UNL     1       8.764   0.145  -1.516  1.00  0.00     0.047 C 
BRANCH   6   7
ATOM      7  C   UNL     1       7.797   0.109  -0.417  1.00  0.00    -0.043 A 
ATOM      8  C   UNL     1       7.760  -0.946   0.482  1.00  0.00     0.008 A 
ATOM      9  C   UNL     1       6.869   1.106  -0.268  1.00  0.00     0.054 A 
ATOM     10  C   UNL     1       6.828  -0.998   1.495  1.00  0.00     0.051 A 
ATOM     11  C   UNL     1       5.925   1.074   0.741  1.00  0.00     0.166 A 
ATOM     12  C   UNL     1       5.901   0.023   1.625  1.00  0.00     0.165 A 
ATOM     13  O   UNL     1       4.910   1.954   1.077  1.00  0.00    -0.454 OA
ATOM     14  O   UNL     1       4.853   0.269   2.514  1.00  0.00    -0.454 OA
ATOM     15  C   UNL     1       4.034   1.295   2.004  1.00  0.00     0.468 C 
ENDBRANCH   6   7
ENDBRANCH   1   6
TORSDOF 4
ENDMDL
MODEL 3
REMARK VINA RESULT:      -7.4      1.799      2.453
REMARK SMILES O=C(O)CCc1ccc2c(c1)OCO2
REMARK SMILES IDX 4 1 2 2 1 3 3 4 5 6 6 7 7 8 11 9 8 10 10 11 9 12 12 13 14 14
REMARK SMILES IDX 13 15
REMARK H PARENT 3 5
REMARK Flexibility Score: inf
ROOT
ATOM      1  C   UNL     1       6.420   1.353   0.639  1.00  0.00     0.127 C 
ENDROOT
BRANCH   1   2
ATOM      2  C   UNL     1       5.204   1.358   1.437  1.00  0.00     0.303 C 
ATOM      3  O   UNL     1       4.269   2.151   1.314  1.00  0.00    -0.252 OA
BRANCH   2   4
ATOM      4  O   UNL     1       5.083   0.377   2.434  1.00  0.00    -0.481 OA
ATOM      5  H   UNL     1       5.907  -0.175   2.617  1.00  0.00     0.296 HD
ENDBRANCH   2   4
ENDBRANCH   1   2
BRANCH   1   6
ATOM      6  C   UNL     1       6.223   0.889  -0.751  1.00  0.00     0.047 C 
BRANCH   6   7
ATOM      7  C   UNL     1       6.979  -0.288  -1.186  1.00  0.00    -0.043 A 
ATOM      8  C   UNL     1       7.283  -0.501  -2.522  1.00  0.00     0.008 A 
ATOM      9  C   UNL     1       7.376  -1.238  -0.283  1.00  0.00     0.054 A 
ATOM     10  C   UNL     1       7.962  -1.625  -2.936  1.00  0.00     0.051 A 
ATOM     11  C   UNL     1       8.059  -2.373  -0.676  1.00  0.00     0.166 A 
ATOM     12  C   UNL     1       8.355  -2.571  -2.003  1.00  0.00     0.165 A 
ATOM     13  O   UNL     1       8.551  -3.446   0.047  1.00  0.00    -0.454 OA
ATOM     14  O   UNL     1       9.037  -3.785  -2.087  1.00  0.00    -0.454 OA
ATOM     15  C   UNL     1       8.895  -4.490  -0.876  1.00  0.00     0.468 C 
ENDBRANCH   6   7
ENDBRANCH   1   6
TORSDOF 4
ENDMDL
MODEL 4
REMARK VINA RESULT:      -7.4      2.473      2.832
REMARK SMILES O=C(O)CCc1ccc2c(c1)OCO2
REMARK SMILES IDX 4 1 2 2 1 3 3 4 5 6 6 7 7 8 11 9 8 10 10 11 9 12 12 13 14 14
REMARK SMILES IDX 13 15
REMARK H PARENT 3 5
REMARK Flexibility Score: inf
ROOT
ATOM      1  C   UNL     1       5.686   2.573  -0.046  1.00  0.00     0.127 C 
ENDROOT
BRANCH   1   2
ATOM      2  C   UNL     1       6.190   3.639   0.806  1.00  0.00     0.303 C 
ATOM      3  O   UNL     1       6.100   3.679   2.034  1.00  0.00    -0.252 OA
BRANCH   2   4
ATOM      4  O   UNL     1       6.835   4.716   0.177  1.00  0.00    -0.481 OA
ATOM      5  H   UNL     1       6.470   4.989  -0.723  1.00  0.00     0.296 HD
ENDBRANCH   2   4
ENDBRANCH   1   2
BRANCH   1   6
ATOM      6  C   UNL     1       5.668   1.245   0.603  1.00  0.00     0.047 C 
BRANCH   6   7
ATOM      7  C   UNL     1       6.450   0.176  -0.022  1.00  0.00    -0.043 A 
ATOM      8  C   UNL     1       6.602   0.098  -1.398  1.00  0.00     0.008 A 
ATOM      9  C   UNL     1       7.025  -0.808   0.739  1.00  0.00     0.054 A 
ATOM     10  C   UNL     1       7.307  -0.927  -1.989  1.00  0.00     0.051 A 
ATOM     11  C   UNL     1       7.737  -1.845   0.168  1.00  0.00     0.166 A 
ATOM     12  C   UNL     1       7.881  -1.909  -1.197  1.00  0.00     0.165 A 
ATOM     13  O   UNL     1       8.392  -2.928   0.728  1.00  0.00    -0.454 OA
ATOM     14  O   UNL     1       8.636  -3.050  -1.470  1.00  0.00    -0.454 OA
ATOM     15  C   UNL     1       8.696  -3.861  -0.320  1.00  0.00     0.468 C 
ENDBRANCH   6   7
ENDBRANCH   1   6
TORSDOF 4
ENDMDL
MODEL 5
REMARK VINA RESULT:      -6.7      2.116      2.515
REMARK SMILES O=C(O)CCc1ccc2c(c1)OCO2
REMARK SMILES IDX 4 1 2 2 1 3 3 4 5 6 6 7 7 8 11 9 8 10 10 11 9 12 12 13 14 14
REMARK SMILES IDX 13 15
REMARK H PARENT 3 5
REMARK Flexibility Score: inf
ROOT
ATOM      1  C   UNL     1       5.380   2.885   0.155  1.00  0.00     0.127 C 
ENDROOT
BRANCH   1   2
ATOM      2  C   UNL     1       6.226   3.855   0.833  1.00  0.00     0.303 C 
ATOM      3  O   UNL     1       6.839   4.775   0.289  1.00  0.00    -0.252 OA
BRANCH   2   4
ATOM      4  O   UNL     1       6.357   3.734   2.225  1.00  0.00    -0.481 OA
ATOM      5  H   UNL     1       5.717   4.281   2.781  1.00  0.00     0.296 HD
ENDBRANCH   2   4
ENDBRANCH   1   2
BRANCH   1   6
ATOM      6  C   UNL     1       5.309   1.573   0.833  1.00  0.00     0.047 C 
BRANCH   6   7
ATOM      7  C   UNL     1       6.084   0.471   0.260  1.00  0.00    -0.043 A 
ATOM      8  C   UNL     1       6.507  -0.598   1.035  1.00  0.00     0.008 A 
ATOM      9  C   UNL     1       6.449   0.484  -1.060  1.00  0.00     0.054 A 
ATOM     10  C   UNL     1       7.266  -1.617   0.505  1.00  0.00     0.051 A 
ATOM     11  C   UNL     1       7.210  -0.528  -1.614  1.00  0.00     0.166 A 
ATOM     12  C   UNL     1       7.621  -1.582  -0.834  1.00  0.00     0.165 A 
ATOM     13  O   UNL     1       7.687  -0.721  -2.899  1.00  0.00    -0.454 OA
ATOM     14  O   UNL     1       8.362  -2.429  -1.660  1.00  0.00    -0.454 OA
ATOM     15  C   UNL     1       8.677  -1.760  -2.859  1.00  0.00     0.468 C 
ENDBRANCH   6   7
ENDBRANCH   1   6
TORSDOF 4
ENDMDL
