@<TRIPOS>MOLECULE
/home/cewinharhar/GITHUB/reincatalyze/data/processed/docking_pred/2023-May-17-1006_maxeplen10_maxtrainstep1000_seadep16_gamma099_lrac9e-4_lrcr1e-3_sub6/42234a6127519c7502e2f6bf4b16ee47cf11c698_ligand_6.pdbqt
 15 16 0 0 0
SMALL
GASTEIGER

@<TRIPOS>ATOM
      1  C          6.4200    1.3530    0.6390 C.3     1  UNL1        0.1270
      2  C          5.2040    1.3580    1.4370 C.2     1  UNL1        0.3030
      3  O          4.2690    2.1510    1.3140 O.2     1  UNL1       -0.2520
      4  O          5.0830    0.3770    2.4340 O.3     1  UNL1       -0.4810
      5  H          5.9070   -0.1750    2.6170 H       1  UNL1        0.2960
      6  C          6.2230    0.8890   -0.7510 C.3     1  UNL1        0.0470
      7  C          6.9790   -0.2880   -1.1860 C.2     1  UNL1       -0.0430
      8  C          7.2830   -0.5010   -2.5220 C.2     1  UNL1        0.0080
      9  C          7.3760   -1.2380   -0.2830 C.2     1  UNL1        0.0540
     10  C          7.9620   -1.6250   -2.9360 C.2     1  UNL1        0.0510
     11  C          8.0590   -2.3730   -0.6760 C.2     1  UNL1        0.1660
     12  C          8.3550   -2.5710   -2.0030 C.2     1  UNL1        0.1650
     13  O          8.5510   -3.4460    0.0470 O.2     1  UNL1       -0.4540
     14  O          9.0370   -3.7850   -2.0870 O.2     1  UNL1       -0.4540
     15  C          8.8950   -4.4900   -0.8760 C.3     1  UNL1        0.4680
@<TRIPOS>BOND
     1    10     8    1
     2    10    12    2
     3     8     7    2
     4    14    12    1
     5    14    15    1
     6    12    11    1
     7     7     6    1
     8     7     9    1
     9    15    13    1
    10     6     1    1
    11    11     9    2
    12    11    13    1
    13     1     2    1
    14     3     2    2
    15     2     4    1
    16     4     5    1
