@<TRIPOS>MOLECULE
/home/cewinharhar/GITHUB/reincatalyze/data/processed/docking_pred/2023-May-17-1006_maxeplen10_maxtrainstep1000_seadep16_gamma099_lrac9e-4_lrcr1e-3_sub6/42234a6127519c7502e2f6bf4b16ee47cf11c698_ligand_6.pdbqt
 15 16 0 0 0
SMALL
GASTEIGER

@<TRIPOS>ATOM
      1  C          8.3050   -0.3140   -2.8450 C.3     1  UNL1        0.1270
      2  C          8.4670   -1.7430   -3.0650 C.2     1  UNL1        0.3030
      3  O          9.5340   -2.3580   -3.0230 O.2     1  UNL1       -0.2520
      4  O          7.3110   -2.4860   -3.3490 O.3     1  UNL1       -0.4810
      5  H          7.3850   -3.1540   -4.1010 H       1  UNL1        0.2960
      6  C          8.7640    0.1450   -1.5160 C.3     1  UNL1        0.0470
      7  C          7.7970    0.1090   -0.4170 C.2     1  UNL1       -0.0430
      8  C          7.7600   -0.9460    0.4820 C.2     1  UNL1        0.0080
      9  C          6.8690    1.1060   -0.2680 C.2     1  UNL1        0.0540
     10  C          6.8280   -0.9980    1.4950 C.2     1  UNL1        0.0510
     11  C          5.9250    1.0740    0.7410 C.2     1  UNL1        0.1660
     12  C          5.9010    0.0230    1.6250 C.2     1  UNL1        0.1650
     13  O          4.9100    1.9540    1.0770 O.2     1  UNL1       -0.4540
     14  O          4.8530    0.2690    2.5140 O.2     1  UNL1       -0.4540
     15  C          4.0340    1.2950    2.0040 C.3     1  UNL1        0.4680
@<TRIPOS>BOND
     1     5     4    1
     2     4     2    1
     3     2     3    2
     4     2     1    1
     5     1     6    1
     6     6     7    1
     7     7     9    2
     8     7     8    1
     9     9    11    1
    10     8    10    2
    11    11    13    1
    12    11    12    2
    13    13    15    1
    14    10    12    1
    15    12    14    1
    16    15    14    1
