@<TRIPOS>MOLECULE
/home/cewinharhar/GITHUB/reincatalyze/data/processed/docking_pred/2023-May-17-1006_maxeplen10_maxtrainstep1000_seadep16_gamma099_lrac9e-4_lrcr1e-3_sub6/42234a6127519c7502e2f6bf4b16ee47cf11c698_ligand_6.pdbqt
 15 16 0 0 0
SMALL
GASTEIGER

@<TRIPOS>ATOM
      1  C          4.7070    1.8930    0.6820 C.3     1  UNL1        0.1270
      2  C          4.4260    1.1650    1.9100 C.2     1  UNL1        0.3030
      3  O          5.1750    0.3470    2.4450 O.2     1  UNL1       -0.2520
      4  O          3.1970    1.4150    2.5400 O.3     1  UNL1       -0.4810
      5  H          2.5560    0.6380    2.5900 H       1  UNL1        0.2960
      6  C          6.1290    2.2600    0.5140 C.3     1  UNL1        0.0470
      7  C          6.9800    1.3410   -0.2460 C.2     1  UNL1       -0.0430
      8  C          8.3460    1.5470   -0.3630 C.2     1  UNL1        0.0080
      9  C          6.4400    0.2650   -0.8990 C.2     1  UNL1        0.0540
     10  C          9.1410    0.7040   -1.1060 C.2     1  UNL1        0.0510
     11  C          7.2190   -0.5950   -1.6500 C.2     1  UNL1        0.1660
     12  C          8.5720   -0.3780   -1.7570 C.2     1  UNL1        0.1650
     13  O          6.8970   -1.7240   -2.3820 O.2     1  UNL1       -0.4540
     14  O          9.0800   -1.3950   -2.5670 O.2     1  UNL1       -0.4540
     15  C          8.0170   -2.0540   -3.2170 C.3     1  UNL1        0.4680
@<TRIPOS>BOND
     1    15    14    1
     2    15    13    1
     3    14    12    1
     4    13    11    1
     5    12    11    2
     6    12    10    1
     7    11     9    1
     8    10     8    2
     9     9     7    2
    10     8     7    1
    11     7     6    1
    12     6     1    1
    13     1     2    1
    14     2     3    2
    15     2     4    1
    16     4     5    1
