@<TRIPOS>MOLECULE
/home/cewinharhar/GITHUB/reincatalyze/data/processed/docking_pred/2023-May-17-1006_maxeplen10_maxtrainstep1000_seadep16_gamma099_lrac9e-4_lrcr1e-3_sub6/4295960a5818388fac6ce93a10a8a6662c8ec52f_ligand_6.pdbqt
 15 16 0 0 0
SMALL
GASTEIGER

@<TRIPOS>ATOM
      1  C          5.4010   -0.0440    1.8950 C.3     1  UNL1        0.1270
      2  C          4.5670    1.1460    1.8480 C.2     1  UNL1        0.3030
      3  O          4.7990    2.1590    1.1850 O.2     1  UNL1       -0.2520
      4  O          3.3960    1.1440    2.6230 O.3     1  UNL1       -0.4810
      5  H          2.6300    0.5930    2.2700 H       1  UNL1        0.2960
      6  C          6.8210    0.2040    1.5640 C.3     1  UNL1        0.0470
      7  C          7.2320    0.0260    0.1700 C.2     1  UNL1       -0.0430
      8  C          6.5840   -0.8680   -0.6680 C.2     1  UNL1        0.0080
      9  C          8.3020    0.7150   -0.3380 C.2     1  UNL1        0.0540
     10  C          6.9930   -1.0630   -1.9690 C.2     1  UNL1        0.0510
     11  C          8.7290    0.5360   -1.6400 C.2     1  UNL1        0.1660
     12  C          8.0770   -0.3530   -2.4590 C.2     1  UNL1        0.1650
     13  O          9.7650    1.1120   -2.3540 O.2     1  UNL1       -0.4540
     14  O          8.7290   -0.3170   -3.6930 O.2     1  UNL1       -0.4540
     15  C          9.9630    0.3480   -3.5540 C.3     1  UNL1        0.4680
@<TRIPOS>BOND
     1    14    15    1
     2    14    12    1
     3    15    13    1
     4    12    10    2
     5    12    11    1
     6    13    11    1
     7    10     8    1
     8    11     9    2
     9     8     7    2
    10     9     7    1
    11     7     6    1
    12     3     2    2
    13     6     1    1
    14     2     1    1
    15     2     4    1
    16     5     4    1
