@<TRIPOS>MOLECULE
/home/cewinharhar/GITHUB/reincatalyze/data/processed/docking_pred/2023-May-17-1006_maxeplen10_maxtrainstep1000_seadep16_gamma099_lrac9e-4_lrcr1e-3_sub6/4295960a5818388fac6ce93a10a8a6662c8ec52f_ligand_6.pdbqt
 15 16 0 0 0
SMALL
GASTEIGER

@<TRIPOS>ATOM
      1  C          8.5820   -0.1340   -3.0640 C.3     1  UNL1        0.1270
      2  C          8.7390   -1.5730   -3.2030 C.2     1  UNL1        0.3030
      3  O          9.8110   -2.1810   -3.2090 O.2     1  UNL1       -0.2520
      4  O          7.5700   -2.3380   -3.3410 O.3     1  UNL1       -0.4810
      5  H          7.6460   -3.3150   -3.1010 H       1  UNL1        0.2960
      6  C          9.0700    0.4010   -1.7740 C.3     1  UNL1        0.0470
      7  C          8.1700    0.3150   -0.6220 C.2     1  UNL1       -0.0430
      8  C          8.3670   -0.6200    0.3830 C.2     1  UNL1        0.0080
      9  C          7.0780    1.1360   -0.5230 C.2     1  UNL1        0.0540
     10  C          7.5010   -0.7260    1.4480 C.2     1  UNL1        0.0510
     11  C          6.1960    1.0470    0.5370 C.2     1  UNL1        0.1660
     12  C          6.4040    0.1170    1.5260 C.2     1  UNL1        0.1650
     13  O          5.0480    1.7590    0.8390 O.2     1  UNL1       -0.4540
     14  O          5.3640    0.2660    2.4450 O.2     1  UNL1       -0.4540
     15  C          4.3480    1.0610    1.8800 C.3     1  UNL1        0.4680
@<TRIPOS>BOND
     1     4     2    1
     2     4     5    1
     3     3     2    2
     4     2     1    1
     5     1     6    1
     6     6     7    1
     7     7     9    2
     8     7     8    1
     9     9    11    1
    10     8    10    2
    11    11    13    1
    12    11    12    2
    13    13    15    1
    14    10    12    1
    15    12    14    1
    16    15    14    1
