MODEL 1
REMARK VINA RESULT:      -7.5      0.000      0.000
REMARK SMILES O=C(O)CCc1ccc2c(c1)OCO2
REMARK SMILES IDX 4 1 2 2 1 3 3 4 5 6 6 7 7 8 11 9 8 10 10 11 9 12 12 13 14 14
REMARK SMILES IDX 13 15
REMARK H PARENT 3 5
REMARK Flexibility Score: inf
ROOT
ATOM      1  C   UNL     1       5.428   2.866   0.159  1.00  0.00     0.127 C 
ENDROOT
BRANCH   1   2
ATOM      2  C   UNL     1       6.262   3.848   0.833  1.00  0.00     0.303 C 
ATOM      3  O   UNL     1       6.899   4.747   0.281  1.00  0.00    -0.252 OA
BRANCH   2   4
ATOM      4  O   UNL     1       6.352   3.766   2.231  1.00  0.00    -0.481 OA
ATOM      5  H   UNL     1       7.281   3.670   2.613  1.00  0.00     0.296 HD
ENDBRANCH   2   4
ENDBRANCH   1   2
BRANCH   1   6
ATOM      6  C   UNL     1       5.354   1.563   0.854  1.00  0.00     0.047 C 
BRANCH   6   7
ATOM      7  C   UNL     1       6.126   0.452   0.294  1.00  0.00    -0.043 A 
ATOM      8  C   UNL     1       6.618  -0.566   1.097  1.00  0.00     0.008 A 
ATOM      9  C   UNL     1       6.419   0.406  -1.043  1.00  0.00     0.054 A 
ATOM     10  C   UNL     1       7.375  -1.592   0.577  1.00  0.00     0.051 A 
ATOM     11  C   UNL     1       7.176  -0.614  -1.587  1.00  0.00     0.166 A 
ATOM     12  C   UNL     1       7.657  -1.617  -0.779  1.00  0.00     0.165 A 
ATOM     13  O   UNL     1       7.589  -0.861  -2.884  1.00  0.00    -0.454 OA
ATOM     14  O   UNL     1       8.374  -2.487  -1.601  1.00  0.00    -0.454 OA
ATOM     15  C   UNL     1       8.606  -1.873  -2.847  1.00  0.00     0.468 C 
ENDBRANCH   6   7
ENDBRANCH   1   6
TORSDOF 4
ENDMDL
MODEL 2
REMARK VINA RESULT:      -7.4      2.338      2.635
REMARK SMILES O=C(O)CCc1ccc2c(c1)OCO2
REMARK SMILES IDX 4 1 2 2 1 3 3 4 5 6 6 7 7 8 11 9 8 10 10 11 9 12 12 13 14 14
REMARK SMILES IDX 13 15
REMARK H PARENT 3 5
REMARK Flexibility Score: inf
ROOT
ATOM      1  C   UNL     1       5.350   1.893   1.135  1.00  0.00     0.127 C 
ENDROOT
BRANCH   1   2
ATOM      2  C   UNL     1       4.741   0.907   2.014  1.00  0.00     0.303 C 
ATOM      3  O   UNL     1       5.252  -0.161   2.357  1.00  0.00    -0.252 OA
BRANCH   2   4
ATOM      4  O   UNL     1       3.462   1.194   2.516  1.00  0.00    -0.481 OA
ATOM      5  H   UNL     1       3.408   1.408   3.500  1.00  0.00     0.296 HD
ENDBRANCH   2   4
ENDBRANCH   1   2
BRANCH   1   6
ATOM      6  C   UNL     1       5.356   1.503  -0.292  1.00  0.00     0.047 C 
BRANCH   6   7
ATOM      7  C   UNL     1       6.588   0.923  -0.830  1.00  0.00    -0.043 A 
ATOM      8  C   UNL     1       7.834   1.428  -0.492  1.00  0.00     0.008 A 
ATOM      9  C   UNL     1       6.542  -0.117  -1.720  1.00  0.00     0.054 A 
ATOM     10  C   UNL     1       8.992   0.907  -1.026  1.00  0.00     0.051 A 
ATOM     11  C   UNL     1       7.691  -0.656  -2.268  1.00  0.00     0.166 A 
ATOM     12  C   UNL     1       8.919  -0.146  -1.923  1.00  0.00     0.165 A 
ATOM     13  O   UNL     1       7.882  -1.689  -3.169  1.00  0.00    -0.454 OA
ATOM     14  O   UNL     1       9.873  -0.883  -2.627  1.00  0.00    -0.454 OA
ATOM     15  C   UNL     1       9.238  -1.632  -3.637  1.00  0.00     0.468 C 
ENDBRANCH   6   7
ENDBRANCH   1   6
TORSDOF 4
ENDMDL
MODEL 3
REMARK VINA RESULT:      -7.3      1.988      2.979
REMARK SMILES O=C(O)CCc1ccc2c(c1)OCO2
REMARK SMILES IDX 4 1 2 2 1 3 3 4 5 6 6 7 7 8 11 9 8 10 10 11 9 12 12 13 14 14
REMARK SMILES IDX 13 15
REMARK H PARENT 3 5
REMARK Flexibility Score: inf
ROOT
ATOM      1  C   UNL     1       6.455   1.277   0.766  1.00  0.00     0.127 C 
ENDROOT
BRANCH   1   2
ATOM      2  C   UNL     1       5.255   1.151   1.577  1.00  0.00     0.303 C 
ATOM      3  O   UNL     1       5.061   0.298   2.445  1.00  0.00    -0.252 OA
BRANCH   2   4
ATOM      4  O   UNL     1       4.226   2.080   1.354  1.00  0.00    -0.481 OA
ATOM      5  H   UNL     1       4.362   2.718   0.586  1.00  0.00     0.296 HD
ENDBRANCH   2   4
ENDBRANCH   1   2
BRANCH   1   6
ATOM      6  C   UNL     1       6.279   0.848  -0.638  1.00  0.00     0.047 C 
BRANCH   6   7
ATOM      7  C   UNL     1       7.012  -0.340  -1.081  1.00  0.00    -0.043 A 
ATOM      8  C   UNL     1       7.281  -0.567  -2.421  1.00  0.00     0.008 A 
ATOM      9  C   UNL     1       7.420  -1.286  -0.179  1.00  0.00     0.054 A 
ATOM     10  C   UNL     1       7.938  -1.702  -2.843  1.00  0.00     0.051 A 
ATOM     11  C   UNL     1       8.082  -2.432  -0.579  1.00  0.00     0.166 A 
ATOM     12  C   UNL     1       8.343  -2.644  -1.911  1.00  0.00     0.165 A 
ATOM     13  O   UNL     1       8.579  -3.504   0.141  1.00  0.00    -0.454 OA
ATOM     14  O   UNL     1       9.011  -3.866  -2.001  1.00  0.00    -0.454 OA
ATOM     15  C   UNL     1       8.890  -4.560  -0.781  1.00  0.00     0.468 C 
ENDBRANCH   6   7
ENDBRANCH   1   6
TORSDOF 4
ENDMDL
MODEL 4
REMARK VINA RESULT:      -7.2      1.875      5.213
REMARK SMILES O=C(O)CCc1ccc2c(c1)OCO2
REMARK SMILES IDX 4 1 2 2 1 3 3 4 5 6 6 7 7 8 11 9 8 10 10 11 9 12 12 13 14 14
REMARK SMILES IDX 13 15
REMARK H PARENT 3 5
REMARK Flexibility Score: inf
ROOT
ATOM      1  C   UNL     1       8.582  -0.134  -3.064  1.00  0.00     0.127 C 
ENDROOT
BRANCH   1   2
ATOM      2  C   UNL     1       8.739  -1.573  -3.203  1.00  0.00     0.303 C 
ATOM      3  O   UNL     1       9.811  -2.181  -3.209  1.00  0.00    -0.252 OA
BRANCH   2   4
ATOM      4  O   UNL     1       7.570  -2.338  -3.341  1.00  0.00    -0.481 OA
ATOM      5  H   UNL     1       7.646  -3.315  -3.101  1.00  0.00     0.296 HD
ENDBRANCH   2   4
ENDBRANCH   1   2
BRANCH   1   6
ATOM      6  C   UNL     1       9.070   0.401  -1.774  1.00  0.00     0.047 C 
BRANCH   6   7
ATOM      7  C   UNL     1       8.170   0.315  -0.622  1.00  0.00    -0.043 A 
ATOM      8  C   UNL     1       8.367  -0.620   0.383  1.00  0.00     0.008 A 
ATOM      9  C   UNL     1       7.078   1.136  -0.523  1.00  0.00     0.054 A 
ATOM     10  C   UNL     1       7.501  -0.726   1.448  1.00  0.00     0.051 A 
ATOM     11  C   UNL     1       6.196   1.047   0.537  1.00  0.00     0.166 A 
ATOM     12  C   UNL     1       6.404   0.117   1.526  1.00  0.00     0.165 A 
ATOM     13  O   UNL     1       5.048   1.759   0.839  1.00  0.00    -0.454 OA
ATOM     14  O   UNL     1       5.364   0.266   2.445  1.00  0.00    -0.454 OA
ATOM     15  C   UNL     1       4.348   1.061   1.880  1.00  0.00     0.468 C 
ENDBRANCH   6   7
ENDBRANCH   1   6
TORSDOF 4
ENDMDL
MODEL 5
REMARK VINA RESULT:      -7.2      2.081      2.729
REMARK SMILES O=C(O)CCc1ccc2c(c1)OCO2
REMARK SMILES IDX 4 1 2 2 1 3 3 4 5 6 6 7 7 8 11 9 8 10 10 11 9 12 12 13 14 14
REMARK SMILES IDX 13 15
REMARK H PARENT 3 5
REMARK Flexibility Score: inf
ROOT
ATOM      1  C   UNL     1       5.401  -0.044   1.895  1.00  0.00     0.127 C 
ENDROOT
BRANCH   1   2
ATOM      2  C   UNL     1       4.567   1.146   1.848  1.00  0.00     0.303 C 
ATOM      3  O   UNL     1       4.799   2.159   1.185  1.00  0.00    -0.252 OA
BRANCH   2   4
ATOM      4  O   UNL     1       3.396   1.144   2.623  1.00  0.00    -0.481 OA
ATOM      5  H   UNL     1       2.630   0.593   2.270  1.00  0.00     0.296 HD
ENDBRANCH   2   4
ENDBRANCH   1   2
BRANCH   1   6
ATOM      6  C   UNL     1       6.821   0.204   1.564  1.00  0.00     0.047 C 
BRANCH   6   7
ATOM      7  C   UNL     1       7.232   0.026   0.170  1.00  0.00    -0.043 A 
ATOM      8  C   UNL     1       6.584  -0.868  -0.668  1.00  0.00     0.008 A 
ATOM      9  C   UNL     1       8.302   0.715  -0.338  1.00  0.00     0.054 A 
ATOM     10  C   UNL     1       6.993  -1.063  -1.969  1.00  0.00     0.051 A 
ATOM     11  C   UNL     1       8.729   0.536  -1.640  1.00  0.00     0.166 A 
ATOM     12  C   UNL     1       8.077  -0.353  -2.459  1.00  0.00     0.165 A 
ATOM     13  O   UNL     1       9.765   1.112  -2.354  1.00  0.00    -0.454 OA
ATOM     14  O   UNL     1       8.729  -0.317  -3.693  1.00  0.00    -0.454 OA
ATOM     15  C   UNL     1       9.963   0.348  -3.554  1.00  0.00     0.468 C 
ENDBRANCH   6   7
ENDBRANCH   1   6
TORSDOF 4
ENDMDL
