@<TRIPOS>MOLECULE
/home/cewinharhar/GITHUB/reincatalyze/data/processed/docking_pred/2023-May-17-1006_maxeplen10_maxtrainstep1000_seadep16_gamma099_lrac9e-4_lrcr1e-3_sub6/4295960a5818388fac6ce93a10a8a6662c8ec52f_ligand_6.pdbqt
 15 16 0 0 0
SMALL
GASTEIGER

@<TRIPOS>ATOM
      1  C          5.4280    2.8660    0.1590 C.3     1  UNL1        0.1270
      2  C          6.2620    3.8480    0.8330 C.2     1  UNL1        0.3030
      3  O          6.8990    4.7470    0.2810 O.2     1  UNL1       -0.2520
      4  O          6.3520    3.7660    2.2310 O.3     1  UNL1       -0.4810
      5  H          7.2810    3.6700    2.6130 H       1  UNL1        0.2960
      6  C          5.3540    1.5630    0.8540 C.3     1  UNL1        0.0470
      7  C          6.1260    0.4520    0.2940 C.2     1  UNL1       -0.0430
      8  C          6.6180   -0.5660    1.0970 C.2     1  UNL1        0.0080
      9  C          6.4190    0.4060   -1.0430 C.2     1  UNL1        0.0540
     10  C          7.3750   -1.5920    0.5770 C.2     1  UNL1        0.0510
     11  C          7.1760   -0.6140   -1.5870 C.2     1  UNL1        0.1660
     12  C          7.6570   -1.6170   -0.7790 C.2     1  UNL1        0.1650
     13  O          7.5890   -0.8610   -2.8840 O.2     1  UNL1       -0.4540
     14  O          8.3740   -2.4870   -1.6010 O.2     1  UNL1       -0.4540
     15  C          8.6060   -1.8730   -2.8470 C.3     1  UNL1        0.4680
@<TRIPOS>BOND
     1    13    15    1
     2    13    11    1
     3    15    14    1
     4    14    12    1
     5    11     9    1
     6    11    12    2
     7     9     7    2
     8    12    10    1
     9     1     2    1
    10     1     6    1
    11     3     2    2
    12     7     6    1
    13     7     8    1
    14    10     8    2
    15     2     4    1
    16     4     5    1
