@<TRIPOS>MOLECULE
/home/cewinharhar/GITHUB/reincatalyze/data/processed/docking_pred/2023-May-17-1006_maxeplen10_maxtrainstep1000_seadep16_gamma099_lrac9e-4_lrcr1e-3_sub6/4295960a5818388fac6ce93a10a8a6662c8ec52f_ligand_6.pdbqt
 15 16 0 0 0
SMALL
GASTEIGER

@<TRIPOS>ATOM
      1  C          5.3500    1.8930    1.1350 C.3     1  UNL1        0.1270
      2  C          4.7410    0.9070    2.0140 C.2     1  UNL1        0.3030
      3  O          5.2520   -0.1610    2.3570 O.2     1  UNL1       -0.2520
      4  O          3.4620    1.1940    2.5160 O.3     1  UNL1       -0.4810
      5  H          3.4080    1.4080    3.5000 H       1  UNL1        0.2960
      6  C          5.3560    1.5030   -0.2920 C.3     1  UNL1        0.0470
      7  C          6.5880    0.9230   -0.8300 C.2     1  UNL1       -0.0430
      8  C          7.8340    1.4280   -0.4920 C.2     1  UNL1        0.0080
      9  C          6.5420   -0.1170   -1.7200 C.2     1  UNL1        0.0540
     10  C          8.9920    0.9070   -1.0260 C.2     1  UNL1        0.0510
     11  C          7.6910   -0.6560   -2.2680 C.2     1  UNL1        0.1660
     12  C          8.9190   -0.1460   -1.9230 C.2     1  UNL1        0.1650
     13  O          7.8820   -1.6890   -3.1690 O.2     1  UNL1       -0.4540
     14  O          9.8730   -0.8830   -2.6270 O.2     1  UNL1       -0.4540
     15  C          9.2380   -1.6320   -3.6370 C.3     1  UNL1        0.4680
@<TRIPOS>BOND
     1    15    13    1
     2    15    14    1
     3    13    11    1
     4    14    12    1
     5    11    12    2
     6    11     9    1
     7    12    10    1
     8     9     7    2
     9    10     8    2
    10     7     8    1
    11     7     6    1
    12     6     1    1
    13     1     2    1
    14     2     3    2
    15     2     4    1
    16     4     5    1
