@<TRIPOS>MOLECULE
/home/cewinharhar/GITHUB/reincatalyze/data/processed/docking_pred/2023-May-17-1006_maxeplen10_maxtrainstep1000_seadep16_gamma099_lrac9e-4_lrcr1e-3_sub6/4295960a5818388fac6ce93a10a8a6662c8ec52f_ligand_6.pdbqt
 15 16 0 0 0
SMALL
GASTEIGER

@<TRIPOS>ATOM
      1  C          6.4550    1.2770    0.7660 C.3     1  UNL1        0.1270
      2  C          5.2550    1.1510    1.5770 C.2     1  UNL1        0.3030
      3  O          5.0610    0.2980    2.4450 O.2     1  UNL1       -0.2520
      4  O          4.2260    2.0800    1.3540 O.3     1  UNL1       -0.4810
      5  H          4.3620    2.7180    0.5860 H       1  UNL1        0.2960
      6  C          6.2790    0.8480   -0.6380 C.3     1  UNL1        0.0470
      7  C          7.0120   -0.3400   -1.0810 C.2     1  UNL1       -0.0430
      8  C          7.2810   -0.5670   -2.4210 C.2     1  UNL1        0.0080
      9  C          7.4200   -1.2860   -0.1790 C.2     1  UNL1        0.0540
     10  C          7.9380   -1.7020   -2.8430 C.2     1  UNL1        0.0510
     11  C          8.0820   -2.4320   -0.5790 C.2     1  UNL1        0.1660
     12  C          8.3430   -2.6440   -1.9110 C.2     1  UNL1        0.1650
     13  O          8.5790   -3.5040    0.1410 O.2     1  UNL1       -0.4540
     14  O          9.0110   -3.8660   -2.0010 O.2     1  UNL1       -0.4540
     15  C          8.8900   -4.5600   -0.7810 C.3     1  UNL1        0.4680
@<TRIPOS>BOND
     1    10     8    1
     2    10    12    2
     3     8     7    2
     4    14    12    1
     5    14    15    1
     6    12    11    1
     7     7     6    1
     8     7     9    1
     9    15    13    1
    10     6     1    1
    11    11     9    2
    12    11    13    1
    13     5     4    1
    14     1     2    1
    15     4     2    1
    16     2     3    2
