@<TRIPOS>MOLECULE
/home/cewinharhar/GITHUB/reincatalyze/data/processed/docking_pred/2023-May-17-1006_maxeplen10_maxtrainstep1000_seadep16_gamma099_lrac9e-4_lrcr1e-3_sub6/437598aa9d4ddbb457dda5082e5f4820e6dbe55d_ligand_6.pdbqt
 15 16 0 0 0
SMALL
GASTEIGER

@<TRIPOS>ATOM
      1  C          6.4470    1.1660    0.8100 C.3     1  UNL1        0.1270
      2  C          5.2010    1.1550    1.5600 C.2     1  UNL1        0.3030
      3  O          4.8850    0.3240    2.4150 O.2     1  UNL1       -0.2520
      4  O          4.2770    2.1760    1.2910 O.3     1  UNL1       -0.4810
      5  H          3.4160    1.8930    0.8470 H       1  UNL1        0.2960
      6  C          6.2960    0.7800   -0.6090 C.3     1  UNL1        0.0470
      7  C          7.0310   -0.3980   -1.0730 C.2     1  UNL1       -0.0430
      8  C          7.3030   -0.6010   -2.4170 C.2     1  UNL1        0.0080
      9  C          7.4400   -1.3610   -0.1880 C.2     1  UNL1        0.0540
     10  C          7.9630   -1.7260   -2.8580 C.2     1  UNL1        0.0510
     11  C          8.1040   -2.4980   -0.6080 C.2     1  UNL1        0.1660
     12  C          8.3680   -2.6850   -1.9430 C.2     1  UNL1        0.1650
     13  O          8.6020   -3.5830    0.0930 O.2     1  UNL1       -0.4540
     14  O          9.0380   -3.9040   -2.0550 O.2     1  UNL1       -0.4540
     15  C          8.9160   -4.6200   -0.8480 C.3     1  UNL1        0.4680
@<TRIPOS>BOND
     1    10     8    1
     2    10    12    2
     3     8     7    2
     4    14    12    1
     5    14    15    1
     6    12    11    1
     7     7     6    1
     8     7     9    1
     9    15    13    1
    10     6     1    1
    11    11     9    2
    12    11    13    1
    13     1     2    1
    14     5     4    1
    15     4     2    1
    16     2     3    2
