@<TRIPOS>MOLECULE
/home/cewinharhar/GITHUB/reincatalyze/data/processed/docking_pred/2023-May-17-1006_maxeplen10_maxtrainstep1000_seadep16_gamma099_lrac9e-4_lrcr1e-3_sub6/437598aa9d4ddbb457dda5082e5f4820e6dbe55d_ligand_6.pdbqt
 15 16 0 0 0
SMALL
GASTEIGER

@<TRIPOS>ATOM
      1  C          4.6860    1.8670    0.6910 C.3     1  UNL1        0.1270
      2  C          4.4090    1.1400    1.9210 C.2     1  UNL1        0.3030
      3  O          5.1550    0.3140    2.4490 O.2     1  UNL1       -0.2520
      4  O          3.1870    1.4010    2.5620 O.3     1  UNL1       -0.4810
      5  H          3.2400    1.9080    3.4320 H       1  UNL1        0.2960
      6  C          6.1060    2.2400    0.5220 C.3     1  UNL1        0.0470
      7  C          6.9600    1.3280   -0.2410 C.2     1  UNL1       -0.0430
      8  C          8.3270    1.5360   -0.3520 C.2     1  UNL1        0.0080
      9  C          6.4240    0.2560   -0.9040 C.2     1  UNL1        0.0540
     10  C          9.1250    0.6990   -1.0990 C.2     1  UNL1        0.0510
     11  C          7.2060   -0.5970   -1.6590 C.2     1  UNL1        0.1660
     12  C          8.5590   -0.3790   -1.7590 C.2     1  UNL1        0.1650
     13  O          6.8870   -1.7220   -2.4000 O.2     1  UNL1       -0.4540
     14  O          9.0700   -1.3890   -2.5750 O.2     1  UNL1       -0.4540
     15  C          8.0110   -2.0440   -3.2330 C.3     1  UNL1        0.4680
@<TRIPOS>BOND
     1    15    14    1
     2    15    13    1
     3    14    12    1
     4    13    11    1
     5    12    11    2
     6    12    10    1
     7    11     9    1
     8    10     8    2
     9     9     7    2
    10     8     7    1
    11     7     6    1
    12     6     1    1
    13     1     2    1
    14     2     3    2
    15     2     4    1
    16     4     5    1
