@<TRIPOS>MOLECULE
/home/cewinharhar/GITHUB/reincatalyze/data/processed/docking_pred/2023-May-17-1006_maxeplen10_maxtrainstep1000_seadep16_gamma099_lrac9e-4_lrcr1e-3_sub6/437598aa9d4ddbb457dda5082e5f4820e6dbe55d_ligand_6.pdbqt
 15 16 0 0 0
SMALL
GASTEIGER

@<TRIPOS>ATOM
      1  C          5.4310    2.8700    0.1570 C.3     1  UNL1        0.1270
      2  C          6.2930    3.8250    0.8340 C.2     1  UNL1        0.3030
      3  O          6.8690    4.7750    0.3010 O.2     1  UNL1       -0.2520
      4  O          6.4860    3.6540    2.2140 O.3     1  UNL1       -0.4810
      5  H          7.4250    3.4300    2.5070 H       1  UNL1        0.2960
      6  C          5.3570    1.5510    0.8220 C.3     1  UNL1        0.0470
      7  C          6.1200    0.4500    0.2310 C.2     1  UNL1       -0.0430
      8  C          6.5140   -0.6450    0.9840 C.2     1  UNL1        0.0080
      9  C          6.5020    0.4900   -1.0840 C.2     1  UNL1        0.0540
     10  C          7.2630   -1.6640    0.4390 C.2     1  UNL1        0.0510
     11  C          7.2530   -0.5210   -1.6530 C.2     1  UNL1        0.1660
     12  C          7.6360   -1.6010   -0.8940 C.2     1  UNL1        0.1650
     13  O          7.7440   -0.6910   -2.9360 O.2     1  UNL1       -0.4540
     14  O          8.3720   -2.4410   -1.7320 O.2     1  UNL1       -0.4540
     15  C          8.7140   -1.7480   -2.9100 C.3     1  UNL1        0.4680
@<TRIPOS>BOND
     1    13    15    1
     2    13    11    1
     3    15    14    1
     4    14    12    1
     5    11     9    1
     6    11    12    2
     7     9     7    2
     8    12    10    1
     9     1     6    1
    10     1     2    1
    11     7     6    1
    12     7     8    1
    13     3     2    2
    14    10     8    2
    15     2     4    1
    16     4     5    1
