MODEL 1
REMARK VINA RESULT:      -7.6      0.000      0.000
REMARK SMILES O=C(O)CCc1ccc2c(c1)OCO2
REMARK SMILES IDX 4 1 2 2 1 3 3 4 5 6 6 7 7 8 11 9 8 10 10 11 9 12 12 13 14 14
REMARK SMILES IDX 13 15
REMARK H PARENT 3 5
REMARK Flexibility Score: inf
ROOT
ATOM      1  C   UNL     1       4.686   1.867   0.691  1.00  0.00     0.127 C 
ENDROOT
BRANCH   1   2
ATOM      2  C   UNL     1       4.409   1.140   1.921  1.00  0.00     0.303 C 
ATOM      3  O   UNL     1       5.155   0.314   2.449  1.00  0.00    -0.252 OA
BRANCH   2   4
ATOM      4  O   UNL     1       3.187   1.401   2.562  1.00  0.00    -0.481 OA
ATOM      5  H   UNL     1       3.240   1.908   3.432  1.00  0.00     0.296 HD
ENDBRANCH   2   4
ENDBRANCH   1   2
BRANCH   1   6
ATOM      6  C   UNL     1       6.106   2.240   0.522  1.00  0.00     0.047 C 
BRANCH   6   7
ATOM      7  C   UNL     1       6.960   1.328  -0.241  1.00  0.00    -0.043 A 
ATOM      8  C   UNL     1       8.327   1.536  -0.352  1.00  0.00     0.008 A 
ATOM      9  C   UNL     1       6.424   0.256  -0.904  1.00  0.00     0.054 A 
ATOM     10  C   UNL     1       9.125   0.699  -1.099  1.00  0.00     0.051 A 
ATOM     11  C   UNL     1       7.206  -0.597  -1.659  1.00  0.00     0.166 A 
ATOM     12  C   UNL     1       8.559  -0.379  -1.759  1.00  0.00     0.165 A 
ATOM     13  O   UNL     1       6.887  -1.722  -2.400  1.00  0.00    -0.454 OA
ATOM     14  O   UNL     1       9.070  -1.389  -2.575  1.00  0.00    -0.454 OA
ATOM     15  C   UNL     1       8.011  -2.044  -3.233  1.00  0.00     0.468 C 
ENDBRANCH   6   7
ENDBRANCH   1   6
TORSDOF 4
ENDMDL
MODEL 2
REMARK VINA RESULT:      -7.5      1.883      2.429
REMARK SMILES O=C(O)CCc1ccc2c(c1)OCO2
REMARK SMILES IDX 4 1 2 2 1 3 3 4 5 6 6 7 7 8 11 9 8 10 10 11 9 12 12 13 14 14
REMARK SMILES IDX 13 15
REMARK H PARENT 3 5
REMARK Flexibility Score: inf
ROOT
ATOM      1  C   UNL     1       6.447   1.166   0.810  1.00  0.00     0.127 C 
ENDROOT
BRANCH   1   2
ATOM      2  C   UNL     1       5.201   1.155   1.560  1.00  0.00     0.303 C 
ATOM      3  O   UNL     1       4.885   0.324   2.415  1.00  0.00    -0.252 OA
BRANCH   2   4
ATOM      4  O   UNL     1       4.277   2.176   1.291  1.00  0.00    -0.481 OA
ATOM      5  H   UNL     1       3.416   1.893   0.847  1.00  0.00     0.296 HD
ENDBRANCH   2   4
ENDBRANCH   1   2
BRANCH   1   6
ATOM      6  C   UNL     1       6.296   0.780  -0.609  1.00  0.00     0.047 C 
BRANCH   6   7
ATOM      7  C   UNL     1       7.031  -0.398  -1.073  1.00  0.00    -0.043 A 
ATOM      8  C   UNL     1       7.303  -0.601  -2.417  1.00  0.00     0.008 A 
ATOM      9  C   UNL     1       7.440  -1.361  -0.188  1.00  0.00     0.054 A 
ATOM     10  C   UNL     1       7.963  -1.726  -2.858  1.00  0.00     0.051 A 
ATOM     11  C   UNL     1       8.104  -2.498  -0.608  1.00  0.00     0.166 A 
ATOM     12  C   UNL     1       8.368  -2.685  -1.943  1.00  0.00     0.165 A 
ATOM     13  O   UNL     1       8.602  -3.583   0.093  1.00  0.00    -0.454 OA
ATOM     14  O   UNL     1       9.038  -3.904  -2.055  1.00  0.00    -0.454 OA
ATOM     15  C   UNL     1       8.916  -4.620  -0.848  1.00  0.00     0.468 C 
ENDBRANCH   6   7
ENDBRANCH   1   6
TORSDOF 4
ENDMDL
MODEL 3
REMARK VINA RESULT:      -7.4      1.450      5.372
REMARK SMILES O=C(O)CCc1ccc2c(c1)OCO2
REMARK SMILES IDX 4 1 2 2 1 3 3 4 5 6 6 7 7 8 11 9 8 10 10 11 9 12 12 13 14 14
REMARK SMILES IDX 13 15
REMARK H PARENT 3 5
REMARK Flexibility Score: inf
ROOT
ATOM      1  C   UNL     1       8.304  -0.316  -2.846  1.00  0.00     0.127 C 
ENDROOT
BRANCH   1   2
ATOM      2  C   UNL     1       8.465  -1.744  -3.066  1.00  0.00     0.303 C 
ATOM      3  O   UNL     1       9.532  -2.360  -3.026  1.00  0.00    -0.252 OA
BRANCH   2   4
ATOM      4  O   UNL     1       7.308  -2.488  -3.348  1.00  0.00    -0.481 OA
ATOM      5  H   UNL     1       6.681  -2.644  -2.574  1.00  0.00     0.296 HD
ENDBRANCH   2   4
ENDBRANCH   1   2
BRANCH   1   6
ATOM      6  C   UNL     1       8.759   0.142  -1.516  1.00  0.00     0.047 C 
BRANCH   6   7
ATOM      7  C   UNL     1       7.790   0.104  -0.419  1.00  0.00    -0.043 A 
ATOM      8  C   UNL     1       7.743  -0.958   0.471  1.00  0.00     0.008 A 
ATOM      9  C   UNL     1       6.870   1.107  -0.262  1.00  0.00     0.054 A 
ATOM     10  C   UNL     1       6.809  -1.013   1.481  1.00  0.00     0.051 A 
ATOM     11  C   UNL     1       5.923   1.074   0.745  1.00  0.00     0.166 A 
ATOM     12  C   UNL     1       5.890   0.015   1.619  1.00  0.00     0.165 A 
ATOM     13  O   UNL     1       4.916   1.958   1.087  1.00  0.00    -0.454 OA
ATOM     14  O   UNL     1       4.842   0.260   2.509  1.00  0.00    -0.454 OA
ATOM     15  C   UNL     1       4.032   1.298   2.007  1.00  0.00     0.468 C 
ENDBRANCH   6   7
ENDBRANCH   1   6
TORSDOF 4
ENDMDL
MODEL 4
REMARK VINA RESULT:      -6.8      2.120      2.531
REMARK SMILES O=C(O)CCc1ccc2c(c1)OCO2
REMARK SMILES IDX 4 1 2 2 1 3 3 4 5 6 6 7 7 8 11 9 8 10 10 11 9 12 12 13 14 14
REMARK SMILES IDX 13 15
REMARK H PARENT 3 5
REMARK Flexibility Score: inf
ROOT
ATOM      1  C   UNL     1       5.431   2.870   0.157  1.00  0.00     0.127 C 
ENDROOT
BRANCH   1   2
ATOM      2  C   UNL     1       6.293   3.825   0.834  1.00  0.00     0.303 C 
ATOM      3  O   UNL     1       6.869   4.775   0.301  1.00  0.00    -0.252 OA
BRANCH   2   4
ATOM      4  O   UNL     1       6.486   3.654   2.214  1.00  0.00    -0.481 OA
ATOM      5  H   UNL     1       7.425   3.430   2.507  1.00  0.00     0.296 HD
ENDBRANCH   2   4
ENDBRANCH   1   2
BRANCH   1   6
ATOM      6  C   UNL     1       5.357   1.551   0.822  1.00  0.00     0.047 C 
BRANCH   6   7
ATOM      7  C   UNL     1       6.120   0.450   0.231  1.00  0.00    -0.043 A 
ATOM      8  C   UNL     1       6.514  -0.645   0.984  1.00  0.00     0.008 A 
ATOM      9  C   UNL     1       6.502   0.490  -1.084  1.00  0.00     0.054 A 
ATOM     10  C   UNL     1       7.263  -1.664   0.439  1.00  0.00     0.051 A 
ATOM     11  C   UNL     1       7.253  -0.521  -1.653  1.00  0.00     0.166 A 
ATOM     12  C   UNL     1       7.636  -1.601  -0.894  1.00  0.00     0.165 A 
ATOM     13  O   UNL     1       7.744  -0.691  -2.936  1.00  0.00    -0.454 OA
ATOM     14  O   UNL     1       8.372  -2.441  -1.732  1.00  0.00    -0.454 OA
ATOM     15  C   UNL     1       8.714  -1.748  -2.910  1.00  0.00     0.468 C 
ENDBRANCH   6   7
ENDBRANCH   1   6
TORSDOF 4
ENDMDL
