@<TRIPOS>MOLECULE
/home/cewinharhar/GITHUB/reincatalyze/data/processed/docking_pred/2023-May-17-1006_maxeplen10_maxtrainstep1000_seadep16_gamma099_lrac9e-4_lrcr1e-3_sub6/437598aa9d4ddbb457dda5082e5f4820e6dbe55d_ligand_6.pdbqt
 15 16 0 0 0
SMALL
GASTEIGER

@<TRIPOS>ATOM
      1  C          8.3040   -0.3160   -2.8460 C.3     1  UNL1        0.1270
      2  C          8.4650   -1.7440   -3.0660 C.2     1  UNL1        0.3030
      3  O          9.5320   -2.3600   -3.0260 O.2     1  UNL1       -0.2520
      4  O          7.3080   -2.4880   -3.3480 O.3     1  UNL1       -0.4810
      5  H          6.6810   -2.6440   -2.5740 H       1  UNL1        0.2960
      6  C          8.7590    0.1420   -1.5160 C.3     1  UNL1        0.0470
      7  C          7.7900    0.1040   -0.4190 C.2     1  UNL1       -0.0430
      8  C          7.7430   -0.9580    0.4710 C.2     1  UNL1        0.0080
      9  C          6.8700    1.1070   -0.2620 C.2     1  UNL1        0.0540
     10  C          6.8090   -1.0130    1.4810 C.2     1  UNL1        0.0510
     11  C          5.9230    1.0740    0.7450 C.2     1  UNL1        0.1660
     12  C          5.8900    0.0150    1.6190 C.2     1  UNL1        0.1650
     13  O          4.9160    1.9580    1.0870 O.2     1  UNL1       -0.4540
     14  O          4.8420    0.2600    2.5090 O.2     1  UNL1       -0.4540
     15  C          4.0320    1.2980    2.0070 C.3     1  UNL1        0.4680
@<TRIPOS>BOND
     1     4     2    1
     2     4     5    1
     3     2     3    2
     4     2     1    1
     5     1     6    1
     6     6     7    1
     7     7     9    2
     8     7     8    1
     9     9    11    1
    10     8    10    2
    11    11    13    1
    12    11    12    2
    13    13    15    1
    14    10    12    1
    15    12    14    1
    16    15    14    1
