@<TRIPOS>MOLECULE
/home/cewinharhar/GITHUB/reincatalyze/data/processed/docking_pred/2023-May-17-1006_maxeplen10_maxtrainstep1000_seadep16_gamma099_lrac9e-4_lrcr1e-3_sub6/43f74fb3996e866f8c2ebaeff785616509de483e_ligand_6.pdbqt
 15 16 0 0 0
SMALL
GASTEIGER

@<TRIPOS>ATOM
      1  C          4.6160    1.8090    0.7030 C.3     1  UNL1        0.1270
      2  C          4.3390    1.1100    1.9480 C.2     1  UNL1        0.3030
      3  O          5.0720    0.2760    2.4800 O.2     1  UNL1       -0.2520
      4  O          3.1330    1.4110    2.6010 O.3     1  UNL1       -0.4810
      5  H          2.8400    0.7620    3.3160 H       1  UNL1        0.2960
      6  C          6.0330    2.1960    0.5340 C.3     1  UNL1        0.0470
      7  C          6.8940    1.2950   -0.2340 C.2     1  UNL1       -0.0430
      8  C          8.2520    1.5350   -0.3750 C.2     1  UNL1        0.0080
      9  C          6.3710    0.2020   -0.8720 C.2     1  UNL1        0.0540
     10  C          9.0570    0.7080   -1.1270 C.2     1  UNL1        0.0510
     11  C          7.1590   -0.6420   -1.6310 C.2     1  UNL1        0.1660
     12  C          8.5040   -0.3920   -1.7610 C.2     1  UNL1        0.1650
     13  O          6.8540   -1.7840   -2.3510 O.2     1  UNL1       -0.4540
     14  O          9.0250   -1.4000   -2.5750 O.2     1  UNL1       -0.4540
     15  C          7.9690   -2.0900   -3.2020 C.3     1  UNL1        0.4680
@<TRIPOS>BOND
     1    15    14    1
     2    15    13    1
     3    14    12    1
     4    13    11    1
     5    12    11    2
     6    12    10    1
     7    11     9    1
     8    10     8    2
     9     9     7    2
    10     8     7    1
    11     7     6    1
    12     6     1    1
    13     1     2    1
    14     2     3    2
    15     2     4    1
    16     4     5    1
