@<TRIPOS>MOLECULE
/home/cewinharhar/GITHUB/reincatalyze/data/processed/docking_pred/2023-May-17-1006_maxeplen10_maxtrainstep1000_seadep16_gamma099_lrac9e-4_lrcr1e-3_sub6/43f74fb3996e866f8c2ebaeff785616509de483e_ligand_6.pdbqt
 15 16 0 0 0
SMALL
GASTEIGER

@<TRIPOS>ATOM
      1  C          5.3080    2.7880    0.0880 C.3     1  UNL1        0.1270
      2  C          6.2550    3.6680    0.7560 C.2     1  UNL1        0.3030
      3  O          6.7550    4.6840    0.2690 O.2     1  UNL1       -0.2520
      4  O          6.6320    3.3330    2.0650 O.3     1  UNL1       -0.4810
      5  H          6.1890    2.5190    2.4630 H       1  UNL1        0.2960
      6  C          5.2330    1.4330    0.6740 C.3     1  UNL1        0.0470
      7  C          6.1040    0.4010    0.1080 C.2     1  UNL1       -0.0430
      8  C          6.3910    0.3590   -1.2480 C.2     1  UNL1        0.0080
      9  C          6.6320   -0.5830    0.9020 C.2     1  UNL1        0.0540
     10  C          7.1800   -0.6320   -1.7870 C.2     1  UNL1        0.0510
     11  C          7.4280   -1.5870    0.3820 C.2     1  UNL1        0.1660
     12  C          7.7050   -1.6150   -0.9630 C.2     1  UNL1        0.1650
     13  O          8.0580   -2.6620    0.9820 O.2     1  UNL1       -0.4540
     14  O          8.5180   -2.7280   -1.1840 O.2     1  UNL1       -0.4540
     15  C          8.4910   -3.5620   -0.0490 C.3     1  UNL1        0.4680
@<TRIPOS>BOND
     1    10     8    1
     2    10    12    2
     3     8     7    2
     4    14    12    1
     5    14    15    1
     6    12    11    1
     7    15    13    1
     8     1     6    1
     9     1     2    1
    10     7     6    1
    11     7     9    1
    12     3     2    2
    13    11     9    2
    14    11    13    1
    15     2     4    1
    16     4     5    1
