MODEL 1
REMARK VINA RESULT:      -7.9      0.000      0.000
REMARK SMILES O=C(O)CCc1ccc2c(c1)OCO2
REMARK SMILES IDX 4 1 2 2 1 3 3 4 5 6 6 7 7 8 11 9 8 10 10 11 9 12 12 13 14 14
REMARK SMILES IDX 13 15
REMARK H PARENT 3 5
REMARK Flexibility Score: inf
ROOT
ATOM      1  C   UNL     1       4.616   1.809   0.703  1.00  0.00     0.127 C 
ENDROOT
BRANCH   1   2
ATOM      2  C   UNL     1       4.339   1.110   1.948  1.00  0.00     0.303 C 
ATOM      3  O   UNL     1       5.072   0.276   2.480  1.00  0.00    -0.252 OA
BRANCH   2   4
ATOM      4  O   UNL     1       3.133   1.411   2.601  1.00  0.00    -0.481 OA
ATOM      5  H   UNL     1       2.840   0.762   3.316  1.00  0.00     0.296 HD
ENDBRANCH   2   4
ENDBRANCH   1   2
BRANCH   1   6
ATOM      6  C   UNL     1       6.033   2.196   0.534  1.00  0.00     0.047 C 
BRANCH   6   7
ATOM      7  C   UNL     1       6.894   1.295  -0.234  1.00  0.00    -0.043 A 
ATOM      8  C   UNL     1       8.252   1.535  -0.375  1.00  0.00     0.008 A 
ATOM      9  C   UNL     1       6.371   0.202  -0.872  1.00  0.00     0.054 A 
ATOM     10  C   UNL     1       9.057   0.708  -1.127  1.00  0.00     0.051 A 
ATOM     11  C   UNL     1       7.159  -0.642  -1.631  1.00  0.00     0.166 A 
ATOM     12  C   UNL     1       8.504  -0.392  -1.761  1.00  0.00     0.165 A 
ATOM     13  O   UNL     1       6.854  -1.784  -2.351  1.00  0.00    -0.454 OA
ATOM     14  O   UNL     1       9.025  -1.400  -2.575  1.00  0.00    -0.454 OA
ATOM     15  C   UNL     1       7.969  -2.090  -3.202  1.00  0.00     0.468 C 
ENDBRANCH   6   7
ENDBRANCH   1   6
TORSDOF 4
ENDMDL
MODEL 2
REMARK VINA RESULT:      -7.6      2.261      2.582
REMARK SMILES O=C(O)CCc1ccc2c(c1)OCO2
REMARK SMILES IDX 4 1 2 2 1 3 3 4 5 6 6 7 7 8 11 9 8 10 10 11 9 12 12 13 14 14
REMARK SMILES IDX 13 15
REMARK H PARENT 3 5
REMARK Flexibility Score: inf
ROOT
ATOM      1  C   UNL     1       5.429   2.873   0.166  1.00  0.00     0.127 C 
ENDROOT
BRANCH   1   2
ATOM      2  C   UNL     1       6.184   3.851   0.933  1.00  0.00     0.303 C 
ATOM      3  O   UNL     1       6.204   3.938   2.162  1.00  0.00    -0.252 OA
BRANCH   2   4
ATOM      4  O   UNL     1       6.959   4.775   0.215  1.00  0.00    -0.481 OA
ATOM      5  H   UNL     1       6.896   5.736   0.513  1.00  0.00     0.296 HD
ENDBRANCH   2   4
ENDBRANCH   1   2
BRANCH   1   6
ATOM      6  C   UNL     1       5.209   1.594   0.874  1.00  0.00     0.047 C 
BRANCH   6   7
ATOM      7  C   UNL     1       6.037   0.452   0.481  1.00  0.00    -0.043 A 
ATOM      8  C   UNL     1       6.799  -0.243   1.407  1.00  0.00     0.008 A 
ATOM      9  C   UNL     1       6.111   0.059  -0.829  1.00  0.00     0.054 A 
ATOM     10  C   UNL     1       7.606  -1.295   1.033  1.00  0.00     0.051 A 
ATOM     11  C   UNL     1       6.913  -0.994  -1.227  1.00  0.00     0.166 A 
ATOM     12  C   UNL     1       7.663  -1.674  -0.298  1.00  0.00     0.165 A 
ATOM     13  O   UNL     1       7.141  -1.556  -2.471  1.00  0.00    -0.454 OA
ATOM     14  O   UNL     1       8.358  -2.667  -0.990  1.00  0.00    -0.454 OA
ATOM     15  C   UNL     1       8.290  -2.411  -2.374  1.00  0.00     0.468 C 
ENDBRANCH   6   7
ENDBRANCH   1   6
TORSDOF 4
ENDMDL
MODEL 3
REMARK VINA RESULT:      -7.5      1.502      5.299
REMARK SMILES O=C(O)CCc1ccc2c(c1)OCO2
REMARK SMILES IDX 4 1 2 2 1 3 3 4 5 6 6 7 7 8 11 9 8 10 10 11 9 12 12 13 14 14
REMARK SMILES IDX 13 15
REMARK H PARENT 3 5
REMARK Flexibility Score: inf
ROOT
ATOM      1  C   UNL     1       8.391  -0.336  -3.001  1.00  0.00     0.127 C 
ENDROOT
BRANCH   1   2
ATOM      2  C   UNL     1       8.504  -1.781  -3.126  1.00  0.00     0.303 C 
ATOM      3  O   UNL     1       9.550  -2.427  -3.049  1.00  0.00    -0.252 OA
BRANCH   2   4
ATOM      4  O   UNL     1       7.322  -2.502  -3.353  1.00  0.00    -0.481 OA
ATOM      5  H   UNL     1       7.254  -2.978  -4.239  1.00  0.00     0.296 HD
ENDBRANCH   2   4
ENDBRANCH   1   2
BRANCH   1   6
ATOM      6  C   UNL     1       8.917   0.200  -1.728  1.00  0.00     0.047 C 
BRANCH   6   7
ATOM      7  C   UNL     1       8.026   0.180  -0.565  1.00  0.00    -0.043 A 
ATOM      8  C   UNL     1       8.251  -0.671   0.506  1.00  0.00     0.008 A 
ATOM      9  C   UNL     1       6.916   0.981  -0.521  1.00  0.00     0.054 A 
ATOM     10  C   UNL     1       7.394  -0.716   1.583  1.00  0.00     0.051 A 
ATOM     11  C   UNL     1       6.043   0.953   0.550  1.00  0.00     0.166 A 
ATOM     12  C   UNL     1       6.278   0.105   1.605  1.00  0.00     0.165 A 
ATOM     13  O   UNL     1       4.880   1.659   0.806  1.00  0.00    -0.454 OA
ATOM     14  O   UNL     1       5.241   0.299   2.518  1.00  0.00    -0.454 OA
ATOM     15  C   UNL     1       4.202   1.026   1.902  1.00  0.00     0.468 C 
ENDBRANCH   6   7
ENDBRANCH   1   6
TORSDOF 4
ENDMDL
MODEL 4
REMARK VINA RESULT:      -7.4      2.110      2.440
REMARK SMILES O=C(O)CCc1ccc2c(c1)OCO2
REMARK SMILES IDX 4 1 2 2 1 3 3 4 5 6 6 7 7 8 11 9 8 10 10 11 9 12 12 13 14 14
REMARK SMILES IDX 13 15
REMARK H PARENT 3 5
REMARK Flexibility Score: inf
ROOT
ATOM      1  C   UNL     1       5.072   0.112   1.953  1.00  0.00     0.127 C 
ENDROOT
BRANCH   1   2
ATOM      2  C   UNL     1       4.233   1.296   1.844  1.00  0.00     0.303 C 
ATOM      3  O   UNL     1       4.429   2.246   1.084  1.00  0.00    -0.252 OA
BRANCH   2   4
ATOM      4  O   UNL     1       3.103   1.364   2.674  1.00  0.00    -0.481 OA
ATOM      5  H   UNL     1       2.936   0.564   3.264  1.00  0.00     0.296 HD
ENDBRANCH   2   4
ENDBRANCH   1   2
BRANCH   1   6
ATOM      6  C   UNL     1       6.470   0.326   1.523  1.00  0.00     0.047 C 
BRANCH   6   7
ATOM      7  C   UNL     1       7.020  -0.593   0.524  1.00  0.00    -0.043 A 
ATOM      8  C   UNL     1       6.861  -0.366  -0.834  1.00  0.00     0.008 A 
ATOM      9  C   UNL     1       7.678  -1.731   0.907  1.00  0.00     0.054 A 
ATOM     10  C   UNL     1       7.346  -1.248  -1.774  1.00  0.00     0.051 A 
ATOM     11  C   UNL     1       8.173  -2.630  -0.018  1.00  0.00     0.166 A 
ATOM     12  C   UNL     1       8.009  -2.392  -1.361  1.00  0.00     0.165 A 
ATOM     13  O   UNL     1       8.859  -3.823   0.135  1.00  0.00    -0.454 OA
ATOM     14  O   UNL     1       8.605  -3.459  -2.035  1.00  0.00    -0.454 OA
ATOM     15  C   UNL     1       8.860  -4.506  -1.127  1.00  0.00     0.468 C 
ENDBRANCH   6   7
ENDBRANCH   1   6
TORSDOF 4
ENDMDL
MODEL 5
REMARK VINA RESULT:      -7.4      2.456      2.832
REMARK SMILES O=C(O)CCc1ccc2c(c1)OCO2
REMARK SMILES IDX 4 1 2 2 1 3 3 4 5 6 6 7 7 8 11 9 8 10 10 11 9 12 12 13 14 14
REMARK SMILES IDX 13 15
REMARK H PARENT 3 5
REMARK Flexibility Score: inf
ROOT
ATOM      1  C   UNL     1       5.308   2.788   0.088  1.00  0.00     0.127 C 
ENDROOT
BRANCH   1   2
ATOM      2  C   UNL     1       6.255   3.668   0.756  1.00  0.00     0.303 C 
ATOM      3  O   UNL     1       6.755   4.684   0.269  1.00  0.00    -0.252 OA
BRANCH   2   4
ATOM      4  O   UNL     1       6.632   3.333   2.065  1.00  0.00    -0.481 OA
ATOM      5  H   UNL     1       6.189   2.519   2.463  1.00  0.00     0.296 HD
ENDBRANCH   2   4
ENDBRANCH   1   2
BRANCH   1   6
ATOM      6  C   UNL     1       5.233   1.433   0.674  1.00  0.00     0.047 C 
BRANCH   6   7
ATOM      7  C   UNL     1       6.104   0.401   0.108  1.00  0.00    -0.043 A 
ATOM      8  C   UNL     1       6.391   0.359  -1.248  1.00  0.00     0.008 A 
ATOM      9  C   UNL     1       6.632  -0.583   0.902  1.00  0.00     0.054 A 
ATOM     10  C   UNL     1       7.180  -0.632  -1.787  1.00  0.00     0.051 A 
ATOM     11  C   UNL     1       7.428  -1.587   0.382  1.00  0.00     0.166 A 
ATOM     12  C   UNL     1       7.705  -1.615  -0.963  1.00  0.00     0.165 A 
ATOM     13  O   UNL     1       8.058  -2.662   0.982  1.00  0.00    -0.454 OA
ATOM     14  O   UNL     1       8.518  -2.728  -1.184  1.00  0.00    -0.454 OA
ATOM     15  C   UNL     1       8.491  -3.562  -0.049  1.00  0.00     0.468 C 
ENDBRANCH   6   7
ENDBRANCH   1   6
TORSDOF 4
ENDMDL
