@<TRIPOS>MOLECULE
/home/cewinharhar/GITHUB/reincatalyze/data/processed/docking_pred/2023-May-17-1006_maxeplen10_maxtrainstep1000_seadep16_gamma099_lrac9e-4_lrcr1e-3_sub6/43f74fb3996e866f8c2ebaeff785616509de483e_ligand_6.pdbqt
 15 16 0 0 0
SMALL
GASTEIGER

@<TRIPOS>ATOM
      1  C          5.0720    0.1120    1.9530 C.3     1  UNL1        0.1270
      2  C          4.2330    1.2960    1.8440 C.2     1  UNL1        0.3030
      3  O          4.4290    2.2460    1.0840 O.2     1  UNL1       -0.2520
      4  O          3.1030    1.3640    2.6740 O.3     1  UNL1       -0.4810
      5  H          2.9360    0.5640    3.2640 H       1  UNL1        0.2960
      6  C          6.4700    0.3260    1.5230 C.3     1  UNL1        0.0470
      7  C          7.0200   -0.5930    0.5240 C.2     1  UNL1       -0.0430
      8  C          6.8610   -0.3660   -0.8340 C.2     1  UNL1        0.0080
      9  C          7.6780   -1.7310    0.9070 C.2     1  UNL1        0.0540
     10  C          7.3460   -1.2480   -1.7740 C.2     1  UNL1        0.0510
     11  C          8.1730   -2.6300   -0.0180 C.2     1  UNL1        0.1660
     12  C          8.0090   -2.3920   -1.3610 C.2     1  UNL1        0.1650
     13  O          8.8590   -3.8230    0.1350 O.2     1  UNL1       -0.4540
     14  O          8.6050   -3.4590   -2.0350 O.2     1  UNL1       -0.4540
     15  C          8.8600   -4.5060   -1.1270 C.3     1  UNL1        0.4680
@<TRIPOS>BOND
     1    14    12    1
     2    14    15    1
     3    10    12    2
     4    10     8    1
     5    12    11    1
     6    15    13    1
     7     8     7    2
     8    11    13    1
     9    11     9    2
    10     7     9    1
    11     7     6    1
    12     3     2    2
    13     6     1    1
    14     2     1    1
    15     2     4    1
    16     4     5    1
