@<TRIPOS>MOLECULE
/home/cewinharhar/GITHUB/reincatalyze/data/processed/docking_pred/2023-May-17-1006_maxeplen10_maxtrainstep1000_seadep16_gamma099_lrac9e-4_lrcr1e-3_sub6/43f74fb3996e866f8c2ebaeff785616509de483e_ligand_6.pdbqt
 15 16 0 0 0
SMALL
GASTEIGER

@<TRIPOS>ATOM
      1  C          5.4290    2.8730    0.1660 C.3     1  UNL1        0.1270
      2  C          6.1840    3.8510    0.9330 C.2     1  UNL1        0.3030
      3  O          6.2040    3.9380    2.1620 O.2     1  UNL1       -0.2520
      4  O          6.9590    4.7750    0.2150 O.3     1  UNL1       -0.4810
      5  H          6.8960    5.7360    0.5130 H       1  UNL1        0.2960
      6  C          5.2090    1.5940    0.8740 C.3     1  UNL1        0.0470
      7  C          6.0370    0.4520    0.4810 C.2     1  UNL1       -0.0430
      8  C          6.7990   -0.2430    1.4070 C.2     1  UNL1        0.0080
      9  C          6.1110    0.0590   -0.8290 C.2     1  UNL1        0.0540
     10  C          7.6060   -1.2950    1.0330 C.2     1  UNL1        0.0510
     11  C          6.9130   -0.9940   -1.2270 C.2     1  UNL1        0.1660
     12  C          7.6630   -1.6740   -0.2980 C.2     1  UNL1        0.1650
     13  O          7.1410   -1.5560   -2.4710 O.2     1  UNL1       -0.4540
     14  O          8.3580   -2.6670   -0.9900 O.2     1  UNL1       -0.4540
     15  C          8.2900   -2.4110   -2.3740 C.3     1  UNL1        0.4680
@<TRIPOS>BOND
     1    13    15    1
     2    13    11    1
     3    15    14    1
     4    11     9    1
     5    11    12    2
     6    14    12    1
     7     9     7    2
     8    12    10    1
     9     1     6    1
    10     1     2    1
    11     4     5    1
    12     4     2    1
    13     7     6    1
    14     7     8    1
    15     2     3    2
    16    10     8    2
