@<TRIPOS>MOLECULE
/home/cewinharhar/GITHUB/reincatalyze/data/processed/docking_pred/2023-May-17-1006_maxeplen10_maxtrainstep1000_seadep16_gamma099_lrac9e-4_lrcr1e-3_sub6/43f74fb3996e866f8c2ebaeff785616509de483e_ligand_6.pdbqt
 15 16 0 0 0
SMALL
GASTEIGER

@<TRIPOS>ATOM
      1  C          8.3910   -0.3360   -3.0010 C.3     1  UNL1        0.1270
      2  C          8.5040   -1.7810   -3.1260 C.2     1  UNL1        0.3030
      3  O          9.5500   -2.4270   -3.0490 O.2     1  UNL1       -0.2520
      4  O          7.3220   -2.5020   -3.3530 O.3     1  UNL1       -0.4810
      5  H          7.2540   -2.9780   -4.2390 H       1  UNL1        0.2960
      6  C          8.9170    0.2000   -1.7280 C.3     1  UNL1        0.0470
      7  C          8.0260    0.1800   -0.5650 C.2     1  UNL1       -0.0430
      8  C          8.2510   -0.6710    0.5060 C.2     1  UNL1        0.0080
      9  C          6.9160    0.9810   -0.5210 C.2     1  UNL1        0.0540
     10  C          7.3940   -0.7160    1.5830 C.2     1  UNL1        0.0510
     11  C          6.0430    0.9530    0.5500 C.2     1  UNL1        0.1660
     12  C          6.2780    0.1050    1.6050 C.2     1  UNL1        0.1650
     13  O          4.8800    1.6590    0.8060 O.2     1  UNL1       -0.4540
     14  O          5.2410    0.2990    2.5180 O.2     1  UNL1       -0.4540
     15  C          4.2020    1.0260    1.9020 C.3     1  UNL1        0.4680
@<TRIPOS>BOND
     1     5     4    1
     2     4     2    1
     3     2     3    2
     4     2     1    1
     5     1     6    1
     6     6     7    1
     7     7     9    2
     8     7     8    1
     9     9    11    1
    10     8    10    2
    11    11    13    1
    12    11    12    2
    13    13    15    1
    14    10    12    1
    15    12    14    1
    16    15    14    1
