@<TRIPOS>MOLECULE
/home/cewinharhar/GITHUB/reincatalyze/data/processed/docking_pred/2023-May-17-1006_maxeplen10_maxtrainstep1000_seadep16_gamma099_lrac9e-4_lrcr1e-3_sub6/44bf36be1ccee3462d679cf400989bbed31f99fd_ligand_6.pdbqt
 15 16 0 0 0
SMALL
GASTEIGER

@<TRIPOS>ATOM
      1  C          5.3900    2.7840    0.1810 C.3     1  UNL1        0.1270
      2  C          6.1490    3.7700    0.9340 C.2     1  UNL1        0.3030
      3  O          6.1950    3.8540    2.1630 O.2     1  UNL1       -0.2520
      4  O          6.8940    4.7070    0.2010 O.3     1  UNL1       -0.4810
      5  H          7.3660    4.3570   -0.6180 H       1  UNL1        0.2960
      6  C          5.3880    1.4360    0.7890 C.3     1  UNL1        0.0470
      7  C          6.2170    0.4070    0.1580 C.2     1  UNL1       -0.0430
      8  C          6.4640    0.4110   -1.2060 C.2     1  UNL1        0.0080
      9  C          6.7430   -0.6190    0.8980 C.2     1  UNL1        0.0540
     10  C          7.2130   -0.5760   -1.8060 C.2     1  UNL1        0.0510
     11  C          7.4990   -1.6200    0.3170 C.2     1  UNL1        0.1660
     12  C          7.7360   -1.6020   -1.0360 C.2     1  UNL1        0.1650
     13  O          8.1200   -2.7320    0.8560 O.2     1  UNL1       -0.4540
     14  O          8.5150   -2.7240   -1.3230 O.2     1  UNL1       -0.4540
     15  C          8.5010   -3.6010   -0.2210 C.3     1  UNL1        0.4680
@<TRIPOS>BOND
     1    10     8    1
     2    10    12    2
     3    14    12    1
     4    14    15    1
     5     8     7    2
     6    12    11    1
     7     5     4    1
     8    15    13    1
     9     7     6    1
    10     7     9    1
    11     1     6    1
    12     1     2    1
    13     4     2    1
    14    11    13    1
    15    11     9    2
    16     2     3    2
