MODEL 1
REMARK VINA RESULT:      -7.6      0.000      0.000
REMARK SMILES O=C(O)CCc1ccc2c(c1)OCO2
REMARK SMILES IDX 4 1 2 2 1 3 3 4 5 6 6 7 7 8 11 9 8 10 10 11 9 12 12 13 14 14
REMARK SMILES IDX 13 15
REMARK H PARENT 3 5
REMARK Flexibility Score: inf
ROOT
ATOM      1  C   UNL     1       5.423   2.869   0.115  1.00  0.00     0.127 C 
ENDROOT
BRANCH   1   2
ATOM      2  C   UNL     1       6.254   3.848   0.799  1.00  0.00     0.303 C 
ATOM      3  O   UNL     1       6.917   4.732   0.253  1.00  0.00    -0.252 OA
BRANCH   2   4
ATOM      4  O   UNL     1       6.306   3.783   2.200  1.00  0.00    -0.481 OA
ATOM      5  H   UNL     1       5.872   4.546   2.698  1.00  0.00     0.296 HD
ENDBRANCH   2   4
ENDBRANCH   1   2
BRANCH   1   6
ATOM      6  C   UNL     1       5.355   1.559   0.797  1.00  0.00     0.047 C 
BRANCH   6   7
ATOM      7  C   UNL     1       6.130   0.456   0.224  1.00  0.00    -0.043 A 
ATOM      8  C   UNL     1       6.563  -0.606   1.003  1.00  0.00     0.008 A 
ATOM      9  C   UNL     1       6.483   0.463  -1.099  1.00  0.00     0.054 A 
ATOM     10  C   UNL     1       7.322  -1.625   0.473  1.00  0.00     0.051 A 
ATOM     11  C   UNL     1       7.244  -0.550  -1.652  1.00  0.00     0.166 A 
ATOM     12  C   UNL     1       7.666  -1.597  -0.869  1.00  0.00     0.165 A 
ATOM     13  O   UNL     1       7.712  -0.749  -2.939  1.00  0.00    -0.454 OA
ATOM     14  O   UNL     1       8.403  -2.447  -1.695  1.00  0.00    -0.454 OA
ATOM     15  C   UNL     1       8.705  -1.785  -2.901  1.00  0.00     0.468 C 
ENDBRANCH   6   7
ENDBRANCH   1   6
TORSDOF 4
ENDMDL
MODEL 2
REMARK VINA RESULT:      -7.6      2.128      2.521
REMARK SMILES O=C(O)CCc1ccc2c(c1)OCO2
REMARK SMILES IDX 4 1 2 2 1 3 3 4 5 6 6 7 7 8 11 9 8 10 10 11 9 12 12 13 14 14
REMARK SMILES IDX 13 15
REMARK H PARENT 3 5
REMARK Flexibility Score: inf
ROOT
ATOM      1  C   UNL     1       4.718   1.864   0.703  1.00  0.00     0.127 C 
ENDROOT
BRANCH   1   2
ATOM      2  C   UNL     1       4.418   1.140   1.928  1.00  0.00     0.303 C 
ATOM      3  O   UNL     1       5.152   0.309   2.468  1.00  0.00    -0.252 OA
BRANCH   2   4
ATOM      4  O   UNL     1       3.189   1.408   2.552  1.00  0.00    -0.481 OA
ATOM      5  H   UNL     1       3.139   2.260   3.089  1.00  0.00     0.296 HD
ENDBRANCH   2   4
ENDBRANCH   1   2
BRANCH   1   6
ATOM      6  C   UNL     1       6.144   2.223   0.551  1.00  0.00     0.047 C 
BRANCH   6   7
ATOM      7  C   UNL     1       6.991   1.317  -0.227  1.00  0.00    -0.043 A 
ATOM      8  C   UNL     1       8.352   1.540  -0.369  1.00  0.00     0.008 A 
ATOM      9  C   UNL     1       6.452   0.236  -0.874  1.00  0.00     0.054 A 
ATOM     10  C   UNL     1       9.143   0.709  -1.131  1.00  0.00     0.051 A 
ATOM     11  C   UNL     1       7.227  -0.611  -1.642  1.00  0.00     0.166 A 
ATOM     12  C   UNL     1       8.575  -0.378  -1.774  1.00  0.00     0.165 A 
ATOM     13  O   UNL     1       6.905  -1.743  -2.372  1.00  0.00    -0.454 OA
ATOM     14  O   UNL     1       9.079  -1.386  -2.597  1.00  0.00    -0.454 OA
ATOM     15  C   UNL     1       8.013  -2.056  -3.229  1.00  0.00     0.468 C 
ENDBRANCH   6   7
ENDBRANCH   1   6
TORSDOF 4
ENDMDL
MODEL 3
REMARK VINA RESULT:      -7.5      1.972      2.877
REMARK SMILES O=C(O)CCc1ccc2c(c1)OCO2
REMARK SMILES IDX 4 1 2 2 1 3 3 4 5 6 6 7 7 8 11 9 8 10 10 11 9 12 12 13 14 14
REMARK SMILES IDX 13 15
REMARK H PARENT 3 5
REMARK Flexibility Score: inf
ROOT
ATOM      1  C   UNL     1       6.388   1.299   0.708  1.00  0.00     0.127 C 
ENDROOT
BRANCH   1   2
ATOM      2  C   UNL     1       5.160   1.278   1.488  1.00  0.00     0.303 C 
ATOM      3  O   UNL     1       4.237   2.088   1.393  1.00  0.00    -0.252 OA
BRANCH   2   4
ATOM      4  O   UNL     1       5.013   0.247   2.429  1.00  0.00    -0.481 OA
ATOM      5  H   UNL     1       4.070   0.049   2.728  1.00  0.00     0.296 HD
ENDBRANCH   2   4
ENDBRANCH   1   2
BRANCH   1   6
ATOM      6  C   UNL     1       6.214   0.872  -0.697  1.00  0.00     0.047 C 
BRANCH   6   7
ATOM      7  C   UNL     1       6.969  -0.299  -1.148  1.00  0.00    -0.043 A 
ATOM      8  C   UNL     1       7.287  -0.485  -2.484  1.00  0.00     0.008 A 
ATOM      9  C   UNL     1       7.351  -1.269  -0.261  1.00  0.00     0.054 A 
ATOM     10  C   UNL     1       7.966  -1.603  -2.915  1.00  0.00     0.051 A 
ATOM     11  C   UNL     1       8.033  -2.400  -0.670  1.00  0.00     0.166 A 
ATOM     12  C   UNL     1       8.343  -2.571  -1.998  1.00  0.00     0.165 A 
ATOM     13  O   UNL     1       8.511  -3.490   0.036  1.00  0.00    -0.454 OA
ATOM     14  O   UNL     1       9.021  -3.786  -2.100  1.00  0.00    -0.454 OA
ATOM     15  C   UNL     1       8.861  -4.516  -0.906  1.00  0.00     0.468 C 
ENDBRANCH   6   7
ENDBRANCH   1   6
TORSDOF 4
ENDMDL
MODEL 4
REMARK VINA RESULT:      -7.4      0.938      2.105
REMARK SMILES O=C(O)CCc1ccc2c(c1)OCO2
REMARK SMILES IDX 4 1 2 2 1 3 3 4 5 6 6 7 7 8 11 9 8 10 10 11 9 12 12 13 14 14
REMARK SMILES IDX 13 15
REMARK H PARENT 3 5
REMARK Flexibility Score: inf
ROOT
ATOM      1  C   UNL     1       5.390   2.784   0.181  1.00  0.00     0.127 C 
ENDROOT
BRANCH   1   2
ATOM      2  C   UNL     1       6.149   3.770   0.934  1.00  0.00     0.303 C 
ATOM      3  O   UNL     1       6.195   3.854   2.163  1.00  0.00    -0.252 OA
BRANCH   2   4
ATOM      4  O   UNL     1       6.894   4.707   0.201  1.00  0.00    -0.481 OA
ATOM      5  H   UNL     1       7.366   4.357  -0.618  1.00  0.00     0.296 HD
ENDBRANCH   2   4
ENDBRANCH   1   2
BRANCH   1   6
ATOM      6  C   UNL     1       5.388   1.436   0.789  1.00  0.00     0.047 C 
BRANCH   6   7
ATOM      7  C   UNL     1       6.217   0.407   0.158  1.00  0.00    -0.043 A 
ATOM      8  C   UNL     1       6.464   0.411  -1.206  1.00  0.00     0.008 A 
ATOM      9  C   UNL     1       6.743  -0.619   0.898  1.00  0.00     0.054 A 
ATOM     10  C   UNL     1       7.213  -0.576  -1.806  1.00  0.00     0.051 A 
ATOM     11  C   UNL     1       7.499  -1.620   0.317  1.00  0.00     0.166 A 
ATOM     12  C   UNL     1       7.736  -1.602  -1.036  1.00  0.00     0.165 A 
ATOM     13  O   UNL     1       8.120  -2.732   0.856  1.00  0.00    -0.454 OA
ATOM     14  O   UNL     1       8.515  -2.724  -1.323  1.00  0.00    -0.454 OA
ATOM     15  C   UNL     1       8.501  -3.601  -0.221  1.00  0.00     0.468 C 
ENDBRANCH   6   7
ENDBRANCH   1   6
TORSDOF 4
ENDMDL
MODEL 5
REMARK VINA RESULT:      -7.4      1.790      5.282
REMARK SMILES O=C(O)CCc1ccc2c(c1)OCO2
REMARK SMILES IDX 4 1 2 2 1 3 3 4 5 6 6 7 7 8 11 9 8 10 10 11 9 12 12 13 14 14
REMARK SMILES IDX 13 15
REMARK H PARENT 3 5
REMARK Flexibility Score: inf
ROOT
ATOM      1  C   UNL     1       8.305  -0.316  -2.866  1.00  0.00     0.127 C 
ENDROOT
BRANCH   1   2
ATOM      2  C   UNL     1       8.466  -1.746  -3.074  1.00  0.00     0.303 C 
ATOM      3  O   UNL     1       9.533  -2.362  -3.029  1.00  0.00    -0.252 OA
BRANCH   2   4
ATOM      4  O   UNL     1       7.309  -2.491  -3.351  1.00  0.00    -0.481 OA
ATOM      5  H   UNL     1       7.146  -2.717  -4.320  1.00  0.00     0.296 HD
ENDBRANCH   2   4
ENDBRANCH   1   2
BRANCH   1   6
ATOM      6  C   UNL     1       8.751   0.152  -1.537  1.00  0.00     0.047 C 
BRANCH   6   7
ATOM      7  C   UNL     1       7.780   0.105  -0.441  1.00  0.00    -0.043 A 
ATOM      8  C   UNL     1       7.725  -0.969   0.433  1.00  0.00     0.008 A 
ATOM      9  C   UNL     1       6.868   1.112  -0.272  1.00  0.00     0.054 A 
ATOM     10  C   UNL     1       6.789  -1.031   1.441  1.00  0.00     0.051 A 
ATOM     11  C   UNL     1       5.920   1.072   0.733  1.00  0.00     0.166 A 
ATOM     12  C   UNL     1       5.877   0.001   1.593  1.00  0.00     0.165 A 
ATOM     13  O   UNL     1       4.918   1.958   1.087  1.00  0.00    -0.454 OA
ATOM     14  O   UNL     1       4.830   0.241   2.484  1.00  0.00    -0.454 OA
ATOM     15  C   UNL     1       4.028   1.292   1.996  1.00  0.00     0.468 C 
ENDBRANCH   6   7
ENDBRANCH   1   6
TORSDOF 4
ENDMDL
