@<TRIPOS>MOLECULE
/home/cewinharhar/GITHUB/reincatalyze/data/processed/docking_pred/2023-May-17-1006_maxeplen10_maxtrainstep1000_seadep16_gamma099_lrac9e-4_lrcr1e-3_sub6/44bf36be1ccee3462d679cf400989bbed31f99fd_ligand_6.pdbqt
 15 16 0 0 0
SMALL
GASTEIGER

@<TRIPOS>ATOM
      1  C          5.4230    2.8690    0.1150 C.3     1  UNL1        0.1270
      2  C          6.2540    3.8480    0.7990 C.2     1  UNL1        0.3030
      3  O          6.9170    4.7320    0.2530 O.2     1  UNL1       -0.2520
      4  O          6.3060    3.7830    2.2000 O.3     1  UNL1       -0.4810
      5  H          5.8720    4.5460    2.6980 H       1  UNL1        0.2960
      6  C          5.3550    1.5590    0.7970 C.3     1  UNL1        0.0470
      7  C          6.1300    0.4560    0.2240 C.2     1  UNL1       -0.0430
      8  C          6.5630   -0.6060    1.0030 C.2     1  UNL1        0.0080
      9  C          6.4830    0.4630   -1.0990 C.2     1  UNL1        0.0540
     10  C          7.3220   -1.6250    0.4730 C.2     1  UNL1        0.0510
     11  C          7.2440   -0.5500   -1.6520 C.2     1  UNL1        0.1660
     12  C          7.6660   -1.5970   -0.8690 C.2     1  UNL1        0.1650
     13  O          7.7120   -0.7490   -2.9390 O.2     1  UNL1       -0.4540
     14  O          8.4030   -2.4470   -1.6950 O.2     1  UNL1       -0.4540
     15  C          8.7050   -1.7850   -2.9010 C.3     1  UNL1        0.4680
@<TRIPOS>BOND
     1    13    15    1
     2    13    11    1
     3    15    14    1
     4    14    12    1
     5    11     9    1
     6    11    12    2
     7     9     7    2
     8    12    10    1
     9     1     6    1
    10     1     2    1
    11     7     6    1
    12     7     8    1
    13     3     2    2
    14    10     8    2
    15     2     4    1
    16     4     5    1
