@<TRIPOS>MOLECULE
/home/cewinharhar/GITHUB/reincatalyze/data/processed/docking_pred/2023-May-17-1006_maxeplen10_maxtrainstep1000_seadep16_gamma099_lrac9e-4_lrcr1e-3_sub6/44bf36be1ccee3462d679cf400989bbed31f99fd_ligand_6.pdbqt
 15 16 0 0 0
SMALL
GASTEIGER

@<TRIPOS>ATOM
      1  C          6.3880    1.2990    0.7080 C.3     1  UNL1        0.1270
      2  C          5.1600    1.2780    1.4880 C.2     1  UNL1        0.3030
      3  O          4.2370    2.0880    1.3930 O.2     1  UNL1       -0.2520
      4  O          5.0130    0.2470    2.4290 O.3     1  UNL1       -0.4810
      5  H          4.0700    0.0490    2.7280 H       1  UNL1        0.2960
      6  C          6.2140    0.8720   -0.6970 C.3     1  UNL1        0.0470
      7  C          6.9690   -0.2990   -1.1480 C.2     1  UNL1       -0.0430
      8  C          7.2870   -0.4850   -2.4840 C.2     1  UNL1        0.0080
      9  C          7.3510   -1.2690   -0.2610 C.2     1  UNL1        0.0540
     10  C          7.9660   -1.6030   -2.9150 C.2     1  UNL1        0.0510
     11  C          8.0330   -2.4000   -0.6700 C.2     1  UNL1        0.1660
     12  C          8.3430   -2.5710   -1.9980 C.2     1  UNL1        0.1650
     13  O          8.5110   -3.4900    0.0360 O.2     1  UNL1       -0.4540
     14  O          9.0210   -3.7860   -2.1000 O.2     1  UNL1       -0.4540
     15  C          8.8610   -4.5160   -0.9060 C.3     1  UNL1        0.4680
@<TRIPOS>BOND
     1    10     8    1
     2    10    12    2
     3     8     7    2
     4    14    12    1
     5    14    15    1
     6    12    11    1
     7     7     6    1
     8     7     9    1
     9    15    13    1
    10     6     1    1
    11    11     9    2
    12    11    13    1
    13     1     2    1
    14     3     2    2
    15     2     4    1
    16     4     5    1
