@<TRIPOS>MOLECULE
/home/cewinharhar/GITHUB/reincatalyze/data/processed/docking_pred/2023-May-17-1006_maxeplen10_maxtrainstep1000_seadep16_gamma099_lrac9e-4_lrcr1e-3_sub6/44bf36be1ccee3462d679cf400989bbed31f99fd_ligand_6.pdbqt
 15 16 0 0 0
SMALL
GASTEIGER

@<TRIPOS>ATOM
      1  C          8.3050   -0.3160   -2.8660 C.3     1  UNL1        0.1270
      2  C          8.4660   -1.7460   -3.0740 C.2     1  UNL1        0.3030
      3  O          9.5330   -2.3620   -3.0290 O.2     1  UNL1       -0.2520
      4  O          7.3090   -2.4910   -3.3510 O.3     1  UNL1       -0.4810
      5  H          7.1460   -2.7170   -4.3200 H       1  UNL1        0.2960
      6  C          8.7510    0.1520   -1.5370 C.3     1  UNL1        0.0470
      7  C          7.7800    0.1050   -0.4410 C.2     1  UNL1       -0.0430
      8  C          7.7250   -0.9690    0.4330 C.2     1  UNL1        0.0080
      9  C          6.8680    1.1120   -0.2720 C.2     1  UNL1        0.0540
     10  C          6.7890   -1.0310    1.4410 C.2     1  UNL1        0.0510
     11  C          5.9200    1.0720    0.7330 C.2     1  UNL1        0.1660
     12  C          5.8770    0.0010    1.5930 C.2     1  UNL1        0.1650
     13  O          4.9180    1.9580    1.0870 O.2     1  UNL1       -0.4540
     14  O          4.8300    0.2410    2.4840 O.2     1  UNL1       -0.4540
     15  C          4.0280    1.2920    1.9960 C.3     1  UNL1        0.4680
@<TRIPOS>BOND
     1     5     4    1
     2     4     2    1
     3     2     3    2
     4     2     1    1
     5     1     6    1
     6     6     7    1
     7     7     9    2
     8     7     8    1
     9     9    11    1
    10     8    10    2
    11    11    13    1
    12    11    12    2
    13    13    15    1
    14    10    12    1
    15    12    14    1
    16    15    14    1
