MODEL 1
REMARK VINA RESULT:      -7.6      0.000      0.000
REMARK SMILES O=C(O)CCc1ccc2c(c1)OCO2
REMARK SMILES IDX 4 1 2 2 1 3 3 4 5 6 6 7 7 8 11 9 8 10 10 11 9 12 12 13 14 14
REMARK SMILES IDX 13 15
REMARK H PARENT 3 5
REMARK Flexibility Score: inf
ROOT
ATOM      1  C   UNL     1       5.410   2.871   0.141  1.00  0.00     0.127 C 
ENDROOT
BRANCH   1   2
ATOM      2  C   UNL     1       6.244   3.849   0.822  1.00  0.00     0.303 C 
ATOM      3  O   UNL     1       6.864   4.765   0.279  1.00  0.00    -0.252 OA
BRANCH   2   4
ATOM      4  O   UNL     1       6.353   3.742   2.218  1.00  0.00    -0.481 OA
ATOM      5  H   UNL     1       5.831   4.415   2.758  1.00  0.00     0.296 HD
ENDBRANCH   2   4
ENDBRANCH   1   2
BRANCH   1   6
ATOM      6  C   UNL     1       5.330   1.566   0.831  1.00  0.00     0.047 C 
BRANCH   6   7
ATOM      7  C   UNL     1       6.109   0.457   0.275  1.00  0.00    -0.043 A 
ATOM      8  C   UNL     1       6.582  -0.570   1.077  1.00  0.00     0.008 A 
ATOM      9  C   UNL     1       6.427   0.424  -1.057  1.00  0.00     0.054 A 
ATOM     10  C   UNL     1       7.345  -1.594   0.562  1.00  0.00     0.051 A 
ATOM     11  C   UNL     1       7.191  -0.594  -1.595  1.00  0.00     0.166 A 
ATOM     12  C   UNL     1       7.652  -1.606  -0.789  1.00  0.00     0.165 A 
ATOM     13  O   UNL     1       7.628  -0.831  -2.887  1.00  0.00    -0.454 OA
ATOM     14  O   UNL     1       8.382  -2.472  -1.605  1.00  0.00    -0.454 OA
ATOM     15  C   UNL     1       8.640  -1.847  -2.841  1.00  0.00     0.468 C 
ENDBRANCH   6   7
ENDBRANCH   1   6
TORSDOF 4
ENDMDL
MODEL 2
REMARK VINA RESULT:      -7.5      2.126      2.514
REMARK SMILES O=C(O)CCc1ccc2c(c1)OCO2
REMARK SMILES IDX 4 1 2 2 1 3 3 4 5 6 6 7 7 8 11 9 8 10 10 11 9 12 12 13 14 14
REMARK SMILES IDX 13 15
REMARK H PARENT 3 5
REMARK Flexibility Score: inf
ROOT
ATOM      1  C   UNL     1       4.708   1.891   0.684  1.00  0.00     0.127 C 
ENDROOT
BRANCH   1   2
ATOM      2  C   UNL     1       4.418   1.169   1.913  1.00  0.00     0.303 C 
ATOM      3  O   UNL     1       5.160   0.346   2.453  1.00  0.00    -0.252 OA
BRANCH   2   4
ATOM      4  O   UNL     1       3.189   1.429   2.539  1.00  0.00    -0.481 OA
ATOM      5  H   UNL     1       2.380   0.980   2.136  1.00  0.00     0.296 HD
ENDBRANCH   2   4
ENDBRANCH   1   2
BRANCH   1   6
ATOM      6  C   UNL     1       6.132   2.254   0.523  1.00  0.00     0.047 C 
BRANCH   6   7
ATOM      7  C   UNL     1       6.981   1.342  -0.245  1.00  0.00    -0.043 A 
ATOM      8  C   UNL     1       8.344   1.557  -0.376  1.00  0.00     0.008 A 
ATOM      9  C   UNL     1       6.442   0.262  -0.894  1.00  0.00     0.054 A 
ATOM     10  C   UNL     1       9.138   0.720  -1.128  1.00  0.00     0.051 A 
ATOM     11  C   UNL     1       7.219  -0.592  -1.653  1.00  0.00     0.166 A 
ATOM     12  C   UNL     1       8.569  -0.366  -1.773  1.00  0.00     0.165 A 
ATOM     13  O   UNL     1       6.897  -1.723  -2.382  1.00  0.00    -0.454 OA
ATOM     14  O   UNL     1       9.075  -1.379  -2.589  1.00  0.00    -0.454 OA
ATOM     15  C   UNL     1       8.011  -2.045  -3.228  1.00  0.00     0.468 C 
ENDBRANCH   6   7
ENDBRANCH   1   6
TORSDOF 4
ENDMDL
MODEL 3
REMARK VINA RESULT:      -7.5      1.967      2.880
REMARK SMILES O=C(O)CCc1ccc2c(c1)OCO2
REMARK SMILES IDX 4 1 2 2 1 3 3 4 5 6 6 7 7 8 11 9 8 10 10 11 9 12 12 13 14 14
REMARK SMILES IDX 13 15
REMARK H PARENT 3 5
REMARK Flexibility Score: inf
ROOT
ATOM      1  C   UNL     1       6.402   1.308   0.662  1.00  0.00     0.127 C 
ENDROOT
BRANCH   1   2
ATOM      2  C   UNL     1       5.188   1.315   1.463  1.00  0.00     0.303 C 
ATOM      3  O   UNL     1       4.256   2.113   1.346  1.00  0.00    -0.252 OA
BRANCH   2   4
ATOM      4  O   UNL     1       5.064   0.329   2.455  1.00  0.00    -0.481 OA
ATOM      5  H   UNL     1       4.128   0.138   2.779  1.00  0.00     0.296 HD
ENDBRANCH   2   4
ENDBRANCH   1   2
BRANCH   1   6
ATOM      6  C   UNL     1       6.206   0.826  -0.721  1.00  0.00     0.047 C 
BRANCH   6   7
ATOM      7  C   UNL     1       6.956  -0.361  -1.138  1.00  0.00    -0.043 A 
ATOM      8  C   UNL     1       7.232  -0.612  -2.473  1.00  0.00     0.008 A 
ATOM      9  C   UNL     1       7.375  -1.283  -0.216  1.00  0.00     0.054 A 
ATOM     10  C   UNL     1       7.906  -1.746  -2.869  1.00  0.00     0.051 A 
ATOM     11  C   UNL     1       8.054  -2.428  -0.590  1.00  0.00     0.166 A 
ATOM     12  C   UNL     1       8.322  -2.663  -1.917  1.00  0.00     0.165 A 
ATOM     13  O   UNL     1       8.564  -3.478   0.153  1.00  0.00    -0.454 OA
ATOM     14  O   UNL     1       9.006  -3.878  -1.980  1.00  0.00    -0.454 OA
ATOM     15  C   UNL     1       8.891  -4.548  -0.746  1.00  0.00     0.468 C 
ENDBRANCH   6   7
ENDBRANCH   1   6
TORSDOF 4
ENDMDL
MODEL 4
REMARK VINA RESULT:      -7.4      1.788      5.277
REMARK SMILES O=C(O)CCc1ccc2c(c1)OCO2
REMARK SMILES IDX 4 1 2 2 1 3 3 4 5 6 6 7 7 8 11 9 8 10 10 11 9 12 12 13 14 14
REMARK SMILES IDX 13 15
REMARK H PARENT 3 5
REMARK Flexibility Score: inf
ROOT
ATOM      1  C   UNL     1       8.320  -0.325  -2.849  1.00  0.00     0.127 C 
ENDROOT
BRANCH   1   2
ATOM      2  C   UNL     1       8.477  -1.754  -3.073  1.00  0.00     0.303 C 
ATOM      3  O   UNL     1       9.544  -2.370  -3.053  1.00  0.00    -0.252 OA
BRANCH   2   4
ATOM      4  O   UNL     1       7.315  -2.496  -3.334  1.00  0.00    -0.481 OA
ATOM      5  H   UNL     1       6.921  -2.996  -2.552  1.00  0.00     0.296 HD
ENDBRANCH   2   4
ENDBRANCH   1   2
BRANCH   1   6
ATOM      6  C   UNL     1       8.780   0.128  -1.518  1.00  0.00     0.047 C 
BRANCH   6   7
ATOM      7  C   UNL     1       7.814   0.089  -0.419  1.00  0.00    -0.043 A 
ATOM      8  C   UNL     1       7.760  -0.981   0.462  1.00  0.00     0.008 A 
ATOM      9  C   UNL     1       6.903   1.098  -0.251  1.00  0.00     0.054 A 
ATOM     10  C   UNL     1       6.829  -1.035   1.474  1.00  0.00     0.051 A 
ATOM     11  C   UNL     1       5.960   1.065   0.759  1.00  0.00     0.166 A 
ATOM     12  C   UNL     1       5.919  -0.001   1.624  1.00  0.00     0.165 A 
ATOM     13  O   UNL     1       4.961   1.955   1.112  1.00  0.00    -0.454 OA
ATOM     14  O   UNL     1       4.877   0.246   2.519  1.00  0.00    -0.454 OA
ATOM     15  C   UNL     1       4.075   1.295   2.029  1.00  0.00     0.468 C 
ENDBRANCH   6   7
ENDBRANCH   1   6
TORSDOF 4
ENDMDL
