@<TRIPOS>MOLECULE
/home/cewinharhar/GITHUB/reincatalyze/data/processed/docking_pred/2023-May-17-1006_maxeplen10_maxtrainstep1000_seadep16_gamma099_lrac9e-4_lrcr1e-3_sub6/46824fcf52dc560be674bfd6df7e039c48ea1670_ligand_6.pdbqt
 15 16 0 0 0
SMALL
GASTEIGER

@<TRIPOS>ATOM
      1  C          6.4020    1.3080    0.6620 C.3     1  UNL1        0.1270
      2  C          5.1880    1.3150    1.4630 C.2     1  UNL1        0.3030
      3  O          4.2560    2.1130    1.3460 O.2     1  UNL1       -0.2520
      4  O          5.0640    0.3290    2.4550 O.3     1  UNL1       -0.4810
      5  H          4.1280    0.1380    2.7790 H       1  UNL1        0.2960
      6  C          6.2060    0.8260   -0.7210 C.3     1  UNL1        0.0470
      7  C          6.9560   -0.3610   -1.1380 C.2     1  UNL1       -0.0430
      8  C          7.2320   -0.6120   -2.4730 C.2     1  UNL1        0.0080
      9  C          7.3750   -1.2830   -0.2160 C.2     1  UNL1        0.0540
     10  C          7.9060   -1.7460   -2.8690 C.2     1  UNL1        0.0510
     11  C          8.0540   -2.4280   -0.5900 C.2     1  UNL1        0.1660
     12  C          8.3220   -2.6630   -1.9170 C.2     1  UNL1        0.1650
     13  O          8.5640   -3.4780    0.1530 O.2     1  UNL1       -0.4540
     14  O          9.0060   -3.8780   -1.9800 O.2     1  UNL1       -0.4540
     15  C          8.8910   -4.5480   -0.7460 C.3     1  UNL1        0.4680
@<TRIPOS>BOND
     1    10     8    1
     2    10    12    2
     3     8     7    2
     4    14    12    1
     5    14    15    1
     6    12    11    1
     7     7     6    1
     8     7     9    1
     9    15    13    1
    10     6     1    1
    11    11     9    2
    12    11    13    1
    13     1     2    1
    14     3     2    2
    15     2     4    1
    16     4     5    1
