@<TRIPOS>MOLECULE
/home/cewinharhar/GITHUB/reincatalyze/data/processed/docking_pred/2023-May-17-1006_maxeplen10_maxtrainstep1000_seadep16_gamma099_lrac9e-4_lrcr1e-3_sub6/46824fcf52dc560be674bfd6df7e039c48ea1670_ligand_6.pdbqt
 15 16 0 0 0
SMALL
GASTEIGER

@<TRIPOS>ATOM
      1  C          8.3200   -0.3250   -2.8490 C.3     1  UNL1        0.1270
      2  C          8.4770   -1.7540   -3.0730 C.2     1  UNL1        0.3030
      3  O          9.5440   -2.3700   -3.0530 O.2     1  UNL1       -0.2520
      4  O          7.3150   -2.4960   -3.3340 O.3     1  UNL1       -0.4810
      5  H          6.9210   -2.9960   -2.5520 H       1  UNL1        0.2960
      6  C          8.7800    0.1280   -1.5180 C.3     1  UNL1        0.0470
      7  C          7.8140    0.0890   -0.4190 C.2     1  UNL1       -0.0430
      8  C          7.7600   -0.9810    0.4620 C.2     1  UNL1        0.0080
      9  C          6.9030    1.0980   -0.2510 C.2     1  UNL1        0.0540
     10  C          6.8290   -1.0350    1.4740 C.2     1  UNL1        0.0510
     11  C          5.9600    1.0650    0.7590 C.2     1  UNL1        0.1660
     12  C          5.9190   -0.0010    1.6240 C.2     1  UNL1        0.1650
     13  O          4.9610    1.9550    1.1120 O.2     1  UNL1       -0.4540
     14  O          4.8770    0.2460    2.5190 O.2     1  UNL1       -0.4540
     15  C          4.0750    1.2950    2.0290 C.3     1  UNL1        0.4680
@<TRIPOS>BOND
     1     4     2    1
     2     4     5    1
     3     2     3    2
     4     2     1    1
     5     1     6    1
     6     6     7    1
     7     7     9    2
     8     7     8    1
     9     9    11    1
    10     8    10    2
    11    11    13    1
    12    11    12    2
    13    13    15    1
    14    10    12    1
    15    12    14    1
    16    15    14    1
