@<TRIPOS>MOLECULE
/home/cewinharhar/GITHUB/reincatalyze/data/processed/docking_pred/2023-May-17-1006_maxeplen10_maxtrainstep1000_seadep16_gamma099_lrac9e-4_lrcr1e-3_sub6/46824fcf52dc560be674bfd6df7e039c48ea1670_ligand_6.pdbqt
 15 16 0 0 0
SMALL
GASTEIGER

@<TRIPOS>ATOM
      1  C          4.7080    1.8910    0.6840 C.3     1  UNL1        0.1270
      2  C          4.4180    1.1690    1.9130 C.2     1  UNL1        0.3030
      3  O          5.1600    0.3460    2.4530 O.2     1  UNL1       -0.2520
      4  O          3.1890    1.4290    2.5390 O.3     1  UNL1       -0.4810
      5  H          2.3800    0.9800    2.1360 H       1  UNL1        0.2960
      6  C          6.1320    2.2540    0.5230 C.3     1  UNL1        0.0470
      7  C          6.9810    1.3420   -0.2450 C.2     1  UNL1       -0.0430
      8  C          8.3440    1.5570   -0.3760 C.2     1  UNL1        0.0080
      9  C          6.4420    0.2620   -0.8940 C.2     1  UNL1        0.0540
     10  C          9.1380    0.7200   -1.1280 C.2     1  UNL1        0.0510
     11  C          7.2190   -0.5920   -1.6530 C.2     1  UNL1        0.1660
     12  C          8.5690   -0.3660   -1.7730 C.2     1  UNL1        0.1650
     13  O          6.8970   -1.7230   -2.3820 O.2     1  UNL1       -0.4540
     14  O          9.0750   -1.3790   -2.5890 O.2     1  UNL1       -0.4540
     15  C          8.0110   -2.0450   -3.2280 C.3     1  UNL1        0.4680
@<TRIPOS>BOND
     1    15    14    1
     2    15    13    1
     3    14    12    1
     4    13    11    1
     5    12    11    2
     6    12    10    1
     7    11     9    1
     8    10     8    2
     9     9     7    2
    10     8     7    1
    11     7     6    1
    12     6     1    1
    13     1     2    1
    14     2     3    2
    15     2     4    1
    16     5     4    1
