@<TRIPOS>MOLECULE
/home/cewinharhar/GITHUB/reincatalyze/data/processed/docking_pred/2023-May-17-1006_maxeplen10_maxtrainstep1000_seadep16_gamma099_lrac9e-4_lrcr1e-3_sub6/46861e00ed193d15618049a480e2ca269f83ce14_ligand_6.pdbqt
 15 16 0 0 0
SMALL
GASTEIGER

@<TRIPOS>ATOM
      1  C          5.4160    2.8800    0.1110 C.3     1  UNL1        0.1270
      2  C          6.2370    3.8580    0.8070 C.2     1  UNL1        0.3030
      3  O          6.8680    4.7730    0.2750 O.2     1  UNL1       -0.2520
      4  O          6.3220    3.7510    2.2040 O.3     1  UNL1       -0.4810
      5  H          5.6680    3.1220    2.6430 H       1  UNL1        0.2960
      6  C          5.3440    1.5670    0.7870 C.3     1  UNL1        0.0470
      7  C          6.1270    0.4680    0.2180 C.2     1  UNL1       -0.0430
      8  C          6.5890   -0.5760    1.0040 C.2     1  UNL1        0.0080
      9  C          6.4610    0.4610   -1.1110 C.2     1  UNL1        0.0540
     10  C          7.3560   -1.5910    0.4770 C.2     1  UNL1        0.0510
     11  C          7.2290   -0.5470   -1.6610 C.2     1  UNL1        0.1660
     12  C          7.6790   -1.5760   -0.8700 C.2     1  UNL1        0.1650
     13  O          7.6800   -0.7580   -2.9530 O.2     1  UNL1       -0.4540
     14  O          8.4160   -2.4270   -1.6960 O.2     1  UNL1       -0.4540
     15  C          8.6900   -1.7770   -2.9150 C.3     1  UNL1        0.4680
@<TRIPOS>BOND
     1    13    15    1
     2    13    11    1
     3    15    14    1
     4    14    12    1
     5    11     9    1
     6    11    12    2
     7     9     7    2
     8    12    10    1
     9     1     6    1
    10     1     2    1
    11     7     6    1
    12     7     8    1
    13     3     2    2
    14    10     8    2
    15     2     4    1
    16     4     5    1
