@<TRIPOS>MOLECULE
/home/cewinharhar/GITHUB/reincatalyze/data/processed/docking_pred/2023-May-17-1006_maxeplen10_maxtrainstep1000_seadep16_gamma099_lrac9e-4_lrcr1e-3_sub6/46861e00ed193d15618049a480e2ca269f83ce14_ligand_6.pdbqt
 15 16 0 0 0
SMALL
GASTEIGER

@<TRIPOS>ATOM
      1  C          4.7140    1.8770    0.7000 C.3     1  UNL1        0.1270
      2  C          4.4130    1.1530    1.9260 C.2     1  UNL1        0.3030
      3  O          5.1470    0.3230    2.4660 O.2     1  UNL1       -0.2520
      4  O          3.1840    1.4210    2.5470 O.3     1  UNL1       -0.4810
      5  H          2.5760    2.0680    2.0710 H       1  UNL1        0.2960
      6  C          6.1400    2.2370    0.5500 C.3     1  UNL1        0.0470
      7  C          6.9890    1.3310   -0.2260 C.2     1  UNL1       -0.0430
      8  C          8.3490    1.5590   -0.3720 C.2     1  UNL1        0.0080
      9  C          6.4530    0.2450   -0.8660 C.2     1  UNL1        0.0540
     10  C          9.1420    0.7280   -1.1310 C.2     1  UNL1        0.0510
     11  C          7.2300   -0.6030   -1.6320 C.2     1  UNL1        0.1660
     12  C          8.5770   -0.3650   -1.7680 C.2     1  UNL1        0.1650
     13  O          6.9120   -1.7400   -2.3550 O.2     1  UNL1       -0.4540
     14  O          9.0840   -1.3740   -2.5870 O.2     1  UNL1       -0.4540
     15  C          8.0190   -2.0520   -3.2130 C.3     1  UNL1        0.4680
@<TRIPOS>BOND
     1    15    14    1
     2    15    13    1
     3    14    12    1
     4    13    11    1
     5    12    11    2
     6    12    10    1
     7    11     9    1
     8    10     8    2
     9     9     7    2
    10     8     7    1
    11     7     6    1
    12     6     1    1
    13     1     2    1
    14     2     3    2
    15     2     4    1
    16     5     4    1
