@<TRIPOS>MOLECULE
/home/cewinharhar/GITHUB/reincatalyze/data/processed/docking_pred/2023-May-17-1006_maxeplen10_maxtrainstep1000_seadep16_gamma099_lrac9e-4_lrcr1e-3_sub6/46861e00ed193d15618049a480e2ca269f83ce14_ligand_6.pdbqt
 15 16 0 0 0
SMALL
GASTEIGER

@<TRIPOS>ATOM
      1  C          6.3860    1.2940    0.6480 C.3     1  UNL1        0.1270
      2  C          5.1730    1.3000    1.4510 C.2     1  UNL1        0.3030
      3  O          4.2530    2.1140    1.3530 O.2     1  UNL1       -0.2520
      4  O          5.0360    0.2930    2.4190 O.3     1  UNL1       -0.4810
      5  H          5.6390   -0.5080    2.3170 H       1  UNL1        0.2960
      6  C          6.1910    0.8000   -0.7310 C.3     1  UNL1        0.0470
      7  C          6.9610   -0.3750   -1.1460 C.2     1  UNL1       -0.0430
      8  C          7.2810   -0.6000   -2.4760 C.2     1  UNL1        0.0080
      9  C          7.3550   -1.3120   -0.2280 C.2     1  UNL1        0.0540
     10  C          7.9730   -1.7230   -2.8710 C.2     1  UNL1        0.0510
     11  C          8.0510   -2.4460   -0.6020 C.2     1  UNL1        0.1660
     12  C          8.3630   -2.6560   -1.9240 C.2     1  UNL1        0.1650
     13  O          8.5430   -3.5080    0.1380 O.2     1  UNL1       -0.4540
     14  O          9.0560   -3.8650   -1.9880 O.2     1  UNL1       -0.4540
     15  C          8.9050   -4.5590   -0.7710 C.3     1  UNL1        0.4680
@<TRIPOS>BOND
     1    10     8    1
     2    10    12    2
     3     8     7    2
     4    14    12    1
     5    14    15    1
     6    12    11    1
     7     7     6    1
     8     7     9    1
     9    15    13    1
    10     6     1    1
    11    11     9    2
    12    11    13    1
    13     1     2    1
    14     3     2    2
    15     2     4    1
    16     5     4    1
