@<TRIPOS>MOLECULE
/home/cewinharhar/GITHUB/reincatalyze/data/processed/docking_pred/2023-May-17-1006_maxeplen10_maxtrainstep1000_seadep16_gamma099_lrac9e-4_lrcr1e-3_sub6/46861e00ed193d15618049a480e2ca269f83ce14_ligand_6.pdbqt
 15 16 0 0 0
SMALL
GASTEIGER

@<TRIPOS>ATOM
      1  C          5.3810    2.6410    0.1510 C.3     1  UNL1        0.1270
      2  C          6.0870    3.6900    0.8700 C.2     1  UNL1        0.3030
      3  O          6.1500    3.8030    2.0950 O.2     1  UNL1       -0.2520
      4  O          6.7570    4.6580    0.1040 O.3     1  UNL1       -0.4810
      5  H          6.7280    5.6020    0.4560 H       1  UNL1        0.2960
      6  C          5.5070    1.3030    0.7650 C.3     1  UNL1        0.0470
      7  C          6.3130    0.3060    0.0570 C.2     1  UNL1       -0.0430
      8  C          6.4550    0.3350   -1.3220 C.2     1  UNL1        0.0080
      9  C          6.9220   -0.7140    0.7390 C.2     1  UNL1        0.0540
     10  C          7.1820   -0.6230   -1.9920 C.2     1  UNL1        0.0510
     11  C          7.6570   -1.6860    0.0870 C.2     1  UNL1        0.1660
     12  C          7.7900   -1.6440   -1.2800 C.2     1  UNL1        0.1650
     13  O          8.3480   -2.7880    0.5600 O.2     1  UNL1       -0.4540
     14  O          8.5750   -2.7400   -1.6430 O.2     1  UNL1       -0.4540
     15  C          8.6680   -3.6320   -0.5560 C.3     1  UNL1        0.4680
@<TRIPOS>BOND
     1    10     8    1
     2    10    12    2
     3    14    12    1
     4    14    15    1
     5     8     7    2
     6    12    11    1
     7    15    13    1
     8     7     9    1
     9     7     6    1
    10    11    13    1
    11    11     9    2
    12     4     5    1
    13     4     2    1
    14     1     6    1
    15     1     2    1
    16     2     3    2
