@<TRIPOS>MOLECULE
/home/cewinharhar/GITHUB/reincatalyze/data/processed/docking_pred/2023-May-17-1006_maxeplen10_maxtrainstep1000_seadep16_gamma099_lrac9e-4_lrcr1e-3_sub6/46861e00ed193d15618049a480e2ca269f83ce14_ligand_6.pdbqt
 15 16 0 0 0
SMALL
GASTEIGER

@<TRIPOS>ATOM
      1  C          8.3100   -0.3170   -2.8470 C.3     1  UNL1        0.1270
      2  C          8.4690   -1.7460   -3.0670 C.2     1  UNL1        0.3030
      3  O          9.5360   -2.3620   -3.0320 O.2     1  UNL1       -0.2520
      4  O          7.3100   -2.4880   -3.3430 O.3     1  UNL1       -0.4810
      5  H          7.2640   -2.9180   -4.2540 H       1  UNL1        0.2960
      6  C          8.7630    0.1400   -1.5160 C.3     1  UNL1        0.0470
      7  C          7.7930    0.1000   -0.4200 C.2     1  UNL1       -0.0430
      8  C          7.7410   -0.9660    0.4640 C.2     1  UNL1        0.0080
      9  C          6.8760    1.1060   -0.2590 C.2     1  UNL1        0.0540
     10  C          6.8050   -1.0220    1.4740 C.2     1  UNL1        0.0510
     11  C          5.9290    1.0710    0.7470 C.2     1  UNL1        0.1660
     12  C          5.8900    0.0080    1.6160 C.2     1  UNL1        0.1650
     13  O          4.9240    1.9580    1.0930 O.2     1  UNL1       -0.4540
     14  O          4.8430    0.2540    2.5060 O.2     1  UNL1       -0.4540
     15  C          4.0380    1.2970    2.0080 C.3     1  UNL1        0.4680
@<TRIPOS>BOND
     1     5     4    1
     2     4     2    1
     3     2     3    2
     4     2     1    1
     5     1     6    1
     6     6     7    1
     7     7     9    2
     8     7     8    1
     9     9    11    1
    10     8    10    2
    11    11    13    1
    12    11    12    2
    13    13    15    1
    14    10    12    1
    15    12    14    1
    16    15    14    1
