MODEL 1
REMARK VINA RESULT:      -7.7      0.000      0.000
REMARK SMILES O=C(O)CCc1ccc2c(c1)OCO2
REMARK SMILES IDX 4 1 2 2 1 3 3 4 5 6 6 7 7 8 11 9 8 10 10 11 9 12 12 13 14 14
REMARK SMILES IDX 13 15
REMARK H PARENT 3 5
REMARK Flexibility Score: inf
ROOT
ATOM      1  C   UNL     1       5.409   2.872   0.127  1.00  0.00     0.127 C 
ENDROOT
BRANCH   1   2
ATOM      2  C   UNL     1       6.233   3.852   0.817  1.00  0.00     0.303 C 
ATOM      3  O   UNL     1       6.856   4.770   0.280  1.00  0.00    -0.252 OA
BRANCH   2   4
ATOM      4  O   UNL     1       6.330   3.745   2.213  1.00  0.00    -0.481 OA
ATOM      5  H   UNL     1       6.570   2.834   2.574  1.00  0.00     0.296 HD
ENDBRANCH   2   4
ENDBRANCH   1   2
BRANCH   1   6
ATOM      6  C   UNL     1       5.335   1.563   0.811  1.00  0.00     0.047 C 
BRANCH   6   7
ATOM      7  C   UNL     1       6.118   0.460   0.249  1.00  0.00    -0.043 A 
ATOM      8  C   UNL     1       6.594  -0.570   1.046  1.00  0.00     0.008 A 
ATOM      9  C   UNL     1       6.439   0.436  -1.082  1.00  0.00     0.054 A 
ATOM     10  C   UNL     1       7.362  -1.588   0.526  1.00  0.00     0.051 A 
ATOM     11  C   UNL     1       7.207  -0.576  -1.626  1.00  0.00     0.166 A 
ATOM     12  C   UNL     1       7.671  -1.591  -0.825  1.00  0.00     0.165 A 
ATOM     13  O   UNL     1       7.646  -0.802  -2.919  1.00  0.00    -0.454 OA
ATOM     14  O   UNL     1       8.405  -2.449  -1.645  1.00  0.00    -0.454 OA
ATOM     15  C   UNL     1       8.663  -1.815  -2.877  1.00  0.00     0.468 C 
ENDBRANCH   6   7
ENDBRANCH   1   6
TORSDOF 4
ENDMDL
MODEL 2
REMARK VINA RESULT:      -7.6      2.127      2.507
REMARK SMILES O=C(O)CCc1ccc2c(c1)OCO2
REMARK SMILES IDX 4 1 2 2 1 3 3 4 5 6 6 7 7 8 11 9 8 10 10 11 9 12 12 13 14 14
REMARK SMILES IDX 13 15
REMARK H PARENT 3 5
REMARK Flexibility Score: inf
ROOT
ATOM      1  C   UNL     1       4.730   1.886   0.706  1.00  0.00     0.127 C 
ENDROOT
BRANCH   1   2
ATOM      2  C   UNL     1       4.428   1.147   1.922  1.00  0.00     0.303 C 
ATOM      3  O   UNL     1       5.160   0.311   2.454  1.00  0.00    -0.252 OA
BRANCH   2   4
ATOM      4  O   UNL     1       3.197   1.407   2.544  1.00  0.00    -0.481 OA
ATOM      5  H   UNL     1       2.390   0.954   2.142  1.00  0.00     0.296 HD
ENDBRANCH   2   4
ENDBRANCH   1   2
BRANCH   1   6
ATOM      6  C   UNL     1       6.160   2.233   0.554  1.00  0.00     0.047 C 
BRANCH   6   7
ATOM      7  C   UNL     1       6.999   1.320  -0.225  1.00  0.00    -0.043 A 
ATOM      8  C   UNL     1       8.363   1.527  -0.360  1.00  0.00     0.008 A 
ATOM      9  C   UNL     1       6.449   0.249  -0.878  1.00  0.00     0.054 A 
ATOM     10  C   UNL     1       9.147   0.690  -1.122  1.00  0.00     0.051 A 
ATOM     11  C   UNL     1       7.217  -0.605  -1.648  1.00  0.00     0.166 A 
ATOM     12  C   UNL     1       8.568  -0.387  -1.772  1.00  0.00     0.165 A 
ATOM     13  O   UNL     1       6.884  -1.729  -2.383  1.00  0.00    -0.454 OA
ATOM     14  O   UNL     1       9.064  -1.397  -2.598  1.00  0.00    -0.454 OA
ATOM     15  C   UNL     1       7.992  -2.052  -3.237  1.00  0.00     0.468 C 
ENDBRANCH   6   7
ENDBRANCH   1   6
TORSDOF 4
ENDMDL
MODEL 3
REMARK VINA RESULT:      -7.5      1.984      2.992
REMARK SMILES O=C(O)CCc1ccc2c(c1)OCO2
REMARK SMILES IDX 4 1 2 2 1 3 3 4 5 6 6 7 7 8 11 9 8 10 10 11 9 12 12 13 14 14
REMARK SMILES IDX 13 15
REMARK H PARENT 3 5
REMARK Flexibility Score: inf
ROOT
ATOM      1  C   UNL     1       6.421   1.256   0.684  1.00  0.00     0.127 C 
ENDROOT
BRANCH   1   2
ATOM      2  C   UNL     1       5.240   1.157   1.527  1.00  0.00     0.303 C 
ATOM      3  O   UNL     1       5.043   0.297   2.387  1.00  0.00    -0.252 OA
BRANCH   2   4
ATOM      4  O   UNL     1       4.237   2.122   1.346  1.00  0.00    -0.481 OA
ATOM      5  H   UNL     1       3.594   2.246   2.113  1.00  0.00     0.296 HD
ENDBRANCH   2   4
ENDBRANCH   1   2
BRANCH   1   6
ATOM      6  C   UNL     1       6.215   0.774  -0.698  1.00  0.00     0.047 C 
BRANCH   6   7
ATOM      7  C   UNL     1       6.981  -0.397  -1.130  1.00  0.00    -0.043 A 
ATOM      8  C   UNL     1       7.296  -0.606  -2.463  1.00  0.00     0.008 A 
ATOM      9  C   UNL     1       7.379  -1.345  -0.225  1.00  0.00     0.054 A 
ATOM     10  C   UNL     1       7.985  -1.725  -2.875  1.00  0.00     0.051 A 
ATOM     11  C   UNL     1       8.073  -2.475  -0.615  1.00  0.00     0.166 A 
ATOM     12  C   UNL     1       8.378  -2.669  -1.940  1.00  0.00     0.165 A 
ATOM     13  O   UNL     1       8.567  -3.545   0.110  1.00  0.00    -0.454 OA
ATOM     14  O   UNL     1       9.070  -3.879  -2.021  1.00  0.00    -0.454 OA
ATOM     15  C   UNL     1       8.924  -4.586  -0.812  1.00  0.00     0.468 C 
ENDBRANCH   6   7
ENDBRANCH   1   6
TORSDOF 4
ENDMDL
MODEL 4
REMARK VINA RESULT:      -7.5      1.789      5.286
REMARK SMILES O=C(O)CCc1ccc2c(c1)OCO2
REMARK SMILES IDX 4 1 2 2 1 3 3 4 5 6 6 7 7 8 11 9 8 10 10 11 9 12 12 13 14 14
REMARK SMILES IDX 13 15
REMARK H PARENT 3 5
REMARK Flexibility Score: inf
ROOT
ATOM      1  C   UNL     1       8.308  -0.326  -2.846  1.00  0.00     0.127 C 
ENDROOT
BRANCH   1   2
ATOM      2  C   UNL     1       8.471  -1.753  -3.072  1.00  0.00     0.303 C 
ATOM      3  O   UNL     1       9.539  -2.367  -3.038  1.00  0.00    -0.252 OA
BRANCH   2   4
ATOM      4  O   UNL     1       7.315  -2.498  -3.353  1.00  0.00    -0.481 OA
ATOM      5  H   UNL     1       6.764  -2.781  -2.557  1.00  0.00     0.296 HD
ENDBRANCH   2   4
ENDBRANCH   1   2
BRANCH   1   6
ATOM      6  C   UNL     1       8.760   0.127  -1.513  1.00  0.00     0.047 C 
BRANCH   6   7
ATOM      7  C   UNL     1       7.788   0.090  -0.419  1.00  0.00    -0.043 A 
ATOM      8  C   UNL     1       7.731  -0.977   0.464  1.00  0.00     0.008 A 
ATOM      9  C   UNL     1       6.874   1.097  -0.260  1.00  0.00     0.054 A 
ATOM     10  C   UNL     1       6.794  -1.031   1.472  1.00  0.00     0.051 A 
ATOM     11  C   UNL     1       5.924   1.065   0.744  1.00  0.00     0.166 A 
ATOM     12  C   UNL     1       5.881   0.002   1.613  1.00  0.00     0.165 A 
ATOM     13  O   UNL     1       4.921   1.954   1.088  1.00  0.00    -0.454 OA
ATOM     14  O   UNL     1       4.833   0.249   2.501  1.00  0.00    -0.454 OA
ATOM     15  C   UNL     1       4.031   1.295   2.002  1.00  0.00     0.468 C 
ENDBRANCH   6   7
ENDBRANCH   1   6
TORSDOF 4
ENDMDL
MODEL 5
REMARK VINA RESULT:      -5.8      0.922      2.094
REMARK SMILES O=C(O)CCc1ccc2c(c1)OCO2
REMARK SMILES IDX 4 1 2 2 1 3 3 4 5 6 6 7 7 8 11 9 8 10 10 11 9 12 12 13 14 14
REMARK SMILES IDX 13 15
REMARK H PARENT 3 5
REMARK Flexibility Score: inf
ROOT
ATOM      1  C   UNL     1       5.394   2.830   0.171  1.00  0.00     0.127 C 
ENDROOT
BRANCH   1   2
ATOM      2  C   UNL     1       6.178   3.825   0.884  1.00  0.00     0.303 C 
ATOM      3  O   UNL     1       6.291   3.907   2.109  1.00  0.00    -0.252 OA
BRANCH   2   4
ATOM      4  O   UNL     1       6.868   4.775   0.115  1.00  0.00    -0.481 OA
ATOM      5  H   UNL     1       6.470   5.701   0.090  1.00  0.00     0.296 HD
ENDBRANCH   2   4
ENDBRANCH   1   2
BRANCH   1   6
ATOM      6  C   UNL     1       5.408   1.491   0.799  1.00  0.00     0.047 C 
BRANCH   6   7
ATOM      7  C   UNL     1       6.231   0.456   0.169  1.00  0.00    -0.043 A 
ATOM      8  C   UNL     1       6.502   0.474  -1.190  1.00  0.00     0.008 A 
ATOM      9  C   UNL     1       6.726  -0.588   0.904  1.00  0.00     0.054 A 
ATOM     10  C   UNL     1       7.246  -0.518  -1.790  1.00  0.00     0.051 A 
ATOM     11  C   UNL     1       7.475  -1.594   0.324  1.00  0.00     0.166 A 
ATOM     12  C   UNL     1       7.737  -1.563  -1.024  1.00  0.00     0.165 A 
ATOM     13  O   UNL     1       8.067  -2.724   0.860  1.00  0.00    -0.454 OA
ATOM     14  O   UNL     1       8.502  -2.694  -1.312  1.00  0.00    -0.454 OA
ATOM     15  C   UNL     1       8.453  -3.586  -0.222  1.00  0.00     0.468 C 
ENDBRANCH   6   7
ENDBRANCH   1   6
TORSDOF 4
ENDMDL
