@<TRIPOS>MOLECULE
/home/cewinharhar/GITHUB/reincatalyze/data/processed/docking_pred/2023-May-17-1006_maxeplen10_maxtrainstep1000_seadep16_gamma099_lrac9e-4_lrcr1e-3_sub6/46aa5159a95d0d08c04f597503a56ad94e9ef6ed_ligand_6.pdbqt
 15 16 0 0 0
SMALL
GASTEIGER

@<TRIPOS>ATOM
      1  C          4.7300    1.8860    0.7060 C.3     1  UNL1        0.1270
      2  C          4.4280    1.1470    1.9220 C.2     1  UNL1        0.3030
      3  O          5.1600    0.3110    2.4540 O.2     1  UNL1       -0.2520
      4  O          3.1970    1.4070    2.5440 O.3     1  UNL1       -0.4810
      5  H          2.3900    0.9540    2.1420 H       1  UNL1        0.2960
      6  C          6.1600    2.2330    0.5540 C.3     1  UNL1        0.0470
      7  C          6.9990    1.3200   -0.2250 C.2     1  UNL1       -0.0430
      8  C          8.3630    1.5270   -0.3600 C.2     1  UNL1        0.0080
      9  C          6.4490    0.2490   -0.8780 C.2     1  UNL1        0.0540
     10  C          9.1470    0.6900   -1.1220 C.2     1  UNL1        0.0510
     11  C          7.2170   -0.6050   -1.6480 C.2     1  UNL1        0.1660
     12  C          8.5680   -0.3870   -1.7720 C.2     1  UNL1        0.1650
     13  O          6.8840   -1.7290   -2.3830 O.2     1  UNL1       -0.4540
     14  O          9.0640   -1.3970   -2.5980 O.2     1  UNL1       -0.4540
     15  C          7.9920   -2.0520   -3.2370 C.3     1  UNL1        0.4680
@<TRIPOS>BOND
     1    15    14    1
     2    15    13    1
     3    14    12    1
     4    13    11    1
     5    12    11    2
     6    12    10    1
     7    11     9    1
     8    10     8    2
     9     9     7    2
    10     8     7    1
    11     7     6    1
    12     6     1    1
    13     1     2    1
    14     2     3    2
    15     2     4    1
    16     5     4    1
