@<TRIPOS>MOLECULE
/home/cewinharhar/GITHUB/reincatalyze/data/processed/docking_pred/2023-May-17-1006_maxeplen10_maxtrainstep1000_seadep16_gamma099_lrac9e-4_lrcr1e-3_sub6/46aa5159a95d0d08c04f597503a56ad94e9ef6ed_ligand_6.pdbqt
 15 16 0 0 0
SMALL
GASTEIGER

@<TRIPOS>ATOM
      1  C          5.3940    2.8300    0.1710 C.3     1  UNL1        0.1270
      2  C          6.1780    3.8250    0.8840 C.2     1  UNL1        0.3030
      3  O          6.2910    3.9070    2.1090 O.2     1  UNL1       -0.2520
      4  O          6.8680    4.7750    0.1150 O.3     1  UNL1       -0.4810
      5  H          6.4700    5.7010    0.0900 H       1  UNL1        0.2960
      6  C          5.4080    1.4910    0.7990 C.3     1  UNL1        0.0470
      7  C          6.2310    0.4560    0.1690 C.2     1  UNL1       -0.0430
      8  C          6.5020    0.4740   -1.1900 C.2     1  UNL1        0.0080
      9  C          6.7260   -0.5880    0.9040 C.2     1  UNL1        0.0540
     10  C          7.2460   -0.5180   -1.7900 C.2     1  UNL1        0.0510
     11  C          7.4750   -1.5940    0.3240 C.2     1  UNL1        0.1660
     12  C          7.7370   -1.5630   -1.0240 C.2     1  UNL1        0.1650
     13  O          8.0670   -2.7240    0.8600 O.2     1  UNL1       -0.4540
     14  O          8.5020   -2.6940   -1.3120 O.2     1  UNL1       -0.4540
     15  C          8.4530   -3.5860   -0.2220 C.3     1  UNL1        0.4680
@<TRIPOS>BOND
     1    10     8    1
     2    10    12    2
     3    14    12    1
     4    14    15    1
     5     8     7    2
     6    12    11    1
     7    15    13    1
     8     5     4    1
     9     4     2    1
    10     7     6    1
    11     7     9    1
    12     1     6    1
    13     1     2    1
    14    11    13    1
    15    11     9    2
    16     2     3    2
