@<TRIPOS>MOLECULE
/home/cewinharhar/GITHUB/reincatalyze/data/processed/docking_pred/2023-May-17-1006_maxeplen10_maxtrainstep1000_seadep16_gamma099_lrac9e-4_lrcr1e-3_sub6/46aa5159a95d0d08c04f597503a56ad94e9ef6ed_ligand_6.pdbqt
 15 16 0 0 0
SMALL
GASTEIGER

@<TRIPOS>ATOM
      1  C          6.4210    1.2560    0.6840 C.3     1  UNL1        0.1270
      2  C          5.2400    1.1570    1.5270 C.2     1  UNL1        0.3030
      3  O          5.0430    0.2970    2.3870 O.2     1  UNL1       -0.2520
      4  O          4.2370    2.1220    1.3460 O.3     1  UNL1       -0.4810
      5  H          3.5940    2.2460    2.1130 H       1  UNL1        0.2960
      6  C          6.2150    0.7740   -0.6980 C.3     1  UNL1        0.0470
      7  C          6.9810   -0.3970   -1.1300 C.2     1  UNL1       -0.0430
      8  C          7.2960   -0.6060   -2.4630 C.2     1  UNL1        0.0080
      9  C          7.3790   -1.3450   -0.2250 C.2     1  UNL1        0.0540
     10  C          7.9850   -1.7250   -2.8750 C.2     1  UNL1        0.0510
     11  C          8.0730   -2.4750   -0.6150 C.2     1  UNL1        0.1660
     12  C          8.3780   -2.6690   -1.9400 C.2     1  UNL1        0.1650
     13  O          8.5670   -3.5450    0.1100 O.2     1  UNL1       -0.4540
     14  O          9.0700   -3.8790   -2.0210 O.2     1  UNL1       -0.4540
     15  C          8.9240   -4.5860   -0.8120 C.3     1  UNL1        0.4680
@<TRIPOS>BOND
     1    10     8    1
     2    10    12    2
     3     8     7    2
     4    14    12    1
     5    14    15    1
     6    12    11    1
     7     7     6    1
     8     7     9    1
     9    15    13    1
    10     6     1    1
    11    11     9    2
    12    11    13    1
    13     1     2    1
    14     4     2    1
    15     4     5    1
    16     2     3    2
