@<TRIPOS>MOLECULE
/home/cewinharhar/GITHUB/reincatalyze/data/processed/docking_pred/2023-May-17-1006_maxeplen10_maxtrainstep1000_seadep16_gamma099_lrac9e-4_lrcr1e-3_sub6/46aa5159a95d0d08c04f597503a56ad94e9ef6ed_ligand_6.pdbqt
 15 16 0 0 0
SMALL
GASTEIGER

@<TRIPOS>ATOM
      1  C          8.3080   -0.3260   -2.8460 C.3     1  UNL1        0.1270
      2  C          8.4710   -1.7530   -3.0720 C.2     1  UNL1        0.3030
      3  O          9.5390   -2.3670   -3.0380 O.2     1  UNL1       -0.2520
      4  O          7.3150   -2.4980   -3.3530 O.3     1  UNL1       -0.4810
      5  H          6.7640   -2.7810   -2.5570 H       1  UNL1        0.2960
      6  C          8.7600    0.1270   -1.5130 C.3     1  UNL1        0.0470
      7  C          7.7880    0.0900   -0.4190 C.2     1  UNL1       -0.0430
      8  C          7.7310   -0.9770    0.4640 C.2     1  UNL1        0.0080
      9  C          6.8740    1.0970   -0.2600 C.2     1  UNL1        0.0540
     10  C          6.7940   -1.0310    1.4720 C.2     1  UNL1        0.0510
     11  C          5.9240    1.0650    0.7440 C.2     1  UNL1        0.1660
     12  C          5.8810    0.0020    1.6130 C.2     1  UNL1        0.1650
     13  O          4.9210    1.9540    1.0880 O.2     1  UNL1       -0.4540
     14  O          4.8330    0.2490    2.5010 O.2     1  UNL1       -0.4540
     15  C          4.0310    1.2950    2.0020 C.3     1  UNL1        0.4680
@<TRIPOS>BOND
     1     4     2    1
     2     4     5    1
     3     2     3    2
     4     2     1    1
     5     1     6    1
     6     6     7    1
     7     7     9    2
     8     7     8    1
     9     9    11    1
    10     8    10    2
    11    11    13    1
    12    11    12    2
    13    13    15    1
    14    10    12    1
    15    12    14    1
    16    15    14    1
