@<TRIPOS>MOLECULE
/home/cewinharhar/GITHUB/reincatalyze/data/processed/docking_pred/2023-May-17-1006_maxeplen10_maxtrainstep1000_seadep16_gamma099_lrac9e-4_lrcr1e-3_sub6/46aa5159a95d0d08c04f597503a56ad94e9ef6ed_ligand_6.pdbqt
 15 16 0 0 0
SMALL
GASTEIGER

@<TRIPOS>ATOM
      1  C          5.4090    2.8720    0.1270 C.3     1  UNL1        0.1270
      2  C          6.2330    3.8520    0.8170 C.2     1  UNL1        0.3030
      3  O          6.8560    4.7700    0.2800 O.2     1  UNL1       -0.2520
      4  O          6.3300    3.7450    2.2130 O.3     1  UNL1       -0.4810
      5  H          6.5700    2.8340    2.5740 H       1  UNL1        0.2960
      6  C          5.3350    1.5630    0.8110 C.3     1  UNL1        0.0470
      7  C          6.1180    0.4600    0.2490 C.2     1  UNL1       -0.0430
      8  C          6.5940   -0.5700    1.0460 C.2     1  UNL1        0.0080
      9  C          6.4390    0.4360   -1.0820 C.2     1  UNL1        0.0540
     10  C          7.3620   -1.5880    0.5260 C.2     1  UNL1        0.0510
     11  C          7.2070   -0.5760   -1.6260 C.2     1  UNL1        0.1660
     12  C          7.6710   -1.5910   -0.8250 C.2     1  UNL1        0.1650
     13  O          7.6460   -0.8020   -2.9190 O.2     1  UNL1       -0.4540
     14  O          8.4050   -2.4490   -1.6450 O.2     1  UNL1       -0.4540
     15  C          8.6630   -1.8150   -2.8770 C.3     1  UNL1        0.4680
@<TRIPOS>BOND
     1    13    15    1
     2    13    11    1
     3    15    14    1
     4    14    12    1
     5    11     9    1
     6    11    12    2
     7     9     7    2
     8    12    10    1
     9     1     6    1
    10     1     2    1
    11     7     6    1
    12     7     8    1
    13     3     2    2
    14    10     8    2
    15     2     4    1
    16     4     5    1
