@<TRIPOS>MOLECULE
/home/cewinharhar/GITHUB/reincatalyze/data/processed/docking_pred/2023-May-17-1006_maxeplen10_maxtrainstep1000_seadep16_gamma099_lrac9e-4_lrcr1e-3_sub6/49b3117837231080fe644fe44c00424f4b8d2b91_ligand_6.pdbqt
 15 16 0 0 0
SMALL
GASTEIGER

@<TRIPOS>ATOM
      1  C          5.4150    2.8700    0.1210 C.3     1  UNL1        0.1270
      2  C          6.2400    3.8540    0.8040 C.2     1  UNL1        0.3030
      3  O          6.8850    4.7520    0.2590 O.2     1  UNL1       -0.2520
      4  O          6.3110    3.7760    2.2040 O.3     1  UNL1       -0.4810
      5  H          5.8730    4.5280    2.7140 H       1  UNL1        0.2960
      6  C          5.3470    1.5630    0.8080 C.3     1  UNL1        0.0470
      7  C          6.1300    0.4600    0.2450 C.2     1  UNL1       -0.0430
      8  C          6.5810   -0.5860    1.0350 C.2     1  UNL1        0.0080
      9  C          6.4730    0.4510   -1.0810 C.2     1  UNL1        0.0540
     10  C          7.3470   -1.6040    0.5150 C.2     1  UNL1        0.0510
     11  C          7.2410   -0.5610   -1.6250 C.2     1  UNL1        0.1660
     12  C          7.6800   -1.5920   -0.8300 C.2     1  UNL1        0.1650
     13  O          7.7010   -0.7740   -2.9130 O.2     1  UNL1       -0.4540
     14  O          8.4200   -2.4460   -1.6500 O.2     1  UNL1       -0.4540
     15  C          8.7060   -1.7980   -2.8680 C.3     1  UNL1        0.4680
@<TRIPOS>BOND
     1    13    15    1
     2    13    11    1
     3    15    14    1
     4    14    12    1
     5    11     9    1
     6    11    12    2
     7     9     7    2
     8    12    10    1
     9     1     2    1
    10     1     6    1
    11     7     6    1
    12     7     8    1
    13     3     2    2
    14    10     8    2
    15     2     4    1
    16     4     5    1
