@<TRIPOS>MOLECULE
/home/cewinharhar/GITHUB/reincatalyze/data/processed/docking_pred/2023-May-17-1006_maxeplen10_maxtrainstep1000_seadep16_gamma099_lrac9e-4_lrcr1e-3_sub6/49b3117837231080fe644fe44c00424f4b8d2b91_ligand_6.pdbqt
 15 16 0 0 0
SMALL
GASTEIGER

@<TRIPOS>ATOM
      1  C          8.2350   -0.2090   -2.8550 C.3     1  UNL1        0.1270
      2  C          8.4910   -1.6270   -3.0530 C.2     1  UNL1        0.3030
      3  O          9.5840   -2.1830   -2.9300 O.2     1  UNL1       -0.2520
      4  O          7.4010   -2.4340   -3.4160 O.3     1  UNL1       -0.4810
      5  H          7.2780   -3.2810   -2.8840 H       1  UNL1        0.2960
      6  C          8.6930    0.3060   -1.5470 C.3     1  UNL1        0.0470
      7  C          7.7510    0.2410   -0.4270 C.2     1  UNL1       -0.0430
      8  C          7.7900   -0.7960    0.4930 C.2     1  UNL1        0.0080
      9  C          6.7740    1.1890   -0.2770 C.2     1  UNL1        0.0540
     10  C          6.8830   -0.8780    1.5260 C.2     1  UNL1        0.0510
     11  C          5.8530    1.1270    0.7510 C.2     1  UNL1        0.1660
     12  C          5.9050    0.0940    1.6570 C.2     1  UNL1        0.1650
     13  O          4.7990    1.9560    1.0920 O.2     1  UNL1       -0.4540
     14  O          4.8630    0.3010    2.5630 O.2     1  UNL1       -0.4540
     15  C          3.9790    1.2710    2.0510 C.3     1  UNL1        0.4680
@<TRIPOS>BOND
     1     4     2    1
     2     4     5    1
     3     2     3    2
     4     2     1    1
     5     1     6    1
     6     6     7    1
     7     7     9    2
     8     7     8    1
     9     9    11    1
    10     8    10    2
    11    11    13    1
    12    11    12    2
    13    13    15    1
    14    10    12    1
    15    12    14    1
    16    15    14    1
