@<TRIPOS>MOLECULE
/home/cewinharhar/GITHUB/reincatalyze/data/processed/docking_pred/2023-May-17-1006_maxeplen10_maxtrainstep1000_seadep16_gamma099_lrac9e-4_lrcr1e-3_sub6/49b3117837231080fe644fe44c00424f4b8d2b91_ligand_6.pdbqt
 15 16 0 0 0
SMALL
GASTEIGER

@<TRIPOS>ATOM
      1  C          6.4530    1.2130    0.7690 C.3     1  UNL1        0.1270
      2  C          5.2250    1.1630    1.5470 C.2     1  UNL1        0.3030
      3  O          4.9600    0.3280    2.4140 O.2     1  UNL1       -0.2520
      4  O          4.2590    2.1480    1.2900 O.3     1  UNL1       -0.4810
      5  H          3.4350    2.1250    1.8710 H       1  UNL1        0.2960
      6  C          6.2870    0.7990   -0.6410 C.3     1  UNL1        0.0470
      7  C          7.0210   -0.3860   -1.0900 C.2     1  UNL1       -0.0430
      8  C          7.2850   -0.6090   -2.4330 C.2     1  UNL1        0.0080
      9  C          7.4360   -1.3340   -0.1930 C.2     1  UNL1        0.0540
     10  C          7.9430   -1.7410   -2.8590 C.2     1  UNL1        0.0510
     11  C          8.0990   -2.4770   -0.5980 C.2     1  UNL1        0.1660
     12  C          8.3550   -2.6840   -1.9320 C.2     1  UNL1        0.1650
     13  O          8.6030   -3.5490    0.1170 O.2     1  UNL1       -0.4540
     14  O          9.0260   -3.9050   -2.0280 O.2     1  UNL1       -0.4540
     15  C          8.9120   -4.6020   -0.8090 C.3     1  UNL1        0.4680
@<TRIPOS>BOND
     1    10     8    1
     2    10    12    2
     3     8     7    2
     4    14    12    1
     5    14    15    1
     6    12    11    1
     7     7     6    1
     8     7     9    1
     9    15    13    1
    10     6     1    1
    11    11     9    2
    12    11    13    1
    13     1     2    1
    14     4     2    1
    15     4     5    1
    16     2     3    2
