MODEL 1
REMARK VINA RESULT:      -7.6      0.000      0.000
REMARK SMILES O=C(O)CCc1ccc2c(c1)OCO2
REMARK SMILES IDX 4 1 2 2 1 3 3 4 5 6 6 7 7 8 11 9 8 10 10 11 9 12 12 13 14 14
REMARK SMILES IDX 13 15
REMARK H PARENT 3 5
REMARK Flexibility Score: inf
ROOT
ATOM      1  C   UNL     1       5.415   2.870   0.121  1.00  0.00     0.127 C 
ENDROOT
BRANCH   1   2
ATOM      2  C   UNL     1       6.240   3.854   0.804  1.00  0.00     0.303 C 
ATOM      3  O   UNL     1       6.885   4.752   0.259  1.00  0.00    -0.252 OA
BRANCH   2   4
ATOM      4  O   UNL     1       6.311   3.776   2.204  1.00  0.00    -0.481 OA
ATOM      5  H   UNL     1       5.873   4.528   2.714  1.00  0.00     0.296 HD
ENDBRANCH   2   4
ENDBRANCH   1   2
BRANCH   1   6
ATOM      6  C   UNL     1       5.347   1.563   0.808  1.00  0.00     0.047 C 
BRANCH   6   7
ATOM      7  C   UNL     1       6.130   0.460   0.245  1.00  0.00    -0.043 A 
ATOM      8  C   UNL     1       6.581  -0.586   1.035  1.00  0.00     0.008 A 
ATOM      9  C   UNL     1       6.473   0.451  -1.081  1.00  0.00     0.054 A 
ATOM     10  C   UNL     1       7.347  -1.604   0.515  1.00  0.00     0.051 A 
ATOM     11  C   UNL     1       7.241  -0.561  -1.625  1.00  0.00     0.166 A 
ATOM     12  C   UNL     1       7.680  -1.592  -0.830  1.00  0.00     0.165 A 
ATOM     13  O   UNL     1       7.701  -0.774  -2.913  1.00  0.00    -0.454 OA
ATOM     14  O   UNL     1       8.420  -2.446  -1.650  1.00  0.00    -0.454 OA
ATOM     15  C   UNL     1       8.706  -1.798  -2.868  1.00  0.00     0.468 C 
ENDBRANCH   6   7
ENDBRANCH   1   6
TORSDOF 4
ENDMDL
MODEL 2
REMARK VINA RESULT:      -7.6      2.145      2.524
REMARK SMILES O=C(O)CCc1ccc2c(c1)OCO2
REMARK SMILES IDX 4 1 2 2 1 3 3 4 5 6 6 7 7 8 11 9 8 10 10 11 9 12 12 13 14 14
REMARK SMILES IDX 13 15
REMARK H PARENT 3 5
REMARK Flexibility Score: inf
ROOT
ATOM      1  C   UNL     1       4.717   1.834   0.701  1.00  0.00     0.127 C 
ENDROOT
BRANCH   1   2
ATOM      2  C   UNL     1       4.413   1.123   1.934  1.00  0.00     0.303 C 
ATOM      3  O   UNL     1       5.140   0.293   2.481  1.00  0.00    -0.252 OA
BRANCH   2   4
ATOM      4  O   UNL     1       3.186   1.406   2.554  1.00  0.00    -0.481 OA
ATOM      5  H   UNL     1       2.927   2.380   2.606  1.00  0.00     0.296 HD
ENDBRANCH   2   4
ENDBRANCH   1   2
BRANCH   1   6
ATOM      6  C   UNL     1       6.143   2.195   0.554  1.00  0.00     0.047 C 
BRANCH   6   7
ATOM      7  C   UNL     1       6.992   1.295  -0.230  1.00  0.00    -0.043 A 
ATOM      8  C   UNL     1       8.353   1.521  -0.369  1.00  0.00     0.008 A 
ATOM      9  C   UNL     1       6.455   0.219  -0.886  1.00  0.00     0.054 A 
ATOM     10  C   UNL     1       9.146   0.696  -1.135  1.00  0.00     0.051 A 
ATOM     11  C   UNL     1       7.231  -0.622  -1.660  1.00  0.00     0.166 A 
ATOM     12  C   UNL     1       8.579  -0.387  -1.787  1.00  0.00     0.165 A 
ATOM     13  O   UNL     1       6.911  -1.748  -2.397  1.00  0.00    -0.454 OA
ATOM     14  O   UNL     1       9.086  -1.388  -2.617  1.00  0.00    -0.454 OA
ATOM     15  C   UNL     1       8.021  -2.054  -3.255  1.00  0.00     0.468 C 
ENDBRANCH   6   7
ENDBRANCH   1   6
TORSDOF 4
ENDMDL
MODEL 3
REMARK VINA RESULT:      -7.5      1.992      2.994
REMARK SMILES O=C(O)CCc1ccc2c(c1)OCO2
REMARK SMILES IDX 4 1 2 2 1 3 3 4 5 6 6 7 7 8 11 9 8 10 10 11 9 12 12 13 14 14
REMARK SMILES IDX 13 15
REMARK H PARENT 3 5
REMARK Flexibility Score: inf
ROOT
ATOM      1  C   UNL     1       6.453   1.213   0.769  1.00  0.00     0.127 C 
ENDROOT
BRANCH   1   2
ATOM      2  C   UNL     1       5.225   1.163   1.547  1.00  0.00     0.303 C 
ATOM      3  O   UNL     1       4.960   0.328   2.414  1.00  0.00    -0.252 OA
BRANCH   2   4
ATOM      4  O   UNL     1       4.259   2.148   1.290  1.00  0.00    -0.481 OA
ATOM      5  H   UNL     1       3.435   2.125   1.871  1.00  0.00     0.296 HD
ENDBRANCH   2   4
ENDBRANCH   1   2
BRANCH   1   6
ATOM      6  C   UNL     1       6.287   0.799  -0.641  1.00  0.00     0.047 C 
BRANCH   6   7
ATOM      7  C   UNL     1       7.021  -0.386  -1.090  1.00  0.00    -0.043 A 
ATOM      8  C   UNL     1       7.285  -0.609  -2.433  1.00  0.00     0.008 A 
ATOM      9  C   UNL     1       7.436  -1.334  -0.193  1.00  0.00     0.054 A 
ATOM     10  C   UNL     1       7.943  -1.741  -2.859  1.00  0.00     0.051 A 
ATOM     11  C   UNL     1       8.099  -2.477  -0.598  1.00  0.00     0.166 A 
ATOM     12  C   UNL     1       8.355  -2.684  -1.932  1.00  0.00     0.165 A 
ATOM     13  O   UNL     1       8.603  -3.549   0.117  1.00  0.00    -0.454 OA
ATOM     14  O   UNL     1       9.026  -3.905  -2.028  1.00  0.00    -0.454 OA
ATOM     15  C   UNL     1       8.912  -4.602  -0.809  1.00  0.00     0.468 C 
ENDBRANCH   6   7
ENDBRANCH   1   6
TORSDOF 4
ENDMDL
MODEL 4
REMARK VINA RESULT:      -7.5      1.807      5.263
REMARK SMILES O=C(O)CCc1ccc2c(c1)OCO2
REMARK SMILES IDX 4 1 2 2 1 3 3 4 5 6 6 7 7 8 11 9 8 10 10 11 9 12 12 13 14 14
REMARK SMILES IDX 13 15
REMARK H PARENT 3 5
REMARK Flexibility Score: inf
ROOT
ATOM      1  C   UNL     1       8.235  -0.209  -2.855  1.00  0.00     0.127 C 
ENDROOT
BRANCH   1   2
ATOM      2  C   UNL     1       8.491  -1.627  -3.053  1.00  0.00     0.303 C 
ATOM      3  O   UNL     1       9.584  -2.183  -2.930  1.00  0.00    -0.252 OA
BRANCH   2   4
ATOM      4  O   UNL     1       7.401  -2.434  -3.416  1.00  0.00    -0.481 OA
ATOM      5  H   UNL     1       7.278  -3.281  -2.884  1.00  0.00     0.296 HD
ENDBRANCH   2   4
ENDBRANCH   1   2
BRANCH   1   6
ATOM      6  C   UNL     1       8.693   0.306  -1.547  1.00  0.00     0.047 C 
BRANCH   6   7
ATOM      7  C   UNL     1       7.751   0.241  -0.427  1.00  0.00    -0.043 A 
ATOM      8  C   UNL     1       7.790  -0.796   0.493  1.00  0.00     0.008 A 
ATOM      9  C   UNL     1       6.774   1.189  -0.277  1.00  0.00     0.054 A 
ATOM     10  C   UNL     1       6.883  -0.878   1.526  1.00  0.00     0.051 A 
ATOM     11  C   UNL     1       5.853   1.127   0.751  1.00  0.00     0.166 A 
ATOM     12  C   UNL     1       5.905   0.094   1.657  1.00  0.00     0.165 A 
ATOM     13  O   UNL     1       4.799   1.956   1.092  1.00  0.00    -0.454 OA
ATOM     14  O   UNL     1       4.863   0.301   2.563  1.00  0.00    -0.454 OA
ATOM     15  C   UNL     1       3.979   1.271   2.051  1.00  0.00     0.468 C 
ENDBRANCH   6   7
ENDBRANCH   1   6
TORSDOF 4
ENDMDL
MODEL 5
REMARK VINA RESULT:      -7.3      0.937      2.099
REMARK SMILES O=C(O)CCc1ccc2c(c1)OCO2
REMARK SMILES IDX 4 1 2 2 1 3 3 4 5 6 6 7 7 8 11 9 8 10 10 11 9 12 12 13 14 14
REMARK SMILES IDX 13 15
REMARK H PARENT 3 5
REMARK Flexibility Score: inf
ROOT
ATOM      1  C   UNL     1       5.548   2.928   0.068  1.00  0.00     0.127 C 
ENDROOT
BRANCH   1   2
ATOM      2  C   UNL     1       6.251   3.908   0.882  1.00  0.00     0.303 C 
ATOM      3  O   UNL     1       6.135   4.044   2.101  1.00  0.00    -0.252 OA
BRANCH   2   4
ATOM      4  O   UNL     1       7.138   4.775   0.224  1.00  0.00    -0.481 OA
ATOM      5  H   UNL     1       6.970   5.762   0.347  1.00  0.00     0.296 HD
ENDBRANCH   2   4
ENDBRANCH   1   2
BRANCH   1   6
ATOM      6  C   UNL     1       5.458   1.589   0.687  1.00  0.00     0.047 C 
BRANCH   6   7
ATOM      7  C   UNL     1       6.245   0.510   0.087  1.00  0.00    -0.043 A 
ATOM      8  C   UNL     1       6.456   0.442  -1.282  1.00  0.00     0.008 A 
ATOM      9  C   UNL     1       6.768  -0.491   0.862  1.00  0.00     0.054 A 
ATOM     10  C   UNL     1       7.166  -0.591  -1.851  1.00  0.00     0.051 A 
ATOM     11  C   UNL     1       7.484  -1.537   0.313  1.00  0.00     0.166 A 
ATOM     12  C   UNL     1       7.686  -1.591  -1.045  1.00  0.00     0.165 A 
ATOM     13  O   UNL     1       8.093  -2.637   0.890  1.00  0.00    -0.454 OA
ATOM     14  O   UNL     1       8.431  -2.745  -1.297  1.00  0.00    -0.454 OA
ATOM     15  C   UNL     1       8.425  -3.567  -0.152  1.00  0.00     0.468 C 
ENDBRANCH   6   7
ENDBRANCH   1   6
TORSDOF 4
ENDMDL
