@<TRIPOS>MOLECULE
/home/cewinharhar/GITHUB/reincatalyze/data/processed/docking_pred/2023-May-17-1006_maxeplen10_maxtrainstep1000_seadep16_gamma099_lrac9e-4_lrcr1e-3_sub6/49b3117837231080fe644fe44c00424f4b8d2b91_ligand_6.pdbqt
 15 16 0 0 0
SMALL
GASTEIGER

@<TRIPOS>ATOM
      1  C          5.5480    2.9280    0.0680 C.3     1  UNL1        0.1270
      2  C          6.2510    3.9080    0.8820 C.2     1  UNL1        0.3030
      3  O          6.1350    4.0440    2.1010 O.2     1  UNL1       -0.2520
      4  O          7.1380    4.7750    0.2240 O.3     1  UNL1       -0.4810
      5  H          6.9700    5.7620    0.3470 H       1  UNL1        0.2960
      6  C          5.4580    1.5890    0.6870 C.3     1  UNL1        0.0470
      7  C          6.2450    0.5100    0.0870 C.2     1  UNL1       -0.0430
      8  C          6.4560    0.4420   -1.2820 C.2     1  UNL1        0.0080
      9  C          6.7680   -0.4910    0.8620 C.2     1  UNL1        0.0540
     10  C          7.1660   -0.5910   -1.8510 C.2     1  UNL1        0.0510
     11  C          7.4840   -1.5370    0.3130 C.2     1  UNL1        0.1660
     12  C          7.6860   -1.5910   -1.0450 C.2     1  UNL1        0.1650
     13  O          8.0930   -2.6370    0.8900 O.2     1  UNL1       -0.4540
     14  O          8.4310   -2.7450   -1.2970 O.2     1  UNL1       -0.4540
     15  C          8.4250   -3.5670   -0.1520 C.3     1  UNL1        0.4680
@<TRIPOS>BOND
     1    10     8    1
     2    10    12    2
     3    14    12    1
     4    14    15    1
     5     8     7    2
     6    12    11    1
     7    15    13    1
     8     1     6    1
     9     1     2    1
    10     7     6    1
    11     7     9    1
    12     4     5    1
    13     4     2    1
    14    11     9    2
    15    11    13    1
    16     2     3    2
