@<TRIPOS>MOLECULE
/home/cewinharhar/GITHUB/reincatalyze/data/processed/docking_pred/2023-May-17-1006_maxeplen10_maxtrainstep1000_seadep16_gamma099_lrac9e-4_lrcr1e-3_sub6/49b3117837231080fe644fe44c00424f4b8d2b91_ligand_6.pdbqt
 15 16 0 0 0
SMALL
GASTEIGER

@<TRIPOS>ATOM
      1  C          4.7170    1.8340    0.7010 C.3     1  UNL1        0.1270
      2  C          4.4130    1.1230    1.9340 C.2     1  UNL1        0.3030
      3  O          5.1400    0.2930    2.4810 O.2     1  UNL1       -0.2520
      4  O          3.1860    1.4060    2.5540 O.3     1  UNL1       -0.4810
      5  H          2.9270    2.3800    2.6060 H       1  UNL1        0.2960
      6  C          6.1430    2.1950    0.5540 C.3     1  UNL1        0.0470
      7  C          6.9920    1.2950   -0.2300 C.2     1  UNL1       -0.0430
      8  C          8.3530    1.5210   -0.3690 C.2     1  UNL1        0.0080
      9  C          6.4550    0.2190   -0.8860 C.2     1  UNL1        0.0540
     10  C          9.1460    0.6960   -1.1350 C.2     1  UNL1        0.0510
     11  C          7.2310   -0.6220   -1.6600 C.2     1  UNL1        0.1660
     12  C          8.5790   -0.3870   -1.7870 C.2     1  UNL1        0.1650
     13  O          6.9110   -1.7480   -2.3970 O.2     1  UNL1       -0.4540
     14  O          9.0860   -1.3880   -2.6170 O.2     1  UNL1       -0.4540
     15  C          8.0210   -2.0540   -3.2550 C.3     1  UNL1        0.4680
@<TRIPOS>BOND
     1    15    14    1
     2    15    13    1
     3    14    12    1
     4    13    11    1
     5    12    11    2
     6    12    10    1
     7    11     9    1
     8    10     8    2
     9     9     7    2
    10     8     7    1
    11     7     6    1
    12     6     1    1
    13     1     2    1
    14     2     3    2
    15     2     4    1
    16     4     5    1
