@<TRIPOS>MOLECULE
/home/cewinharhar/GITHUB/reincatalyze/data/processed/docking_pred/2023-May-17-1006_maxeplen10_maxtrainstep1000_seadep16_gamma099_lrac9e-4_lrcr1e-3_sub6/4a3a178b6a4326eb13634b12f3ce9c4ec26f8538_ligand_6.pdbqt
 15 16 0 0 0
SMALL
GASTEIGER

@<TRIPOS>ATOM
      1  C          5.4220    2.8680    0.1140 C.3     1  UNL1        0.1270
      2  C          6.2570    3.8390    0.8030 C.2     1  UNL1        0.3030
      3  O          6.9000    4.7420    0.2650 O.2     1  UNL1       -0.2520
      4  O          6.3410    3.7410    2.2010 O.3     1  UNL1       -0.4810
      5  H          5.9060    4.4840    2.7260 H       1  UNL1        0.2960
      6  C          5.3300    1.5610    0.8000 C.3     1  UNL1        0.0470
      7  C          6.1080    0.4500    0.2480 C.2     1  UNL1       -0.0430
      8  C          6.5550   -0.5900    1.0490 C.2     1  UNL1        0.0080
      9  C          6.4510    0.4260   -1.0780 C.2     1  UNL1        0.0540
     10  C          7.3170   -1.6170    0.5380 C.2     1  UNL1        0.0510
     11  C          7.2140   -0.5950   -1.6120 C.2     1  UNL1        0.1660
     12  C          7.6500   -1.6190   -0.8070 C.2     1  UNL1        0.1650
     13  O          7.6730   -0.8230   -2.8980 O.2     1  UNL1       -0.4540
     14  O          8.3860   -2.4840   -1.6180 O.2     1  UNL1       -0.4540
     15  C          8.6740   -1.8500   -2.8430 C.3     1  UNL1        0.4680
@<TRIPOS>BOND
     1    13    15    1
     2    13    11    1
     3    15    14    1
     4    14    12    1
     5    11     9    1
     6    11    12    2
     7     9     7    2
     8    12    10    1
     9     1     6    1
    10     1     2    1
    11     7     6    1
    12     7     8    1
    13     3     2    2
    14    10     8    2
    15     2     4    1
    16     4     5    1
