@<TRIPOS>MOLECULE
/home/cewinharhar/GITHUB/reincatalyze/data/processed/docking_pred/2023-May-17-1006_maxeplen10_maxtrainstep1000_seadep16_gamma099_lrac9e-4_lrcr1e-3_sub6/4a3a178b6a4326eb13634b12f3ce9c4ec26f8538_ligand_6.pdbqt
 15 16 0 0 0
SMALL
GASTEIGER

@<TRIPOS>ATOM
      1  C          6.4050    1.3610    0.6380 C.3     1  UNL1        0.1270
      2  C          5.2090    1.3250    1.4650 C.2     1  UNL1        0.3030
      3  O          4.2500    2.0940    1.3730 O.2     1  UNL1       -0.2520
      4  O          5.1380    0.3300    2.4520 O.3     1  UNL1       -0.4810
      5  H          5.9750   -0.2140    2.5970 H       1  UNL1        0.2960
      6  C          6.1960    0.8730   -0.7420 C.3     1  UNL1        0.0470
      7  C          6.9620   -0.3000   -1.1680 C.2     1  UNL1       -0.0430
      8  C          7.2690   -0.5200   -2.5020 C.2     1  UNL1        0.0080
      9  C          7.3670   -1.2410   -0.2580 C.2     1  UNL1        0.0540
     10  C          7.9570   -1.6410   -2.9090 C.2     1  UNL1        0.0510
     11  C          8.0600   -2.3730   -0.6430 C.2     1  UNL1        0.1660
     12  C          8.3570   -2.5770   -1.9690 C.2     1  UNL1        0.1650
     13  O          8.5600   -3.4370    0.0870 O.2     1  UNL1       -0.4540
     14  O          9.0500   -3.7860   -2.0450 O.2     1  UNL1       -0.4540
     15  C          8.9130   -4.4840   -0.8290 C.3     1  UNL1        0.4680
@<TRIPOS>BOND
     1    10     8    1
     2    10    12    2
     3     8     7    2
     4    14    12    1
     5    14    15    1
     6    12    11    1
     7     7     6    1
     8     7     9    1
     9    15    13    1
    10     6     1    1
    11    11     9    2
    12    11    13    1
    13     1     2    1
    14     3     2    2
    15     2     4    1
    16     4     5    1
