@<TRIPOS>MOLECULE
/home/cewinharhar/GITHUB/reincatalyze/data/processed/docking_pred/2023-May-17-1006_maxeplen10_maxtrainstep1000_seadep16_gamma099_lrac9e-4_lrcr1e-3_sub6/4a3a178b6a4326eb13634b12f3ce9c4ec26f8538_ligand_6.pdbqt
 15 16 0 0 0
SMALL
GASTEIGER

@<TRIPOS>ATOM
      1  C          5.4030    2.8140    0.1250 C.3     1  UNL1        0.1270
      2  C          6.1600    3.7690    0.9190 C.2     1  UNL1        0.3030
      3  O          6.2060    3.8010    2.1500 O.2     1  UNL1       -0.2520
      4  O          6.9030    4.7380    0.2260 O.3     1  UNL1       -0.4810
      5  H          6.7180    5.6990    0.4690 H       1  UNL1        0.2960
      6  C          5.3420    1.4590    0.7130 C.3     1  UNL1        0.0470
      7  C          6.1830    0.4220    0.1130 C.2     1  UNL1       -0.0430
      8  C          6.4540    0.4040   -1.2470 C.2     1  UNL1        0.0080
      9  C          6.6990   -0.5910    0.8780 C.2     1  UNL1        0.0540
     10  C          7.2150   -0.5910   -1.8180 C.2     1  UNL1        0.0510
     11  C          7.4660   -1.5990    0.3270 C.2     1  UNL1        0.1660
     12  C          7.7270   -1.6030   -1.0220 C.2     1  UNL1        0.1650
     13  O          8.0800   -2.7020    0.8950 O.2     1  UNL1       -0.4540
     14  O          8.5130   -2.7280   -1.2780 O.2     1  UNL1       -0.4540
     15  C          8.4810   -3.5870   -0.1620 C.3     1  UNL1        0.4680
@<TRIPOS>BOND
     1    10     8    1
     2    10    12    2
     3    14    12    1
     4    14    15    1
     5     8     7    2
     6    12    11    1
     7    15    13    1
     8     7     6    1
     9     7     9    1
    10     1     6    1
    11     1     2    1
    12     4     5    1
    13     4     2    1
    14    11     9    2
    15    11    13    1
    16     2     3    2
