@<TRIPOS>MOLECULE
/home/cewinharhar/GITHUB/reincatalyze/data/processed/docking_pred/2023-May-17-1006_maxeplen10_maxtrainstep1000_seadep16_gamma099_lrac9e-4_lrcr1e-3_sub6/4a3a178b6a4326eb13634b12f3ce9c4ec26f8538_ligand_6.pdbqt
 15 16 0 0 0
SMALL
GASTEIGER

@<TRIPOS>ATOM
      1  C          4.7150    1.8590    0.6850 C.3     1  UNL1        0.1270
      2  C          4.4200    1.1450    1.9180 C.2     1  UNL1        0.3030
      3  O          5.1570    0.3210    2.4630 O.2     1  UNL1       -0.2520
      4  O          3.1930    1.4170    2.5430 O.3     1  UNL1       -0.4810
      5  H          2.3820    0.9710    2.1430 H       1  UNL1        0.2960
      6  C          6.1390    2.2240    0.5280 C.3     1  UNL1        0.0470
      7  C          6.9900    1.3140   -0.2420 C.2     1  UNL1       -0.0430
      8  C          8.3530    1.5310   -0.3700 C.2     1  UNL1        0.0080
      9  C          6.4520    0.2360   -0.8930 C.2     1  UNL1        0.0540
     10  C          9.1480    0.6970   -1.1230 C.2     1  UNL1        0.0510
     11  C          7.2310   -0.6160   -1.6540 C.2     1  UNL1        0.1660
     12  C          8.5810   -0.3890   -1.7720 C.2     1  UNL1        0.1650
     13  O          6.9120   -1.7460   -2.3860 O.2     1  UNL1       -0.4540
     14  O          9.0900   -1.3990   -2.5900 O.2     1  UNL1       -0.4540
     15  C          8.0270   -2.0640   -3.2320 C.3     1  UNL1        0.4680
@<TRIPOS>BOND
     1    15    14    1
     2    15    13    1
     3    14    12    1
     4    13    11    1
     5    12    11    2
     6    12    10    1
     7    11     9    1
     8    10     8    2
     9     9     7    2
    10     8     7    1
    11     7     6    1
    12     6     1    1
    13     1     2    1
    14     2     3    2
    15     2     4    1
    16     5     4    1
