MODEL 1
REMARK VINA RESULT:      -7.6      0.000      0.000
REMARK SMILES O=C(O)CCc1ccc2c(c1)OCO2
REMARK SMILES IDX 4 1 2 2 1 3 3 4 5 6 6 7 7 8 11 9 8 10 10 11 9 12 12 13 14 14
REMARK SMILES IDX 13 15
REMARK H PARENT 3 5
REMARK Flexibility Score: inf
ROOT
ATOM      1  C   UNL     1       5.422   2.868   0.114  1.00  0.00     0.127 C 
ENDROOT
BRANCH   1   2
ATOM      2  C   UNL     1       6.257   3.839   0.803  1.00  0.00     0.303 C 
ATOM      3  O   UNL     1       6.900   4.742   0.265  1.00  0.00    -0.252 OA
BRANCH   2   4
ATOM      4  O   UNL     1       6.341   3.741   2.201  1.00  0.00    -0.481 OA
ATOM      5  H   UNL     1       5.906   4.484   2.726  1.00  0.00     0.296 HD
ENDBRANCH   2   4
ENDBRANCH   1   2
BRANCH   1   6
ATOM      6  C   UNL     1       5.330   1.561   0.800  1.00  0.00     0.047 C 
BRANCH   6   7
ATOM      7  C   UNL     1       6.108   0.450   0.248  1.00  0.00    -0.043 A 
ATOM      8  C   UNL     1       6.555  -0.590   1.049  1.00  0.00     0.008 A 
ATOM      9  C   UNL     1       6.451   0.426  -1.078  1.00  0.00     0.054 A 
ATOM     10  C   UNL     1       7.317  -1.617   0.538  1.00  0.00     0.051 A 
ATOM     11  C   UNL     1       7.214  -0.595  -1.612  1.00  0.00     0.166 A 
ATOM     12  C   UNL     1       7.650  -1.619  -0.807  1.00  0.00     0.165 A 
ATOM     13  O   UNL     1       7.673  -0.823  -2.898  1.00  0.00    -0.454 OA
ATOM     14  O   UNL     1       8.386  -2.484  -1.618  1.00  0.00    -0.454 OA
ATOM     15  C   UNL     1       8.674  -1.850  -2.843  1.00  0.00     0.468 C 
ENDBRANCH   6   7
ENDBRANCH   1   6
TORSDOF 4
ENDMDL
MODEL 2
REMARK VINA RESULT:      -7.6      2.130      2.521
REMARK SMILES O=C(O)CCc1ccc2c(c1)OCO2
REMARK SMILES IDX 4 1 2 2 1 3 3 4 5 6 6 7 7 8 11 9 8 10 10 11 9 12 12 13 14 14
REMARK SMILES IDX 13 15
REMARK H PARENT 3 5
REMARK Flexibility Score: inf
ROOT
ATOM      1  C   UNL     1       4.715   1.859   0.685  1.00  0.00     0.127 C 
ENDROOT
BRANCH   1   2
ATOM      2  C   UNL     1       4.420   1.145   1.918  1.00  0.00     0.303 C 
ATOM      3  O   UNL     1       5.157   0.321   2.463  1.00  0.00    -0.252 OA
BRANCH   2   4
ATOM      4  O   UNL     1       3.193   1.417   2.543  1.00  0.00    -0.481 OA
ATOM      5  H   UNL     1       2.382   0.971   2.143  1.00  0.00     0.296 HD
ENDBRANCH   2   4
ENDBRANCH   1   2
BRANCH   1   6
ATOM      6  C   UNL     1       6.139   2.224   0.528  1.00  0.00     0.047 C 
BRANCH   6   7
ATOM      7  C   UNL     1       6.990   1.314  -0.242  1.00  0.00    -0.043 A 
ATOM      8  C   UNL     1       8.353   1.531  -0.370  1.00  0.00     0.008 A 
ATOM      9  C   UNL     1       6.452   0.236  -0.893  1.00  0.00     0.054 A 
ATOM     10  C   UNL     1       9.148   0.697  -1.123  1.00  0.00     0.051 A 
ATOM     11  C   UNL     1       7.231  -0.616  -1.654  1.00  0.00     0.166 A 
ATOM     12  C   UNL     1       8.581  -0.389  -1.772  1.00  0.00     0.165 A 
ATOM     13  O   UNL     1       6.912  -1.746  -2.386  1.00  0.00    -0.454 OA
ATOM     14  O   UNL     1       9.090  -1.399  -2.590  1.00  0.00    -0.454 OA
ATOM     15  C   UNL     1       8.027  -2.064  -3.232  1.00  0.00     0.468 C 
ENDBRANCH   6   7
ENDBRANCH   1   6
TORSDOF 4
ENDMDL
MODEL 3
REMARK VINA RESULT:      -7.5      0.925      2.094
REMARK SMILES O=C(O)CCc1ccc2c(c1)OCO2
REMARK SMILES IDX 4 1 2 2 1 3 3 4 5 6 6 7 7 8 11 9 8 10 10 11 9 12 12 13 14 14
REMARK SMILES IDX 13 15
REMARK H PARENT 3 5
REMARK Flexibility Score: inf
ROOT
ATOM      1  C   UNL     1       5.403   2.814   0.125  1.00  0.00     0.127 C 
ENDROOT
BRANCH   1   2
ATOM      2  C   UNL     1       6.160   3.769   0.919  1.00  0.00     0.303 C 
ATOM      3  O   UNL     1       6.206   3.801   2.150  1.00  0.00    -0.252 OA
BRANCH   2   4
ATOM      4  O   UNL     1       6.903   4.738   0.226  1.00  0.00    -0.481 OA
ATOM      5  H   UNL     1       6.718   5.699   0.469  1.00  0.00     0.296 HD
ENDBRANCH   2   4
ENDBRANCH   1   2
BRANCH   1   6
ATOM      6  C   UNL     1       5.342   1.459   0.713  1.00  0.00     0.047 C 
BRANCH   6   7
ATOM      7  C   UNL     1       6.183   0.422   0.113  1.00  0.00    -0.043 A 
ATOM      8  C   UNL     1       6.454   0.404  -1.247  1.00  0.00     0.008 A 
ATOM      9  C   UNL     1       6.699  -0.591   0.878  1.00  0.00     0.054 A 
ATOM     10  C   UNL     1       7.215  -0.591  -1.818  1.00  0.00     0.051 A 
ATOM     11  C   UNL     1       7.466  -1.599   0.327  1.00  0.00     0.166 A 
ATOM     12  C   UNL     1       7.727  -1.603  -1.022  1.00  0.00     0.165 A 
ATOM     13  O   UNL     1       8.080  -2.702   0.895  1.00  0.00    -0.454 OA
ATOM     14  O   UNL     1       8.513  -2.728  -1.278  1.00  0.00    -0.454 OA
ATOM     15  C   UNL     1       8.481  -3.587  -0.162  1.00  0.00     0.468 C 
ENDBRANCH   6   7
ENDBRANCH   1   6
TORSDOF 4
ENDMDL
MODEL 4
REMARK VINA RESULT:      -7.5      1.797      5.271
REMARK SMILES O=C(O)CCc1ccc2c(c1)OCO2
REMARK SMILES IDX 4 1 2 2 1 3 3 4 5 6 6 7 7 8 11 9 8 10 10 11 9 12 12 13 14 14
REMARK SMILES IDX 13 15
REMARK H PARENT 3 5
REMARK Flexibility Score: inf
ROOT
ATOM      1  C   UNL     1       8.300  -0.311  -2.843  1.00  0.00     0.127 C 
ENDROOT
BRANCH   1   2
ATOM      2  C   UNL     1       8.464  -1.739  -3.064  1.00  0.00     0.303 C 
ATOM      3  O   UNL     1       9.531  -2.354  -3.019  1.00  0.00    -0.252 OA
BRANCH   2   4
ATOM      4  O   UNL     1       7.309  -2.483  -3.351  1.00  0.00    -0.481 OA
ATOM      5  H   UNL     1       7.007  -3.130  -2.639  1.00  0.00     0.296 HD
ENDBRANCH   2   4
ENDBRANCH   1   2
BRANCH   1   6
ATOM      6  C   UNL     1       8.762   0.149  -1.516  1.00  0.00     0.047 C 
BRANCH   6   7
ATOM      7  C   UNL     1       7.797   0.113  -0.414  1.00  0.00    -0.043 A 
ATOM      8  C   UNL     1       7.769  -0.936   0.491  1.00  0.00     0.008 A 
ATOM      9  C   UNL     1       6.864   1.105  -0.269  1.00  0.00     0.054 A 
ATOM     10  C   UNL     1       6.839  -0.989   1.506  1.00  0.00     0.051 A 
ATOM     11  C   UNL     1       5.922   1.074   0.742  1.00  0.00     0.166 A 
ATOM     12  C   UNL     1       5.906   0.028   1.633  1.00  0.00     0.165 A 
ATOM     13  O   UNL     1       4.903   1.949   1.076  1.00  0.00    -0.454 OA
ATOM     14  O   UNL     1       4.859   0.272   2.523  1.00  0.00    -0.454 OA
ATOM     15  C   UNL     1       4.033   1.291   2.009  1.00  0.00     0.468 C 
ENDBRANCH   6   7
ENDBRANCH   1   6
TORSDOF 4
ENDMDL
MODEL 5
REMARK VINA RESULT:      -7.4      1.953      2.852
REMARK SMILES O=C(O)CCc1ccc2c(c1)OCO2
REMARK SMILES IDX 4 1 2 2 1 3 3 4 5 6 6 7 7 8 11 9 8 10 10 11 9 12 12 13 14 14
REMARK SMILES IDX 13 15
REMARK H PARENT 3 5
REMARK Flexibility Score: inf
ROOT
ATOM      1  C   UNL     1       6.405   1.361   0.638  1.00  0.00     0.127 C 
ENDROOT
BRANCH   1   2
ATOM      2  C   UNL     1       5.209   1.325   1.465  1.00  0.00     0.303 C 
ATOM      3  O   UNL     1       4.250   2.094   1.373  1.00  0.00    -0.252 OA
BRANCH   2   4
ATOM      4  O   UNL     1       5.138   0.330   2.452  1.00  0.00    -0.481 OA
ATOM      5  H   UNL     1       5.975  -0.214   2.597  1.00  0.00     0.296 HD
ENDBRANCH   2   4
ENDBRANCH   1   2
BRANCH   1   6
ATOM      6  C   UNL     1       6.196   0.873  -0.742  1.00  0.00     0.047 C 
BRANCH   6   7
ATOM      7  C   UNL     1       6.962  -0.300  -1.168  1.00  0.00    -0.043 A 
ATOM      8  C   UNL     1       7.269  -0.520  -2.502  1.00  0.00     0.008 A 
ATOM      9  C   UNL     1       7.367  -1.241  -0.258  1.00  0.00     0.054 A 
ATOM     10  C   UNL     1       7.957  -1.641  -2.909  1.00  0.00     0.051 A 
ATOM     11  C   UNL     1       8.060  -2.373  -0.643  1.00  0.00     0.166 A 
ATOM     12  C   UNL     1       8.357  -2.577  -1.969  1.00  0.00     0.165 A 
ATOM     13  O   UNL     1       8.560  -3.437   0.087  1.00  0.00    -0.454 OA
ATOM     14  O   UNL     1       9.050  -3.786  -2.045  1.00  0.00    -0.454 OA
ATOM     15  C   UNL     1       8.913  -4.484  -0.829  1.00  0.00     0.468 C 
ENDBRANCH   6   7
ENDBRANCH   1   6
TORSDOF 4
ENDMDL
