@<TRIPOS>MOLECULE
/home/cewinharhar/GITHUB/reincatalyze/data/processed/docking_pred/2023-May-17-1006_maxeplen10_maxtrainstep1000_seadep16_gamma099_lrac9e-4_lrcr1e-3_sub6/4a3a178b6a4326eb13634b12f3ce9c4ec26f8538_ligand_6.pdbqt
 15 16 0 0 0
SMALL
GASTEIGER

@<TRIPOS>ATOM
      1  C          8.3000   -0.3110   -2.8430 C.3     1  UNL1        0.1270
      2  C          8.4640   -1.7390   -3.0640 C.2     1  UNL1        0.3030
      3  O          9.5310   -2.3540   -3.0190 O.2     1  UNL1       -0.2520
      4  O          7.3090   -2.4830   -3.3510 O.3     1  UNL1       -0.4810
      5  H          7.0070   -3.1300   -2.6390 H       1  UNL1        0.2960
      6  C          8.7620    0.1490   -1.5160 C.3     1  UNL1        0.0470
      7  C          7.7970    0.1130   -0.4140 C.2     1  UNL1       -0.0430
      8  C          7.7690   -0.9360    0.4910 C.2     1  UNL1        0.0080
      9  C          6.8640    1.1050   -0.2690 C.2     1  UNL1        0.0540
     10  C          6.8390   -0.9890    1.5060 C.2     1  UNL1        0.0510
     11  C          5.9220    1.0740    0.7420 C.2     1  UNL1        0.1660
     12  C          5.9060    0.0280    1.6330 C.2     1  UNL1        0.1650
     13  O          4.9030    1.9490    1.0760 O.2     1  UNL1       -0.4540
     14  O          4.8590    0.2720    2.5230 O.2     1  UNL1       -0.4540
     15  C          4.0330    1.2910    2.0090 C.3     1  UNL1        0.4680
@<TRIPOS>BOND
     1     4     2    1
     2     4     5    1
     3     2     3    2
     4     2     1    1
     5     1     6    1
     6     6     7    1
     7     7     9    2
     8     7     8    1
     9     9    11    1
    10     8    10    2
    11    11    13    1
    12    11    12    2
    13    13    15    1
    14    10    12    1
    15    12    14    1
    16    15    14    1
