@<TRIPOS>MOLECULE
/home/cewinharhar/GITHUB/reincatalyze/data/processed/docking_pred/2023-May-17-1006_maxeplen10_maxtrainstep1000_seadep16_gamma099_lrac9e-4_lrcr1e-3_sub6/4c3a486d5bbb1ad3c8ce5b6da142191fd088767a_ligand_6.pdbqt
 15 16 0 0 0
SMALL
GASTEIGER

@<TRIPOS>ATOM
      1  C          5.3940    2.8940    0.1500 C.3     1  UNL1        0.1270
      2  C          6.2270    3.8820    0.8180 C.2     1  UNL1        0.3030
      3  O          6.8720    4.7720    0.2600 O.2     1  UNL1       -0.2520
      4  O          6.3050    3.8180    2.2180 O.3     1  UNL1       -0.4810
      5  H          7.0800    4.3040    2.6440 H       1  UNL1        0.2960
      6  C          5.3510    1.5840    0.8350 C.3     1  UNL1        0.0470
      7  C          6.1680    0.5020    0.2800 C.2     1  UNL1       -0.0430
      8  C          6.4270    0.4140   -1.0790 C.2     1  UNL1        0.0080
      9  C          6.6710   -0.4810    1.0890 C.2     1  UNL1        0.0540
     10  C          7.1640   -0.6220   -1.6070 C.2     1  UNL1        0.0510
     11  C          7.4140   -1.5300    0.5820 C.2     1  UNL1        0.1660
     12  C          7.6640   -1.6050   -0.7670 C.2     1  UNL1        0.1650
     13  O          8.0120   -2.6160    1.1990 O.2     1  UNL1       -0.4540
     14  O          8.4260   -2.7560   -0.9730 O.2     1  UNL1       -0.4540
     15  C          8.3870   -3.5590    0.1840 C.3     1  UNL1        0.4680
@<TRIPOS>BOND
     1    10     8    1
     2    10    12    2
     3     8     7    2
     4    14    12    1
     5    14    15    1
     6    12    11    1
     7     1     2    1
     8     1     6    1
     9    15    13    1
    10     3     2    2
    11     7     6    1
    12     7     9    1
    13    11     9    2
    14    11    13    1
    15     2     4    1
    16     4     5    1
