@<TRIPOS>MOLECULE
/home/cewinharhar/GITHUB/reincatalyze/data/processed/docking_pred/2023-May-17-1006_maxeplen10_maxtrainstep1000_seadep16_gamma099_lrac9e-4_lrcr1e-3_sub6/4c3a486d5bbb1ad3c8ce5b6da142191fd088767a_ligand_6.pdbqt
 15 16 0 0 0
SMALL
GASTEIGER

@<TRIPOS>ATOM
      1  C          6.4240    1.3400    0.6520 C.3     1  UNL1        0.1270
      2  C          5.2020    1.3500    1.4420 C.2     1  UNL1        0.3030
      3  O          4.2740    2.1510    1.3170 O.2     1  UNL1       -0.2520
      4  O          5.0670    0.3640    2.4310 O.3     1  UNL1       -0.4810
      5  H          4.1260    0.1600    2.7310 H       1  UNL1        0.2960
      6  C          6.2330    0.8890   -0.7430 C.3     1  UNL1        0.0470
      7  C          6.9820   -0.2920   -1.1810 C.2     1  UNL1       -0.0430
      8  C          7.2490   -0.5250   -2.5210 C.2     1  UNL1        0.0080
      9  C          7.4080   -1.2260   -0.2740 C.2     1  UNL1        0.0540
     10  C          7.9210   -1.6520   -2.9370 C.2     1  UNL1        0.0510
     11  C          8.0850   -2.3650   -0.6690 C.2     1  UNL1        0.1660
     12  C          8.3440   -2.5820   -2.0010 C.2     1  UNL1        0.1650
     13  O          8.6010   -3.4250    0.0560 O.2     1  UNL1       -0.4540
     14  O          9.0290   -3.7950   -2.0860 O.2     1  UNL1       -0.4540
     15  C          8.9230   -4.4820   -0.8600 C.3     1  UNL1        0.4680
@<TRIPOS>BOND
     1    10     8    1
     2    10    12    2
     3     8     7    2
     4    14    12    1
     5    14    15    1
     6    12    11    1
     7     7     6    1
     8     7     9    1
     9    15    13    1
    10     6     1    1
    11    11     9    2
    12    11    13    1
    13     1     2    1
    14     3     2    2
    15     2     4    1
    16     4     5    1
