@<TRIPOS>MOLECULE
/home/cewinharhar/GITHUB/reincatalyze/data/processed/docking_pred/2023-May-17-1006_maxeplen10_maxtrainstep1000_seadep16_gamma099_lrac9e-4_lrcr1e-3_sub6/4c3a486d5bbb1ad3c8ce5b6da142191fd088767a_ligand_6.pdbqt
 15 16 0 0 0
SMALL
GASTEIGER

@<TRIPOS>ATOM
      1  C          8.2580   -0.2040   -2.8190 C.3     1  UNL1        0.1270
      2  C          8.4920   -1.6240   -3.0350 C.2     1  UNL1        0.3030
      3  O          9.5790   -2.1950   -2.9310 O.2     1  UNL1       -0.2520
      4  O          7.3870   -2.4110   -3.3940 O.3     1  UNL1       -0.4810
      5  H          6.6210   -1.9280   -3.8370 H       1  UNL1        0.2960
      6  C          8.7060    0.2830   -1.4970 C.3     1  UNL1        0.0470
      7  C          7.7460    0.2260   -0.3930 C.2     1  UNL1       -0.0430
      8  C          7.7500   -0.8180    0.5200 C.2     1  UNL1        0.0080
      9  C          6.7830    1.1910   -0.2520 C.2     1  UNL1        0.0540
     10  C          6.8250   -0.8910    1.5370 C.2     1  UNL1        0.0510
     11  C          5.8450    1.1380    0.7610 C.2     1  UNL1        0.1660
     12  C          5.8620    0.0980    1.6590 C.2     1  UNL1        0.1650
     13  O          4.8010    1.9850    1.0910 O.2     1  UNL1       -0.4540
     14  O          4.8100    0.3170    2.5490 O.2     1  UNL1       -0.4540
     15  C          3.9520    1.3070    2.0300 C.3     1  UNL1        0.4680
@<TRIPOS>BOND
     1     5     4    1
     2     4     2    1
     3     2     3    2
     4     2     1    1
     5     1     6    1
     6     6     7    1
     7     7     9    2
     8     7     8    1
     9     9    11    1
    10     8    10    2
    11    11    13    1
    12    11    12    2
    13    13    15    1
    14    10    12    1
    15    12    14    1
    16    15    14    1
