@<TRIPOS>MOLECULE
/home/cewinharhar/GITHUB/reincatalyze/data/processed/docking_pred/2023-May-17-1006_maxeplen10_maxtrainstep1000_seadep16_gamma099_lrac9e-4_lrcr1e-3_sub6/4c3a486d5bbb1ad3c8ce5b6da142191fd088767a_ligand_6.pdbqt
 15 16 0 0 0
SMALL
GASTEIGER

@<TRIPOS>ATOM
      1  C          5.4230    2.8740    0.1090 C.3     1  UNL1        0.1270
      2  C          6.2560    3.8550    0.7870 C.2     1  UNL1        0.3030
      3  O          6.9110    4.7420    0.2380 O.2     1  UNL1       -0.2520
      4  O          6.3200    3.7870    2.1880 O.3     1  UNL1       -0.4810
      5  H          7.1870    4.0830    2.6090 H       1  UNL1        0.2960
      6  C          5.3540    1.5670    0.7970 C.3     1  UNL1        0.0470
      7  C          6.1280    0.4610    0.2300 C.2     1  UNL1       -0.0430
      8  C          6.5670   -0.5940    1.0150 C.2     1  UNL1        0.0080
      9  C          6.4750    0.4570   -1.0950 C.2     1  UNL1        0.0540
     10  C          7.3260   -1.6160    0.4900 C.2     1  UNL1        0.0510
     11  C          7.2350   -0.5590   -1.6440 C.2     1  UNL1        0.1660
     12  C          7.6630   -1.5990   -0.8540 C.2     1  UNL1        0.1650
     13  O          7.6970   -0.7680   -2.9310 O.2     1  UNL1       -0.4540
     14  O          8.3970   -2.4540   -1.6770 O.2     1  UNL1       -0.4540
     15  C          8.6930   -1.8010   -2.8900 C.3     1  UNL1        0.4680
@<TRIPOS>BOND
     1    13    15    1
     2    13    11    1
     3    15    14    1
     4    14    12    1
     5    11     9    1
     6    11    12    2
     7     9     7    2
     8    12    10    1
     9     1     2    1
    10     1     6    1
    11     7     6    1
    12     7     8    1
    13     3     2    2
    14    10     8    2
    15     2     4    1
    16     4     5    1
