@<TRIPOS>MOLECULE
/home/cewinharhar/GITHUB/reincatalyze/data/processed/docking_pred/2023-May-17-1006_maxeplen10_maxtrainstep1000_seadep16_gamma099_lrac9e-4_lrcr1e-3_sub6/4c41b041102a8d5d821093d1e21668bd2b50a839_ligand_6.pdbqt
 15 16 0 0 0
SMALL
GASTEIGER

@<TRIPOS>ATOM
      1  C          6.4080    1.2930    0.6600 C.3     1  UNL1        0.1270
      2  C          5.1770    1.3100    1.4350 C.2     1  UNL1        0.3030
      3  O          4.2620    2.1270    1.3110 O.2     1  UNL1       -0.2520
      4  O          5.0140    0.3120    2.4080 O.3     1  UNL1       -0.4810
      5  H          5.6160   -0.4930    2.3260 H       1  UNL1        0.2960
      6  C          6.2350    0.8220   -0.7300 C.3     1  UNL1        0.0470
      7  C          6.9900   -0.3630   -1.1430 C.2     1  UNL1       -0.0430
      8  C          7.2970   -0.6000   -2.4740 C.2     1  UNL1        0.0080
      9  C          7.3840   -1.2980   -0.2220 C.2     1  UNL1        0.0540
     10  C          7.9760   -1.7320   -2.8670 C.2     1  UNL1        0.0510
     11  C          8.0670   -2.4410   -0.5940 C.2     1  UNL1        0.1660
     12  C          8.3650   -2.6620   -1.9170 C.2     1  UNL1        0.1650
     13  O          8.5550   -3.5010    0.1490 O.2     1  UNL1       -0.4540
     14  O          9.0470   -3.8780   -1.9780 O.2     1  UNL1       -0.4540
     15  C          8.9000   -4.5620   -0.7550 C.3     1  UNL1        0.4680
@<TRIPOS>BOND
     1    10     8    1
     2    10    12    2
     3     8     7    2
     4    14    12    1
     5    14    15    1
     6    12    11    1
     7     7     6    1
     8     7     9    1
     9    15    13    1
    10     6     1    1
    11    11     9    2
    12    11    13    1
    13     1     2    1
    14     3     2    2
    15     2     4    1
    16     5     4    1
