@<TRIPOS>MOLECULE
/home/cewinharhar/GITHUB/reincatalyze/data/processed/docking_pred/2023-May-17-1006_maxeplen10_maxtrainstep1000_seadep16_gamma099_lrac9e-4_lrcr1e-3_sub6/4c41b041102a8d5d821093d1e21668bd2b50a839_ligand_6.pdbqt
 15 16 0 0 0
SMALL
GASTEIGER

@<TRIPOS>ATOM
      1  C          5.4220    2.8680    0.1220 C.3     1  UNL1        0.1270
      2  C          6.2540    3.8460    0.8070 C.2     1  UNL1        0.3030
      3  O          6.8920    4.7490    0.2650 O.2     1  UNL1       -0.2520
      4  O          6.3370    3.7530    2.2050 O.3     1  UNL1       -0.4810
      5  H          7.1610    4.1520    2.6290 H       1  UNL1        0.2960
      6  C          5.3540    1.5570    0.8020 C.3     1  UNL1        0.0470
      7  C          6.1340    0.4570    0.2310 C.2     1  UNL1       -0.0430
      8  C          6.5910   -0.5910    1.0160 C.2     1  UNL1        0.0080
      9  C          6.4710    0.4520   -1.0960 C.2     1  UNL1        0.0540
     10  C          7.3560   -1.6070    0.4890 C.2     1  UNL1        0.0510
     11  C          7.2370   -0.5580   -1.6480 C.2     1  UNL1        0.1660
     12  C          7.6820   -1.5910   -0.8580 C.2     1  UNL1        0.1650
     13  O          7.6900   -0.7670   -2.9380 O.2     1  UNL1       -0.4540
     14  O          8.4180   -2.4420   -1.6840 O.2     1  UNL1       -0.4540
     15  C          8.6970   -1.7900   -2.9010 C.3     1  UNL1        0.4680
@<TRIPOS>BOND
     1    13    15    1
     2    13    11    1
     3    15    14    1
     4    14    12    1
     5    11     9    1
     6    11    12    2
     7     9     7    2
     8    12    10    1
     9     1     6    1
    10     1     2    1
    11     7     6    1
    12     7     8    1
    13     3     2    2
    14    10     8    2
    15     2     4    1
    16     4     5    1
