@<TRIPOS>MOLECULE
/home/cewinharhar/GITHUB/reincatalyze/data/processed/docking_pred/2023-May-17-1006_maxeplen10_maxtrainstep1000_seadep16_gamma099_lrac9e-4_lrcr1e-3_sub6/4c41b041102a8d5d821093d1e21668bd2b50a839_ligand_6.pdbqt
 15 16 0 0 0
SMALL
GASTEIGER

@<TRIPOS>ATOM
      1  C          8.3020   -0.3240   -2.8500 C.3     1  UNL1        0.1270
      2  C          8.4690   -1.7530   -3.0670 C.2     1  UNL1        0.3030
      3  O          9.5390   -2.3640   -3.0280 O.2     1  UNL1       -0.2520
      4  O          7.3150   -2.5020   -3.3450 O.3     1  UNL1       -0.4810
      5  H          7.1500   -2.7220   -4.3150 H       1  UNL1        0.2960
      6  C          8.7560    0.1380   -1.5210 C.3     1  UNL1        0.0470
      7  C          7.7870    0.1000   -0.4240 C.2     1  UNL1       -0.0430
      8  C          7.7360   -0.9650    0.4620 C.2     1  UNL1        0.0080
      9  C          6.8710    1.1060   -0.2630 C.2     1  UNL1        0.0540
     10  C          6.8020   -1.0190    1.4730 C.2     1  UNL1        0.0510
     11  C          5.9250    1.0730    0.7440 C.2     1  UNL1        0.1660
     12  C          5.8870    0.0110    1.6150 C.2     1  UNL1        0.1650
     13  O          4.9200    1.9600    1.0900 O.2     1  UNL1       -0.4540
     14  O          4.8410    0.2580    2.5060 O.2     1  UNL1       -0.4540
     15  C          4.0350    1.3010    2.0070 C.3     1  UNL1        0.4680
@<TRIPOS>BOND
     1     5     4    1
     2     4     2    1
     3     2     3    2
     4     2     1    1
     5     1     6    1
     6     6     7    1
     7     7     9    2
     8     7     8    1
     9     9    11    1
    10     8    10    2
    11    11    13    1
    12    11    12    2
    13    13    15    1
    14    10    12    1
    15    12    14    1
    16    15    14    1
