@<TRIPOS>MOLECULE
/home/cewinharhar/GITHUB/reincatalyze/data/processed/docking_pred/2023-May-17-1006_maxeplen10_maxtrainstep1000_seadep16_gamma099_lrac9e-4_lrcr1e-3_sub6/4c41b041102a8d5d821093d1e21668bd2b50a839_ligand_6.pdbqt
 15 16 0 0 0
SMALL
GASTEIGER

@<TRIPOS>ATOM
      1  C          5.4830    2.6280    0.1250 C.3     1  UNL1        0.1270
      2  C          6.1200    3.7010    0.8720 C.2     1  UNL1        0.3030
      3  O          6.1300    3.8120    2.0990 O.2     1  UNL1       -0.2520
      4  O          6.7810    4.6950    0.1340 O.3     1  UNL1       -0.4810
      5  H          6.2980    5.5760    0.0410 H       1  UNL1        0.2960
      6  C          5.6040    1.2990    0.7620 C.3     1  UNL1        0.0470
      7  C          6.3810    0.2770    0.0560 C.2     1  UNL1       -0.0430
      8  C          6.4940    0.2790   -1.3260 C.2     1  UNL1        0.0080
      9  C          6.9890   -0.7390    0.7430 C.2     1  UNL1        0.0540
     10  C          7.1940   -0.7010   -1.9930 C.2     1  UNL1        0.0510
     11  C          7.6980   -1.7330    0.0950 C.2     1  UNL1        0.1660
     12  C          7.8030   -1.7170   -1.2750 C.2     1  UNL1        0.1650
     13  O          8.3820   -2.8360    0.5750 O.2     1  UNL1       -0.4540
     14  O          8.5640   -2.8310   -1.6330 O.2     1  UNL1       -0.4540
     15  C          8.6680   -3.7040   -0.5320 C.3     1  UNL1        0.4680
@<TRIPOS>BOND
     1    10     8    1
     2    10    12    2
     3    14    12    1
     4    14    15    1
     5     8     7    2
     6    12    11    1
     7    15    13    1
     8     5     4    1
     9     7     9    1
    10     7     6    1
    11    11    13    1
    12    11     9    2
    13     1     6    1
    14     1     2    1
    15     4     2    1
    16     2     3    2
