@<TRIPOS>MOLECULE
/home/cewinharhar/GITHUB/reincatalyze/data/processed/docking_pred/2023-May-17-1006_maxeplen10_maxtrainstep1000_seadep16_gamma099_lrac9e-4_lrcr1e-3_sub6/4c41b041102a8d5d821093d1e21668bd2b50a839_ligand_6.pdbqt
 15 16 0 0 0
SMALL
GASTEIGER

@<TRIPOS>ATOM
      1  C          4.7220    1.8750    0.6890 C.3     1  UNL1        0.1270
      2  C          4.4180    1.1570    1.9170 C.2     1  UNL1        0.3030
      3  O          5.1500    0.3290    2.4630 O.2     1  UNL1       -0.2520
      4  O          3.1880    1.4290    2.5350 O.3     1  UNL1       -0.4810
      5  H          2.6610    0.6290    2.8500 H       1  UNL1        0.2960
      6  C          6.1490    2.2330    0.5400 C.3     1  UNL1        0.0470
      7  C          6.9970    1.3260   -0.2360 C.2     1  UNL1       -0.0430
      8  C          8.3570    1.5520   -0.3810 C.2     1  UNL1        0.0080
      9  C          6.4600    0.2420   -0.8780 C.2     1  UNL1        0.0540
     10  C          9.1500    0.7200   -1.1400 C.2     1  UNL1        0.0510
     11  C          7.2360   -0.6070   -1.6450 C.2     1  UNL1        0.1660
     12  C          8.5830   -0.3710   -1.7780 C.2     1  UNL1        0.1650
     13  O          6.9160   -1.7420   -2.3690 O.2     1  UNL1       -0.4540
     14  O          9.0890   -1.3800   -2.5990 O.2     1  UNL1       -0.4540
     15  C          8.0240   -2.0550   -3.2260 C.3     1  UNL1        0.4680
@<TRIPOS>BOND
     1    15    14    1
     2    15    13    1
     3    14    12    1
     4    13    11    1
     5    12    11    2
     6    12    10    1
     7    11     9    1
     8    10     8    2
     9     9     7    2
    10     8     7    1
    11     7     6    1
    12     6     1    1
    13     1     2    1
    14     2     3    2
    15     2     4    1
    16     4     5    1
