MODEL 1
REMARK VINA RESULT:      -7.6      0.000      0.000
REMARK SMILES O=C(O)CCc1ccc2c(c1)OCO2
REMARK SMILES IDX 4 1 2 2 1 3 3 4 5 6 6 7 7 8 11 9 8 10 10 11 9 12 12 13 14 14
REMARK SMILES IDX 13 15
REMARK H PARENT 3 5
REMARK Flexibility Score: inf
ROOT
ATOM      1  C   UNL     1       5.422   2.868   0.122  1.00  0.00     0.127 C 
ENDROOT
BRANCH   1   2
ATOM      2  C   UNL     1       6.254   3.846   0.807  1.00  0.00     0.303 C 
ATOM      3  O   UNL     1       6.892   4.749   0.265  1.00  0.00    -0.252 OA
BRANCH   2   4
ATOM      4  O   UNL     1       6.337   3.753   2.205  1.00  0.00    -0.481 OA
ATOM      5  H   UNL     1       7.161   4.152   2.629  1.00  0.00     0.296 HD
ENDBRANCH   2   4
ENDBRANCH   1   2
BRANCH   1   6
ATOM      6  C   UNL     1       5.354   1.557   0.802  1.00  0.00     0.047 C 
BRANCH   6   7
ATOM      7  C   UNL     1       6.134   0.457   0.231  1.00  0.00    -0.043 A 
ATOM      8  C   UNL     1       6.591  -0.591   1.016  1.00  0.00     0.008 A 
ATOM      9  C   UNL     1       6.471   0.452  -1.096  1.00  0.00     0.054 A 
ATOM     10  C   UNL     1       7.356  -1.607   0.489  1.00  0.00     0.051 A 
ATOM     11  C   UNL     1       7.237  -0.558  -1.648  1.00  0.00     0.166 A 
ATOM     12  C   UNL     1       7.682  -1.591  -0.858  1.00  0.00     0.165 A 
ATOM     13  O   UNL     1       7.690  -0.767  -2.938  1.00  0.00    -0.454 OA
ATOM     14  O   UNL     1       8.418  -2.442  -1.684  1.00  0.00    -0.454 OA
ATOM     15  C   UNL     1       8.697  -1.790  -2.901  1.00  0.00     0.468 C 
ENDBRANCH   6   7
ENDBRANCH   1   6
TORSDOF 4
ENDMDL
MODEL 2
REMARK VINA RESULT:      -7.6      2.121      2.514
REMARK SMILES O=C(O)CCc1ccc2c(c1)OCO2
REMARK SMILES IDX 4 1 2 2 1 3 3 4 5 6 6 7 7 8 11 9 8 10 10 11 9 12 12 13 14 14
REMARK SMILES IDX 13 15
REMARK H PARENT 3 5
REMARK Flexibility Score: inf
ROOT
ATOM      1  C   UNL     1       4.722   1.875   0.689  1.00  0.00     0.127 C 
ENDROOT
BRANCH   1   2
ATOM      2  C   UNL     1       4.418   1.157   1.917  1.00  0.00     0.303 C 
ATOM      3  O   UNL     1       5.150   0.329   2.463  1.00  0.00    -0.252 OA
BRANCH   2   4
ATOM      4  O   UNL     1       3.188   1.429   2.535  1.00  0.00    -0.481 OA
ATOM      5  H   UNL     1       2.661   0.629   2.850  1.00  0.00     0.296 HD
ENDBRANCH   2   4
ENDBRANCH   1   2
BRANCH   1   6
ATOM      6  C   UNL     1       6.149   2.233   0.540  1.00  0.00     0.047 C 
BRANCH   6   7
ATOM      7  C   UNL     1       6.997   1.326  -0.236  1.00  0.00    -0.043 A 
ATOM      8  C   UNL     1       8.357   1.552  -0.381  1.00  0.00     0.008 A 
ATOM      9  C   UNL     1       6.460   0.242  -0.878  1.00  0.00     0.054 A 
ATOM     10  C   UNL     1       9.150   0.720  -1.140  1.00  0.00     0.051 A 
ATOM     11  C   UNL     1       7.236  -0.607  -1.645  1.00  0.00     0.166 A 
ATOM     12  C   UNL     1       8.583  -0.371  -1.778  1.00  0.00     0.165 A 
ATOM     13  O   UNL     1       6.916  -1.742  -2.369  1.00  0.00    -0.454 OA
ATOM     14  O   UNL     1       9.089  -1.380  -2.599  1.00  0.00    -0.454 OA
ATOM     15  C   UNL     1       8.024  -2.055  -3.226  1.00  0.00     0.468 C 
ENDBRANCH   6   7
ENDBRANCH   1   6
TORSDOF 4
ENDMDL
MODEL 3
REMARK VINA RESULT:      -7.5      1.972      2.890
REMARK SMILES O=C(O)CCc1ccc2c(c1)OCO2
REMARK SMILES IDX 4 1 2 2 1 3 3 4 5 6 6 7 7 8 11 9 8 10 10 11 9 12 12 13 14 14
REMARK SMILES IDX 13 15
REMARK H PARENT 3 5
REMARK Flexibility Score: inf
ROOT
ATOM      1  C   UNL     1       6.408   1.293   0.660  1.00  0.00     0.127 C 
ENDROOT
BRANCH   1   2
ATOM      2  C   UNL     1       5.177   1.310   1.435  1.00  0.00     0.303 C 
ATOM      3  O   UNL     1       4.262   2.127   1.311  1.00  0.00    -0.252 OA
BRANCH   2   4
ATOM      4  O   UNL     1       5.014   0.312   2.408  1.00  0.00    -0.481 OA
ATOM      5  H   UNL     1       5.616  -0.493   2.326  1.00  0.00     0.296 HD
ENDBRANCH   2   4
ENDBRANCH   1   2
BRANCH   1   6
ATOM      6  C   UNL     1       6.235   0.822  -0.730  1.00  0.00     0.047 C 
BRANCH   6   7
ATOM      7  C   UNL     1       6.990  -0.363  -1.143  1.00  0.00    -0.043 A 
ATOM      8  C   UNL     1       7.297  -0.600  -2.474  1.00  0.00     0.008 A 
ATOM      9  C   UNL     1       7.384  -1.298  -0.222  1.00  0.00     0.054 A 
ATOM     10  C   UNL     1       7.976  -1.732  -2.867  1.00  0.00     0.051 A 
ATOM     11  C   UNL     1       8.067  -2.441  -0.594  1.00  0.00     0.166 A 
ATOM     12  C   UNL     1       8.365  -2.662  -1.917  1.00  0.00     0.165 A 
ATOM     13  O   UNL     1       8.555  -3.501   0.149  1.00  0.00    -0.454 OA
ATOM     14  O   UNL     1       9.047  -3.878  -1.978  1.00  0.00    -0.454 OA
ATOM     15  C   UNL     1       8.900  -4.562  -0.755  1.00  0.00     0.468 C 
ENDBRANCH   6   7
ENDBRANCH   1   6
TORSDOF 4
ENDMDL
MODEL 4
REMARK VINA RESULT:      -7.4      1.790      5.286
REMARK SMILES O=C(O)CCc1ccc2c(c1)OCO2
REMARK SMILES IDX 4 1 2 2 1 3 3 4 5 6 6 7 7 8 11 9 8 10 10 11 9 12 12 13 14 14
REMARK SMILES IDX 13 15
REMARK H PARENT 3 5
REMARK Flexibility Score: inf
ROOT
ATOM      1  C   UNL     1       8.302  -0.324  -2.850  1.00  0.00     0.127 C 
ENDROOT
BRANCH   1   2
ATOM      2  C   UNL     1       8.469  -1.753  -3.067  1.00  0.00     0.303 C 
ATOM      3  O   UNL     1       9.539  -2.364  -3.028  1.00  0.00    -0.252 OA
BRANCH   2   4
ATOM      4  O   UNL     1       7.315  -2.502  -3.345  1.00  0.00    -0.481 OA
ATOM      5  H   UNL     1       7.150  -2.722  -4.315  1.00  0.00     0.296 HD
ENDBRANCH   2   4
ENDBRANCH   1   2
BRANCH   1   6
ATOM      6  C   UNL     1       8.756   0.138  -1.521  1.00  0.00     0.047 C 
BRANCH   6   7
ATOM      7  C   UNL     1       7.787   0.100  -0.424  1.00  0.00    -0.043 A 
ATOM      8  C   UNL     1       7.736  -0.965   0.462  1.00  0.00     0.008 A 
ATOM      9  C   UNL     1       6.871   1.106  -0.263  1.00  0.00     0.054 A 
ATOM     10  C   UNL     1       6.802  -1.019   1.473  1.00  0.00     0.051 A 
ATOM     11  C   UNL     1       5.925   1.073   0.744  1.00  0.00     0.166 A 
ATOM     12  C   UNL     1       5.887   0.011   1.615  1.00  0.00     0.165 A 
ATOM     13  O   UNL     1       4.920   1.960   1.090  1.00  0.00    -0.454 OA
ATOM     14  O   UNL     1       4.841   0.258   2.506  1.00  0.00    -0.454 OA
ATOM     15  C   UNL     1       4.035   1.301   2.007  1.00  0.00     0.468 C 
ENDBRANCH   6   7
ENDBRANCH   1   6
TORSDOF 4
ENDMDL
MODEL 5
REMARK VINA RESULT:      -7.4      0.941      2.075
REMARK SMILES O=C(O)CCc1ccc2c(c1)OCO2
REMARK SMILES IDX 4 1 2 2 1 3 3 4 5 6 6 7 7 8 11 9 8 10 10 11 9 12 12 13 14 14
REMARK SMILES IDX 13 15
REMARK H PARENT 3 5
REMARK Flexibility Score: inf
ROOT
ATOM      1  C   UNL     1       5.483   2.628   0.125  1.00  0.00     0.127 C 
ENDROOT
BRANCH   1   2
ATOM      2  C   UNL     1       6.120   3.701   0.872  1.00  0.00     0.303 C 
ATOM      3  O   UNL     1       6.130   3.812   2.099  1.00  0.00    -0.252 OA
BRANCH   2   4
ATOM      4  O   UNL     1       6.781   4.695   0.134  1.00  0.00    -0.481 OA
ATOM      5  H   UNL     1       6.298   5.576   0.041  1.00  0.00     0.296 HD
ENDBRANCH   2   4
ENDBRANCH   1   2
BRANCH   1   6
ATOM      6  C   UNL     1       5.604   1.299   0.762  1.00  0.00     0.047 C 
BRANCH   6   7
ATOM      7  C   UNL     1       6.381   0.277   0.056  1.00  0.00    -0.043 A 
ATOM      8  C   UNL     1       6.494   0.279  -1.326  1.00  0.00     0.008 A 
ATOM      9  C   UNL     1       6.989  -0.739   0.743  1.00  0.00     0.054 A 
ATOM     10  C   UNL     1       7.194  -0.701  -1.993  1.00  0.00     0.051 A 
ATOM     11  C   UNL     1       7.698  -1.733   0.095  1.00  0.00     0.166 A 
ATOM     12  C   UNL     1       7.803  -1.717  -1.275  1.00  0.00     0.165 A 
ATOM     13  O   UNL     1       8.382  -2.836   0.575  1.00  0.00    -0.454 OA
ATOM     14  O   UNL     1       8.564  -2.831  -1.633  1.00  0.00    -0.454 OA
ATOM     15  C   UNL     1       8.668  -3.704  -0.532  1.00  0.00     0.468 C 
ENDBRANCH   6   7
ENDBRANCH   1   6
TORSDOF 4
ENDMDL
