@<TRIPOS>MOLECULE
/home/cewinharhar/GITHUB/reincatalyze/data/processed/docking_pred/2023-May-17-1006_maxeplen10_maxtrainstep1000_seadep16_gamma099_lrac9e-4_lrcr1e-3_sub6/4d620996829bdf69d2437cdb6940cc233521eaf3_ligand_6.pdbqt
 15 16 0 0 0
SMALL
GASTEIGER

@<TRIPOS>ATOM
      1  C          8.3190   -0.3220   -2.8380 C.3     1  UNL1        0.1270
      2  C          8.4770   -1.7490   -3.0680 C.2     1  UNL1        0.3030
      3  O          9.5430   -2.3660   -3.0390 O.2     1  UNL1       -0.2520
      4  O          7.3170   -2.4900   -3.3460 O.3     1  UNL1       -0.4810
      5  H          6.6920   -2.6460   -2.5700 H       1  UNL1        0.2960
      6  C          8.7690    0.1250   -1.5030 C.3     1  UNL1        0.0470
      7  C          7.7930    0.0890   -0.4120 C.2     1  UNL1       -0.0430
      8  C          7.7330   -0.9780    0.4720 C.2     1  UNL1        0.0080
      9  C          6.8790    1.0970   -0.2560 C.2     1  UNL1        0.0540
     10  C          6.7920   -1.0300    1.4760 C.2     1  UNL1        0.0510
     11  C          5.9270    1.0660    0.7450 C.2     1  UNL1        0.1660
     12  C          5.8800    0.0030    1.6140 C.2     1  UNL1        0.1650
     13  O          4.9230    1.9560    1.0860 O.2     1  UNL1       -0.4540
     14  O          4.8290    0.2520    2.4980 O.2     1  UNL1       -0.4540
     15  C          4.0290    1.2980    1.9970 C.3     1  UNL1        0.4680
@<TRIPOS>BOND
     1     4     2    1
     2     4     5    1
     3     2     3    2
     4     2     1    1
     5     1     6    1
     6     6     7    1
     7     7     9    2
     8     7     8    1
     9     9    11    1
    10     8    10    2
    11    11    13    1
    12    11    12    2
    13    13    15    1
    14    10    12    1
    15    12    14    1
    16    15    14    1
