@<TRIPOS>MOLECULE
/home/cewinharhar/GITHUB/reincatalyze/data/processed/docking_pred/2023-May-17-1006_maxeplen10_maxtrainstep1000_seadep16_gamma099_lrac9e-4_lrcr1e-3_sub6/4d620996829bdf69d2437cdb6940cc233521eaf3_ligand_6.pdbqt
 15 16 0 0 0
SMALL
GASTEIGER

@<TRIPOS>ATOM
      1  C          5.4110    2.8650    0.1490 C.3     1  UNL1        0.1270
      2  C          6.3240    3.7910    0.8010 C.2     1  UNL1        0.3030
      3  O          6.8470    4.7740    0.2730 O.2     1  UNL1       -0.2520
      4  O          6.6380    3.5460    2.1470 O.3     1  UNL1       -0.4810
      5  H          6.3430    2.6550    2.5180 H       1  UNL1        0.2960
      6  C          5.3130    1.5490    0.8160 C.3     1  UNL1        0.0470
      7  C          6.0960    0.4460    0.2550 C.2     1  UNL1       -0.0430
      8  C          6.5380   -0.6040    1.0450 C.2     1  UNL1        0.0080
      9  C          6.4480    0.4390   -1.0690 C.2     1  UNL1        0.0540
     10  C          7.3050   -1.6240    0.5270 C.2     1  UNL1        0.0510
     11  C          7.2150   -0.5740   -1.6110 C.2     1  UNL1        0.1660
     12  C          7.6460   -1.6090   -0.8160 C.2     1  UNL1        0.1650
     13  O          7.6830   -0.7850   -2.8970 O.2     1  UNL1       -0.4540
     14  O          8.3890   -2.4630   -1.6330 O.2     1  UNL1       -0.4540
     15  C          8.6840   -1.8130   -2.8480 C.3     1  UNL1        0.4680
@<TRIPOS>BOND
     1    13    15    1
     2    13    11    1
     3    15    14    1
     4    14    12    1
     5    11     9    1
     6    11    12    2
     7     9     7    2
     8    12    10    1
     9     1     2    1
    10     1     6    1
    11     7     6    1
    12     7     8    1
    13     3     2    2
    14    10     8    2
    15     2     4    1
    16     4     5    1
