@<TRIPOS>MOLECULE
/home/cewinharhar/GITHUB/reincatalyze/data/processed/docking_pred/2023-May-17-1006_maxeplen10_maxtrainstep1000_seadep16_gamma099_lrac9e-4_lrcr1e-3_sub6/4d620996829bdf69d2437cdb6940cc233521eaf3_ligand_6.pdbqt
 15 16 0 0 0
SMALL
GASTEIGER

@<TRIPOS>ATOM
      1  C          4.7370    1.8560    0.7110 C.3     1  UNL1        0.1270
      2  C          4.4170    1.1300    1.9300 C.2     1  UNL1        0.3030
      3  O          5.1310    0.2820    2.4680 O.2     1  UNL1       -0.2520
      4  O          3.1900    1.4180    2.5480 O.3     1  UNL1       -0.4810
      5  H          2.6850    0.6300    2.9220 H       1  UNL1        0.2960
      6  C          6.1690    2.1990    0.5750 C.3     1  UNL1        0.0470
      7  C          7.0090    1.2980   -0.2170 C.2     1  UNL1       -0.0430
      8  C          8.3690    1.5220   -0.3700 C.2     1  UNL1        0.0080
      9  C          6.4640    0.2220   -0.8660 C.2     1  UNL1        0.0540
     10  C          9.1530    0.6960   -1.1440 C.2     1  UNL1        0.0510
     11  C          7.2320   -0.6200   -1.6470 C.2     1  UNL1        0.1660
     12  C          8.5780   -0.3870   -1.7890 C.2     1  UNL1        0.1650
     13  O          6.9030   -1.7470   -2.3810 O.2     1  UNL1       -0.4540
     14  O          9.0750   -1.3890   -2.6240 O.2     1  UNL1       -0.4540
     15  C          8.0030   -2.0540   -3.2500 C.3     1  UNL1        0.4680
@<TRIPOS>BOND
     1    15    14    1
     2    15    13    1
     3    14    12    1
     4    13    11    1
     5    12    11    2
     6    12    10    1
     7    11     9    1
     8    10     8    2
     9     9     7    2
    10     8     7    1
    11     7     6    1
    12     6     1    1
    13     1     2    1
    14     2     3    2
    15     2     4    1
    16     4     5    1
