MODEL 1
REMARK VINA RESULT:      -7.6      0.000      0.000
REMARK SMILES O=C(O)CCc1ccc2c(c1)OCO2
REMARK SMILES IDX 4 1 2 2 1 3 3 4 5 6 6 7 7 8 11 9 8 10 10 11 9 12 12 13 14 14
REMARK SMILES IDX 13 15
REMARK H PARENT 3 5
REMARK Flexibility Score: inf
ROOT
ATOM      1  C   UNL     1       5.411   2.865   0.149  1.00  0.00     0.127 C 
ENDROOT
BRANCH   1   2
ATOM      2  C   UNL     1       6.324   3.791   0.801  1.00  0.00     0.303 C 
ATOM      3  O   UNL     1       6.847   4.774   0.273  1.00  0.00    -0.252 OA
BRANCH   2   4
ATOM      4  O   UNL     1       6.638   3.546   2.147  1.00  0.00    -0.481 OA
ATOM      5  H   UNL     1       6.343   2.655   2.518  1.00  0.00     0.296 HD
ENDBRANCH   2   4
ENDBRANCH   1   2
BRANCH   1   6
ATOM      6  C   UNL     1       5.313   1.549   0.816  1.00  0.00     0.047 C 
BRANCH   6   7
ATOM      7  C   UNL     1       6.096   0.446   0.255  1.00  0.00    -0.043 A 
ATOM      8  C   UNL     1       6.538  -0.604   1.045  1.00  0.00     0.008 A 
ATOM      9  C   UNL     1       6.448   0.439  -1.069  1.00  0.00     0.054 A 
ATOM     10  C   UNL     1       7.305  -1.624   0.527  1.00  0.00     0.051 A 
ATOM     11  C   UNL     1       7.215  -0.574  -1.611  1.00  0.00     0.166 A 
ATOM     12  C   UNL     1       7.646  -1.609  -0.816  1.00  0.00     0.165 A 
ATOM     13  O   UNL     1       7.683  -0.785  -2.897  1.00  0.00    -0.454 OA
ATOM     14  O   UNL     1       8.389  -2.463  -1.633  1.00  0.00    -0.454 OA
ATOM     15  C   UNL     1       8.684  -1.813  -2.848  1.00  0.00     0.468 C 
ENDBRANCH   6   7
ENDBRANCH   1   6
TORSDOF 4
ENDMDL
MODEL 2
REMARK VINA RESULT:      -7.6      2.134      2.553
REMARK SMILES O=C(O)CCc1ccc2c(c1)OCO2
REMARK SMILES IDX 4 1 2 2 1 3 3 4 5 6 6 7 7 8 11 9 8 10 10 11 9 12 12 13 14 14
REMARK SMILES IDX 13 15
REMARK H PARENT 3 5
REMARK Flexibility Score: inf
ROOT
ATOM      1  C   UNL     1       4.737   1.856   0.711  1.00  0.00     0.127 C 
ENDROOT
BRANCH   1   2
ATOM      2  C   UNL     1       4.417   1.130   1.930  1.00  0.00     0.303 C 
ATOM      3  O   UNL     1       5.131   0.282   2.468  1.00  0.00    -0.252 OA
BRANCH   2   4
ATOM      4  O   UNL     1       3.190   1.418   2.548  1.00  0.00    -0.481 OA
ATOM      5  H   UNL     1       2.685   0.630   2.922  1.00  0.00     0.296 HD
ENDBRANCH   2   4
ENDBRANCH   1   2
BRANCH   1   6
ATOM      6  C   UNL     1       6.169   2.199   0.575  1.00  0.00     0.047 C 
BRANCH   6   7
ATOM      7  C   UNL     1       7.009   1.298  -0.217  1.00  0.00    -0.043 A 
ATOM      8  C   UNL     1       8.369   1.522  -0.370  1.00  0.00     0.008 A 
ATOM      9  C   UNL     1       6.464   0.222  -0.866  1.00  0.00     0.054 A 
ATOM     10  C   UNL     1       9.153   0.696  -1.144  1.00  0.00     0.051 A 
ATOM     11  C   UNL     1       7.232  -0.620  -1.647  1.00  0.00     0.166 A 
ATOM     12  C   UNL     1       8.578  -0.387  -1.789  1.00  0.00     0.165 A 
ATOM     13  O   UNL     1       6.903  -1.747  -2.381  1.00  0.00    -0.454 OA
ATOM     14  O   UNL     1       9.075  -1.389  -2.624  1.00  0.00    -0.454 OA
ATOM     15  C   UNL     1       8.003  -2.054  -3.250  1.00  0.00     0.468 C 
ENDBRANCH   6   7
ENDBRANCH   1   6
TORSDOF 4
ENDMDL
MODEL 3
REMARK VINA RESULT:      -7.5      1.973      2.865
REMARK SMILES O=C(O)CCc1ccc2c(c1)OCO2
REMARK SMILES IDX 4 1 2 2 1 3 3 4 5 6 6 7 7 8 11 9 8 10 10 11 9 12 12 13 14 14
REMARK SMILES IDX 13 15
REMARK H PARENT 3 5
REMARK Flexibility Score: inf
ROOT
ATOM      1  C   UNL     1       6.416   1.331   0.695  1.00  0.00     0.127 C 
ENDROOT
BRANCH   1   2
ATOM      2  C   UNL     1       5.193   1.335   1.481  1.00  0.00     0.303 C 
ATOM      3  O   UNL     1       4.252   2.119   1.341  1.00  0.00    -0.252 OA
BRANCH   2   4
ATOM      4  O   UNL     1       5.070   0.362   2.486  1.00  0.00    -0.481 OA
ATOM      5  H   UNL     1       4.412  -0.381   2.308  1.00  0.00     0.296 HD
ENDBRANCH   2   4
ENDBRANCH   1   2
BRANCH   1   6
ATOM      6  C   UNL     1       6.237   0.853  -0.693  1.00  0.00     0.047 C 
BRANCH   6   7
ATOM      7  C   UNL     1       6.985  -0.339  -1.100  1.00  0.00    -0.043 A 
ATOM      8  C   UNL     1       7.278  -0.591  -2.431  1.00  0.00     0.008 A 
ATOM      9  C   UNL     1       7.384  -1.265  -0.173  1.00  0.00     0.054 A 
ATOM     10  C   UNL     1       7.949  -1.729  -2.819  1.00  0.00     0.051 A 
ATOM     11  C   UNL     1       8.060  -2.414  -0.539  1.00  0.00     0.166 A 
ATOM     12  C   UNL     1       8.344  -2.650  -1.862  1.00  0.00     0.165 A 
ATOM     13  O   UNL     1       8.552  -3.469   0.210  1.00  0.00    -0.454 OA
ATOM     14  O   UNL     1       9.021  -3.870  -1.917  1.00  0.00    -0.454 OA
ATOM     15  C   UNL     1       8.884  -4.540  -0.686  1.00  0.00     0.468 C 
ENDBRANCH   6   7
ENDBRANCH   1   6
TORSDOF 4
ENDMDL
MODEL 4
REMARK VINA RESULT:      -7.4      1.790      5.251
REMARK SMILES O=C(O)CCc1ccc2c(c1)OCO2
REMARK SMILES IDX 4 1 2 2 1 3 3 4 5 6 6 7 7 8 11 9 8 10 10 11 9 12 12 13 14 14
REMARK SMILES IDX 13 15
REMARK H PARENT 3 5
REMARK Flexibility Score: inf
ROOT
ATOM      1  C   UNL     1       8.319  -0.322  -2.838  1.00  0.00     0.127 C 
ENDROOT
BRANCH   1   2
ATOM      2  C   UNL     1       8.477  -1.749  -3.068  1.00  0.00     0.303 C 
ATOM      3  O   UNL     1       9.543  -2.366  -3.039  1.00  0.00    -0.252 OA
BRANCH   2   4
ATOM      4  O   UNL     1       7.317  -2.490  -3.346  1.00  0.00    -0.481 OA
ATOM      5  H   UNL     1       6.692  -2.646  -2.570  1.00  0.00     0.296 HD
ENDBRANCH   2   4
ENDBRANCH   1   2
BRANCH   1   6
ATOM      6  C   UNL     1       8.769   0.125  -1.503  1.00  0.00     0.047 C 
BRANCH   6   7
ATOM      7  C   UNL     1       7.793   0.089  -0.412  1.00  0.00    -0.043 A 
ATOM      8  C   UNL     1       7.733  -0.978   0.472  1.00  0.00     0.008 A 
ATOM      9  C   UNL     1       6.879   1.097  -0.256  1.00  0.00     0.054 A 
ATOM     10  C   UNL     1       6.792  -1.030   1.476  1.00  0.00     0.051 A 
ATOM     11  C   UNL     1       5.927   1.066   0.745  1.00  0.00     0.166 A 
ATOM     12  C   UNL     1       5.880   0.003   1.614  1.00  0.00     0.165 A 
ATOM     13  O   UNL     1       4.923   1.956   1.086  1.00  0.00    -0.454 OA
ATOM     14  O   UNL     1       4.829   0.252   2.498  1.00  0.00    -0.454 OA
ATOM     15  C   UNL     1       4.029   1.298   1.997  1.00  0.00     0.468 C 
ENDBRANCH   6   7
ENDBRANCH   1   6
TORSDOF 4
ENDMDL
MODEL 5
REMARK VINA RESULT:      -7.4      0.951      2.104
REMARK SMILES O=C(O)CCc1ccc2c(c1)OCO2
REMARK SMILES IDX 4 1 2 2 1 3 3 4 5 6 6 7 7 8 11 9 8 10 10 11 9 12 12 13 14 14
REMARK SMILES IDX 13 15
REMARK H PARENT 3 5
REMARK Flexibility Score: inf
ROOT
ATOM      1  C   UNL     1       5.393   2.827   0.080  1.00  0.00     0.127 C 
ENDROOT
BRANCH   1   2
ATOM      2  C   UNL     1       6.132   3.828   0.832  1.00  0.00     0.303 C 
ATOM      3  O   UNL     1       6.173   3.918   2.061  1.00  0.00    -0.252 OA
BRANCH   2   4
ATOM      4  O   UNL     1       6.864   4.775   0.098  1.00  0.00    -0.481 OA
ATOM      5  H   UNL     1       6.528   5.725   0.136  1.00  0.00     0.296 HD
ENDBRANCH   2   4
ENDBRANCH   1   2
BRANCH   1   6
ATOM      6  C   UNL     1       5.378   1.490   0.713  1.00  0.00     0.047 C 
BRANCH   6   7
ATOM      7  C   UNL     1       6.226   0.453   0.122  1.00  0.00    -0.043 A 
ATOM      8  C   UNL     1       6.529   0.447  -1.231  1.00  0.00     0.008 A 
ATOM      9  C   UNL     1       6.716  -0.571   0.889  1.00  0.00     0.054 A 
ATOM     10  C   UNL     1       7.296  -0.548  -1.794  1.00  0.00     0.051 A 
ATOM     11  C   UNL     1       7.489  -1.580   0.346  1.00  0.00     0.166 A 
ATOM     12  C   UNL     1       7.782  -1.572  -0.997  1.00  0.00     0.165 A 
ATOM     13  O   UNL     1       8.081  -2.693   0.917  1.00  0.00    -0.454 OA
ATOM     14  O   UNL     1       8.565  -2.701  -1.245  1.00  0.00    -0.454 OA
ATOM     15  C   UNL     1       8.500  -3.571  -0.139  1.00  0.00     0.468 C 
ENDBRANCH   6   7
ENDBRANCH   1   6
TORSDOF 4
ENDMDL
