@<TRIPOS>MOLECULE
/home/cewinharhar/GITHUB/reincatalyze/data/processed/docking_pred/2023-May-17-1006_maxeplen10_maxtrainstep1000_seadep16_gamma099_lrac9e-4_lrcr1e-3_sub6/4d620996829bdf69d2437cdb6940cc233521eaf3_ligand_6.pdbqt
 15 16 0 0 0
SMALL
GASTEIGER

@<TRIPOS>ATOM
      1  C          6.4160    1.3310    0.6950 C.3     1  UNL1        0.1270
      2  C          5.1930    1.3350    1.4810 C.2     1  UNL1        0.3030
      3  O          4.2520    2.1190    1.3410 O.2     1  UNL1       -0.2520
      4  O          5.0700    0.3620    2.4860 O.3     1  UNL1       -0.4810
      5  H          4.4120   -0.3810    2.3080 H       1  UNL1        0.2960
      6  C          6.2370    0.8530   -0.6930 C.3     1  UNL1        0.0470
      7  C          6.9850   -0.3390   -1.1000 C.2     1  UNL1       -0.0430
      8  C          7.2780   -0.5910   -2.4310 C.2     1  UNL1        0.0080
      9  C          7.3840   -1.2650   -0.1730 C.2     1  UNL1        0.0540
     10  C          7.9490   -1.7290   -2.8190 C.2     1  UNL1        0.0510
     11  C          8.0600   -2.4140   -0.5390 C.2     1  UNL1        0.1660
     12  C          8.3440   -2.6500   -1.8620 C.2     1  UNL1        0.1650
     13  O          8.5520   -3.4690    0.2100 O.2     1  UNL1       -0.4540
     14  O          9.0210   -3.8700   -1.9170 O.2     1  UNL1       -0.4540
     15  C          8.8840   -4.5400   -0.6860 C.3     1  UNL1        0.4680
@<TRIPOS>BOND
     1    10     8    1
     2    10    12    2
     3     8     7    2
     4    14    12    1
     5    14    15    1
     6    12    11    1
     7     7     6    1
     8     7     9    1
     9     6     1    1
    10    15    13    1
    11    11     9    2
    12    11    13    1
    13     1     2    1
    14     3     2    2
    15     2     4    1
    16     5     4    1
