@<TRIPOS>MOLECULE
/home/cewinharhar/GITHUB/reincatalyze/data/processed/docking_pred/2023-May-17-1006_maxeplen10_maxtrainstep1000_seadep16_gamma099_lrac9e-4_lrcr1e-3_sub6/4d620996829bdf69d2437cdb6940cc233521eaf3_ligand_6.pdbqt
 15 16 0 0 0
SMALL
GASTEIGER

@<TRIPOS>ATOM
      1  C          5.3930    2.8270    0.0800 C.3     1  UNL1        0.1270
      2  C          6.1320    3.8280    0.8320 C.2     1  UNL1        0.3030
      3  O          6.1730    3.9180    2.0610 O.2     1  UNL1       -0.2520
      4  O          6.8640    4.7750    0.0980 O.3     1  UNL1       -0.4810
      5  H          6.5280    5.7250    0.1360 H       1  UNL1        0.2960
      6  C          5.3780    1.4900    0.7130 C.3     1  UNL1        0.0470
      7  C          6.2260    0.4530    0.1220 C.2     1  UNL1       -0.0430
      8  C          6.5290    0.4470   -1.2310 C.2     1  UNL1        0.0080
      9  C          6.7160   -0.5710    0.8890 C.2     1  UNL1        0.0540
     10  C          7.2960   -0.5480   -1.7940 C.2     1  UNL1        0.0510
     11  C          7.4890   -1.5800    0.3460 C.2     1  UNL1        0.1660
     12  C          7.7820   -1.5720   -0.9970 C.2     1  UNL1        0.1650
     13  O          8.0810   -2.6930    0.9170 O.2     1  UNL1       -0.4540
     14  O          8.5650   -2.7010   -1.2450 O.2     1  UNL1       -0.4540
     15  C          8.5000   -3.5710   -0.1390 C.3     1  UNL1        0.4680
@<TRIPOS>BOND
     1    10     8    1
     2    10    12    2
     3    14    12    1
     4    14    15    1
     5     8     7    2
     6    12    11    1
     7    15    13    1
     8     1     6    1
     9     1     2    1
    10     4     5    1
    11     4     2    1
    12     7     6    1
    13     7     9    1
    14    11     9    2
    15    11    13    1
    16     2     3    2
