@<TRIPOS>MOLECULE
/home/cewinharhar/GITHUB/reincatalyze/data/processed/docking_pred/2023-May-17-1006_maxeplen10_maxtrainstep1000_seadep16_gamma099_lrac9e-4_lrcr1e-3_sub6/4dfe2a4ebf2cd2c58b23ebebd9c83ff91bb12173_ligand_6.pdbqt
 15 16 0 0 0
SMALL
GASTEIGER

@<TRIPOS>ATOM
      1  C          6.3920    1.3270    0.6170 C.3     1  UNL1        0.1270
      2  C          5.1900    1.3290    1.4360 C.2     1  UNL1        0.3030
      3  O          4.2540    2.1250    1.3340 O.2     1  UNL1       -0.2520
      4  O          5.0830    0.3410    2.4270 O.3     1  UNL1       -0.4810
      5  H          4.3990   -0.3810    2.2640 H       1  UNL1        0.2960
      6  C          6.1820    0.8200   -0.7560 C.3     1  UNL1        0.0470
      7  C          6.9550   -0.3530   -1.1710 C.2     1  UNL1       -0.0430
      8  C          7.2770   -0.5760   -2.5000 C.2     1  UNL1        0.0080
      9  C          7.3510   -1.2900   -0.2540 C.2     1  UNL1        0.0540
     10  C          7.9720   -1.6970   -2.8960 C.2     1  UNL1        0.0510
     11  C          8.0500   -2.4220   -0.6270 C.2     1  UNL1        0.1660
     12  C          8.3630   -2.6300   -1.9490 C.2     1  UNL1        0.1650
     13  O          8.5430   -3.4830    0.1110 O.2     1  UNL1       -0.4540
     14  O          9.0590   -3.8380   -2.0140 O.2     1  UNL1       -0.4540
     15  C          8.9080   -4.5330   -0.7970 C.3     1  UNL1        0.4680
@<TRIPOS>BOND
     1    10     8    1
     2    10    12    2
     3     8     7    2
     4    14    12    1
     5    14    15    1
     6    12    11    1
     7     7     6    1
     8     7     9    1
     9    15    13    1
    10     6     1    1
    11    11     9    2
    12    11    13    1
    13     1     2    1
    14     3     2    2
    15     2     4    1
    16     5     4    1
