MODEL 1
REMARK VINA RESULT:      -7.7      0.000      0.000
REMARK SMILES O=C(O)CCc1ccc2c(c1)OCO2
REMARK SMILES IDX 4 1 2 2 1 3 3 4 5 6 6 7 7 8 11 9 8 10 10 11 9 12 12 13 14 14
REMARK SMILES IDX 13 15
REMARK H PARENT 3 5
REMARK Flexibility Score: inf
ROOT
ATOM      1  C   UNL     1       5.411   2.878   0.124  1.00  0.00     0.127 C 
ENDROOT
BRANCH   1   2
ATOM      2  C   UNL     1       6.239   3.853   0.816  1.00  0.00     0.303 C 
ATOM      3  O   UNL     1       6.867   4.769   0.281  1.00  0.00    -0.252 OA
BRANCH   2   4
ATOM      4  O   UNL     1       6.332   3.744   2.212  1.00  0.00    -0.481 OA
ATOM      5  H   UNL     1       6.981   4.369   2.665  1.00  0.00     0.296 HD
ENDBRANCH   2   4
ENDBRANCH   1   2
BRANCH   1   6
ATOM      6  C   UNL     1       5.334   1.567   0.803  1.00  0.00     0.047 C 
BRANCH   6   7
ATOM      7  C   UNL     1       6.114   0.464   0.237  1.00  0.00    -0.043 A 
ATOM      8  C   UNL     1       6.580  -0.575   1.029  1.00  0.00     0.008 A 
ATOM      9  C   UNL     1       6.441   0.447  -1.093  1.00  0.00     0.054 A 
ATOM     10  C   UNL     1       7.344  -1.594   0.505  1.00  0.00     0.051 A 
ATOM     11  C   UNL     1       7.206  -0.565  -1.640  1.00  0.00     0.166 A 
ATOM     12  C   UNL     1       7.660  -1.589  -0.844  1.00  0.00     0.165 A 
ATOM     13  O   UNL     1       7.650  -0.785  -2.932  1.00  0.00    -0.454 OA
ATOM     14  O   UNL     1       8.393  -2.445  -1.667  1.00  0.00    -0.454 OA
ATOM     15  C   UNL     1       8.661  -1.804  -2.893  1.00  0.00     0.468 C 
ENDBRANCH   6   7
ENDBRANCH   1   6
TORSDOF 4
ENDMDL
MODEL 2
REMARK VINA RESULT:      -7.6      2.125      2.511
REMARK SMILES O=C(O)CCc1ccc2c(c1)OCO2
REMARK SMILES IDX 4 1 2 2 1 3 3 4 5 6 6 7 7 8 11 9 8 10 10 11 9 12 12 13 14 14
REMARK SMILES IDX 13 15
REMARK H PARENT 3 5
REMARK Flexibility Score: inf
ROOT
ATOM      1  C   UNL     1       4.679   1.860   0.697  1.00  0.00     0.127 C 
ENDROOT
BRANCH   1   2
ATOM      2  C   UNL     1       4.398   1.139   1.929  1.00  0.00     0.303 C 
ATOM      3  O   UNL     1       5.142   0.313   2.462  1.00  0.00    -0.252 OA
BRANCH   2   4
ATOM      4  O   UNL     1       3.177   1.405   2.568  1.00  0.00    -0.481 OA
ATOM      5  H   UNL     1       2.509   1.949   2.043  1.00  0.00     0.296 HD
ENDBRANCH   2   4
ENDBRANCH   1   2
BRANCH   1   6
ATOM      6  C   UNL     1       6.099   2.235   0.531  1.00  0.00     0.047 C 
BRANCH   6   7
ATOM      7  C   UNL     1       6.955   1.326  -0.234  1.00  0.00    -0.043 A 
ATOM      8  C   UNL     1       8.319   1.544  -0.356  1.00  0.00     0.008 A 
ATOM      9  C   UNL     1       6.422   0.247  -0.889  1.00  0.00     0.054 A 
ATOM     10  C   UNL     1       9.119   0.710  -1.105  1.00  0.00     0.051 A 
ATOM     11  C   UNL     1       7.205  -0.604  -1.645  1.00  0.00     0.166 A 
ATOM     12  C   UNL     1       8.556  -0.375  -1.756  1.00  0.00     0.165 A 
ATOM     13  O   UNL     1       6.890  -1.734  -2.379  1.00  0.00    -0.454 OA
ATOM     14  O   UNL     1       9.069  -1.385  -2.572  1.00  0.00    -0.454 OA
ATOM     15  C   UNL     1       8.010  -2.051  -3.219  1.00  0.00     0.468 C 
ENDBRANCH   6   7
ENDBRANCH   1   6
TORSDOF 4
ENDMDL
MODEL 3
REMARK VINA RESULT:      -7.5      1.962      2.876
REMARK SMILES O=C(O)CCc1ccc2c(c1)OCO2
REMARK SMILES IDX 4 1 2 2 1 3 3 4 5 6 6 7 7 8 11 9 8 10 10 11 9 12 12 13 14 14
REMARK SMILES IDX 13 15
REMARK H PARENT 3 5
REMARK Flexibility Score: inf
ROOT
ATOM      1  C   UNL     1       6.392   1.327   0.617  1.00  0.00     0.127 C 
ENDROOT
BRANCH   1   2
ATOM      2  C   UNL     1       5.190   1.329   1.436  1.00  0.00     0.303 C 
ATOM      3  O   UNL     1       4.254   2.125   1.334  1.00  0.00    -0.252 OA
BRANCH   2   4
ATOM      4  O   UNL     1       5.083   0.341   2.427  1.00  0.00    -0.481 OA
ATOM      5  H   UNL     1       4.399  -0.381   2.264  1.00  0.00     0.296 HD
ENDBRANCH   2   4
ENDBRANCH   1   2
BRANCH   1   6
ATOM      6  C   UNL     1       6.182   0.820  -0.756  1.00  0.00     0.047 C 
BRANCH   6   7
ATOM      7  C   UNL     1       6.955  -0.353  -1.171  1.00  0.00    -0.043 A 
ATOM      8  C   UNL     1       7.277  -0.576  -2.500  1.00  0.00     0.008 A 
ATOM      9  C   UNL     1       7.351  -1.290  -0.254  1.00  0.00     0.054 A 
ATOM     10  C   UNL     1       7.972  -1.697  -2.896  1.00  0.00     0.051 A 
ATOM     11  C   UNL     1       8.050  -2.422  -0.627  1.00  0.00     0.166 A 
ATOM     12  C   UNL     1       8.363  -2.630  -1.949  1.00  0.00     0.165 A 
ATOM     13  O   UNL     1       8.543  -3.483   0.111  1.00  0.00    -0.454 OA
ATOM     14  O   UNL     1       9.059  -3.838  -2.014  1.00  0.00    -0.454 OA
ATOM     15  C   UNL     1       8.908  -4.533  -0.797  1.00  0.00     0.468 C 
ENDBRANCH   6   7
ENDBRANCH   1   6
TORSDOF 4
ENDMDL
MODEL 4
REMARK VINA RESULT:      -7.4      1.790      5.284
REMARK SMILES O=C(O)CCc1ccc2c(c1)OCO2
REMARK SMILES IDX 4 1 2 2 1 3 3 4 5 6 6 7 7 8 11 9 8 10 10 11 9 12 12 13 14 14
REMARK SMILES IDX 13 15
REMARK H PARENT 3 5
REMARK Flexibility Score: inf
ROOT
ATOM      1  C   UNL     1       8.302  -0.318  -2.854  1.00  0.00     0.127 C 
ENDROOT
BRANCH   1   2
ATOM      2  C   UNL     1       8.463  -1.748  -3.069  1.00  0.00     0.303 C 
ATOM      3  O   UNL     1       9.529  -2.364  -3.029  1.00  0.00    -0.252 OA
BRANCH   2   4
ATOM      4  O   UNL     1       7.305  -2.492  -3.344  1.00  0.00    -0.481 OA
ATOM      5  H   UNL     1       7.320  -3.042  -4.189  1.00  0.00     0.296 HD
ENDBRANCH   2   4
ENDBRANCH   1   2
BRANCH   1   6
ATOM      6  C   UNL     1       8.754   0.143  -1.524  1.00  0.00     0.047 C 
BRANCH   6   7
ATOM      7  C   UNL     1       7.784   0.102  -0.428  1.00  0.00    -0.043 A 
ATOM      8  C   UNL     1       7.732  -0.967   0.454  1.00  0.00     0.008 A 
ATOM      9  C   UNL     1       6.869   1.107  -0.264  1.00  0.00     0.054 A 
ATOM     10  C   UNL     1       6.797  -1.025   1.463  1.00  0.00     0.051 A 
ATOM     11  C   UNL     1       5.922   1.071   0.742  1.00  0.00     0.166 A 
ATOM     12  C   UNL     1       5.883   0.006   1.609  1.00  0.00     0.165 A 
ATOM     13  O   UNL     1       4.918   1.957   1.091  1.00  0.00    -0.454 OA
ATOM     14  O   UNL     1       4.836   0.249   2.500  1.00  0.00    -0.454 OA
ATOM     15  C   UNL     1       4.031   1.295   2.005  1.00  0.00     0.468 C 
ENDBRANCH   6   7
ENDBRANCH   1   6
TORSDOF 4
ENDMDL
MODEL 5
REMARK VINA RESULT:      -7.3      1.041      2.146
REMARK SMILES O=C(O)CCc1ccc2c(c1)OCO2
REMARK SMILES IDX 4 1 2 2 1 3 3 4 5 6 6 7 7 8 11 9 8 10 10 11 9 12 12 13 14 14
REMARK SMILES IDX 13 15
REMARK H PARENT 3 5
REMARK Flexibility Score: inf
ROOT
ATOM      1  C   UNL     1       5.364   2.405   0.489  1.00  0.00     0.127 C 
ENDROOT
BRANCH   1   2
ATOM      2  C   UNL     1       6.114   3.534   1.015  1.00  0.00     0.303 C 
ATOM      3  O   UNL     1       6.361   3.739   2.205  1.00  0.00    -0.252 OA
BRANCH   2   4
ATOM      4  O   UNL     1       6.600   4.472   0.091  1.00  0.00    -0.481 OA
ATOM      5  H   UNL     1       6.574   5.438   0.382  1.00  0.00     0.296 HD
ENDBRANCH   2   4
ENDBRANCH   1   2
BRANCH   1   6
ATOM      6  C   UNL     1       5.662   1.121   1.158  1.00  0.00     0.047 C 
BRANCH   6   7
ATOM      7  C   UNL     1       6.425   0.124   0.403  1.00  0.00    -0.043 A 
ATOM      8  C   UNL     1       6.520   0.179  -0.979  1.00  0.00     0.008 A 
ATOM      9  C   UNL     1       7.038  -0.920   1.043  1.00  0.00     0.054 A 
ATOM     10  C   UNL     1       7.207  -0.777  -1.693  1.00  0.00     0.051 A 
ATOM     11  C   UNL     1       7.733  -1.891   0.347  1.00  0.00     0.166 A 
ATOM     12  C   UNL     1       7.820  -1.823  -1.022  1.00  0.00     0.165 A 
ATOM     13  O   UNL     1       8.419  -3.014   0.775  1.00  0.00    -0.454 OA
ATOM     14  O   UNL     1       8.572  -2.925  -1.433  1.00  0.00    -0.454 OA
ATOM     15  C   UNL     1       8.686  -3.841  -0.368  1.00  0.00     0.468 C 
ENDBRANCH   6   7
ENDBRANCH   1   6
TORSDOF 4
ENDMDL
