@<TRIPOS>MOLECULE
/home/cewinharhar/GITHUB/reincatalyze/data/processed/docking_pred/2023-May-17-1006_maxeplen10_maxtrainstep1000_seadep16_gamma099_lrac9e-4_lrcr1e-3_sub6/4dfe2a4ebf2cd2c58b23ebebd9c83ff91bb12173_ligand_6.pdbqt
 15 16 0 0 0
SMALL
GASTEIGER

@<TRIPOS>ATOM
      1  C          8.3020   -0.3180   -2.8540 C.3     1  UNL1        0.1270
      2  C          8.4630   -1.7480   -3.0690 C.2     1  UNL1        0.3030
      3  O          9.5290   -2.3640   -3.0290 O.2     1  UNL1       -0.2520
      4  O          7.3050   -2.4920   -3.3440 O.3     1  UNL1       -0.4810
      5  H          7.3200   -3.0420   -4.1890 H       1  UNL1        0.2960
      6  C          8.7540    0.1430   -1.5240 C.3     1  UNL1        0.0470
      7  C          7.7840    0.1020   -0.4280 C.2     1  UNL1       -0.0430
      8  C          7.7320   -0.9670    0.4540 C.2     1  UNL1        0.0080
      9  C          6.8690    1.1070   -0.2640 C.2     1  UNL1        0.0540
     10  C          6.7970   -1.0250    1.4630 C.2     1  UNL1        0.0510
     11  C          5.9220    1.0710    0.7420 C.2     1  UNL1        0.1660
     12  C          5.8830    0.0060    1.6090 C.2     1  UNL1        0.1650
     13  O          4.9180    1.9570    1.0910 O.2     1  UNL1       -0.4540
     14  O          4.8360    0.2490    2.5000 O.2     1  UNL1       -0.4540
     15  C          4.0310    1.2950    2.0050 C.3     1  UNL1        0.4680
@<TRIPOS>BOND
     1     5     4    1
     2     4     2    1
     3     2     3    2
     4     2     1    1
     5     1     6    1
     6     6     7    1
     7     7     9    2
     8     7     8    1
     9     9    11    1
    10     8    10    2
    11    11    13    1
    12    11    12    2
    13    13    15    1
    14    10    12    1
    15    12    14    1
    16    15    14    1
