@<TRIPOS>MOLECULE
/home/cewinharhar/GITHUB/reincatalyze/data/processed/docking_pred/2023-May-17-1006_maxeplen10_maxtrainstep1000_seadep16_gamma099_lrac9e-4_lrcr1e-3_sub6/4dfe2a4ebf2cd2c58b23ebebd9c83ff91bb12173_ligand_6.pdbqt
 15 16 0 0 0
SMALL
GASTEIGER

@<TRIPOS>ATOM
      1  C          5.3640    2.4050    0.4890 C.3     1  UNL1        0.1270
      2  C          6.1140    3.5340    1.0150 C.2     1  UNL1        0.3030
      3  O          6.3610    3.7390    2.2050 O.2     1  UNL1       -0.2520
      4  O          6.6000    4.4720    0.0910 O.3     1  UNL1       -0.4810
      5  H          6.5740    5.4380    0.3820 H       1  UNL1        0.2960
      6  C          5.6620    1.1210    1.1580 C.3     1  UNL1        0.0470
      7  C          6.4250    0.1240    0.4030 C.2     1  UNL1       -0.0430
      8  C          6.5200    0.1790   -0.9790 C.2     1  UNL1        0.0080
      9  C          7.0380   -0.9200    1.0430 C.2     1  UNL1        0.0540
     10  C          7.2070   -0.7770   -1.6930 C.2     1  UNL1        0.0510
     11  C          7.7330   -1.8910    0.3470 C.2     1  UNL1        0.1660
     12  C          7.8200   -1.8230   -1.0220 C.2     1  UNL1        0.1650
     13  O          8.4190   -3.0140    0.7750 O.2     1  UNL1       -0.4540
     14  O          8.5720   -2.9250   -1.4330 O.2     1  UNL1       -0.4540
     15  C          8.6860   -3.8410   -0.3680 C.3     1  UNL1        0.4680
@<TRIPOS>BOND
     1    10    12    2
     2    10     8    1
     3    14    12    1
     4    14    15    1
     5    12    11    1
     6     8     7    2
     7    15    13    1
     8     4     5    1
     9     4     2    1
    10    11    13    1
    11    11     9    2
    12     7     9    1
    13     7     6    1
    14     1     2    1
    15     1     6    1
    16     2     3    2
