@<TRIPOS>MOLECULE
/home/cewinharhar/GITHUB/reincatalyze/data/processed/docking_pred/2023-May-17-1006_maxeplen10_maxtrainstep1000_seadep16_gamma099_lrac9e-4_lrcr1e-3_sub6/4dfe2a4ebf2cd2c58b23ebebd9c83ff91bb12173_ligand_6.pdbqt
 15 16 0 0 0
SMALL
GASTEIGER

@<TRIPOS>ATOM
      1  C          5.4110    2.8780    0.1240 C.3     1  UNL1        0.1270
      2  C          6.2390    3.8530    0.8160 C.2     1  UNL1        0.3030
      3  O          6.8670    4.7690    0.2810 O.2     1  UNL1       -0.2520
      4  O          6.3320    3.7440    2.2120 O.3     1  UNL1       -0.4810
      5  H          6.9810    4.3690    2.6650 H       1  UNL1        0.2960
      6  C          5.3340    1.5670    0.8030 C.3     1  UNL1        0.0470
      7  C          6.1140    0.4640    0.2370 C.2     1  UNL1       -0.0430
      8  C          6.5800   -0.5750    1.0290 C.2     1  UNL1        0.0080
      9  C          6.4410    0.4470   -1.0930 C.2     1  UNL1        0.0540
     10  C          7.3440   -1.5940    0.5050 C.2     1  UNL1        0.0510
     11  C          7.2060   -0.5650   -1.6400 C.2     1  UNL1        0.1660
     12  C          7.6600   -1.5890   -0.8440 C.2     1  UNL1        0.1650
     13  O          7.6500   -0.7850   -2.9320 O.2     1  UNL1       -0.4540
     14  O          8.3930   -2.4450   -1.6670 O.2     1  UNL1       -0.4540
     15  C          8.6610   -1.8040   -2.8930 C.3     1  UNL1        0.4680
@<TRIPOS>BOND
     1    13    15    1
     2    13    11    1
     3    15    14    1
     4    14    12    1
     5    11     9    1
     6    11    12    2
     7     9     7    2
     8    12    10    1
     9     1     6    1
    10     1     2    1
    11     7     6    1
    12     7     8    1
    13     3     2    2
    14    10     8    2
    15     2     4    1
    16     4     5    1
