@<TRIPOS>MOLECULE
/home/cewinharhar/GITHUB/reincatalyze/data/processed/docking_pred/2023-May-17-1006_maxeplen10_maxtrainstep1000_seadep16_gamma099_lrac9e-4_lrcr1e-3_sub6/4dfe2a4ebf2cd2c58b23ebebd9c83ff91bb12173_ligand_6.pdbqt
 15 16 0 0 0
SMALL
GASTEIGER

@<TRIPOS>ATOM
      1  C          4.6790    1.8600    0.6970 C.3     1  UNL1        0.1270
      2  C          4.3980    1.1390    1.9290 C.2     1  UNL1        0.3030
      3  O          5.1420    0.3130    2.4620 O.2     1  UNL1       -0.2520
      4  O          3.1770    1.4050    2.5680 O.3     1  UNL1       -0.4810
      5  H          2.5090    1.9490    2.0430 H       1  UNL1        0.2960
      6  C          6.0990    2.2350    0.5310 C.3     1  UNL1        0.0470
      7  C          6.9550    1.3260   -0.2340 C.2     1  UNL1       -0.0430
      8  C          8.3190    1.5440   -0.3560 C.2     1  UNL1        0.0080
      9  C          6.4220    0.2470   -0.8890 C.2     1  UNL1        0.0540
     10  C          9.1190    0.7100   -1.1050 C.2     1  UNL1        0.0510
     11  C          7.2050   -0.6040   -1.6450 C.2     1  UNL1        0.1660
     12  C          8.5560   -0.3750   -1.7560 C.2     1  UNL1        0.1650
     13  O          6.8900   -1.7340   -2.3790 O.2     1  UNL1       -0.4540
     14  O          9.0690   -1.3850   -2.5720 O.2     1  UNL1       -0.4540
     15  C          8.0100   -2.0510   -3.2190 C.3     1  UNL1        0.4680
@<TRIPOS>BOND
     1    15    14    1
     2    15    13    1
     3    14    12    1
     4    13    11    1
     5    12    11    2
     6    12    10    1
     7    11     9    1
     8    10     8    2
     9     9     7    2
    10     8     7    1
    11     7     6    1
    12     6     1    1
    13     1     2    1
    14     2     3    2
    15     2     4    1
    16     5     4    1
