MODEL 1
REMARK VINA RESULT:      -7.7      0.000      0.000
REMARK SMILES O=C(O)CCc1ccc2c(c1)OCO2
REMARK SMILES IDX 4 1 2 2 1 3 3 4 5 6 6 7 7 8 11 9 8 10 10 11 9 12 12 13 14 14
REMARK SMILES IDX 13 15
REMARK H PARENT 3 5
REMARK Flexibility Score: inf
ROOT
ATOM      1  C   UNL     1       5.413   2.867   0.131  1.00  0.00     0.127 C 
ENDROOT
BRANCH   1   2
ATOM      2  C   UNL     1       6.242   3.848   0.813  1.00  0.00     0.303 C 
ATOM      3  O   UNL     1       6.873   4.756   0.268  1.00  0.00    -0.252 OA
BRANCH   2   4
ATOM      4  O   UNL     1       6.334   3.755   2.210  1.00  0.00    -0.481 OA
ATOM      5  H   UNL     1       7.084   4.272   2.643  1.00  0.00     0.296 HD
ENDBRANCH   2   4
ENDBRANCH   1   2
BRANCH   1   6
ATOM      6  C   UNL     1       5.336   1.562   0.822  1.00  0.00     0.047 C 
BRANCH   6   7
ATOM      7  C   UNL     1       6.114   0.454   0.266  1.00  0.00    -0.043 A 
ATOM      8  C   UNL     1       6.578  -0.580   1.065  1.00  0.00     0.008 A 
ATOM      9  C   UNL     1       6.442   0.427  -1.064  1.00  0.00     0.054 A 
ATOM     10  C   UNL     1       7.341  -1.604   0.549  1.00  0.00     0.051 A 
ATOM     11  C   UNL     1       7.205  -0.591  -1.604  1.00  0.00     0.166 A 
ATOM     12  C   UNL     1       7.657  -1.609  -0.800  1.00  0.00     0.165 A 
ATOM     13  O   UNL     1       7.650  -0.821  -2.894  1.00  0.00    -0.454 OA
ATOM     14  O   UNL     1       8.390  -2.473  -1.616  1.00  0.00    -0.454 OA
ATOM     15  C   UNL     1       8.659  -1.842  -2.847  1.00  0.00     0.468 C 
ENDBRANCH   6   7
ENDBRANCH   1   6
TORSDOF 4
ENDMDL
MODEL 2
REMARK VINA RESULT:      -7.6      2.136      2.524
REMARK SMILES O=C(O)CCc1ccc2c(c1)OCO2
REMARK SMILES IDX 4 1 2 2 1 3 3 4 5 6 6 7 7 8 11 9 8 10 10 11 9 12 12 13 14 14
REMARK SMILES IDX 13 15
REMARK H PARENT 3 5
REMARK Flexibility Score: inf
ROOT
ATOM      1  C   UNL     1       4.719   1.876   0.692  1.00  0.00     0.127 C 
ENDROOT
BRANCH   1   2
ATOM      2  C   UNL     1       4.403   1.160   1.918  1.00  0.00     0.303 C 
ATOM      3  O   UNL     1       5.121   0.321   2.465  1.00  0.00    -0.252 OA
BRANCH   2   4
ATOM      4  O   UNL     1       3.174   1.447   2.534  1.00  0.00    -0.481 OA
ATOM      5  H   UNL     1       2.427   0.792   2.364  1.00  0.00     0.296 HD
ENDBRANCH   2   4
ENDBRANCH   1   2
BRANCH   1   6
ATOM      6  C   UNL     1       6.149   2.225   0.553  1.00  0.00     0.047 C 
BRANCH   6   7
ATOM      7  C   UNL     1       6.994   1.321  -0.230  1.00  0.00    -0.043 A 
ATOM      8  C   UNL     1       8.353   1.548  -0.380  1.00  0.00     0.008 A 
ATOM      9  C   UNL     1       6.454   0.239  -0.872  1.00  0.00     0.054 A 
ATOM     10  C   UNL     1       9.143   0.719  -1.146  1.00  0.00     0.051 A 
ATOM     11  C   UNL     1       7.227  -0.608  -1.645  1.00  0.00     0.166 A 
ATOM     12  C   UNL     1       8.573  -0.371  -1.784  1.00  0.00     0.165 A 
ATOM     13  O   UNL     1       6.904  -1.740  -2.371  1.00  0.00    -0.454 OA
ATOM     14  O   UNL     1       9.076  -1.378  -2.610  1.00  0.00    -0.454 OA
ATOM     15  C   UNL     1       8.008  -2.051  -3.234  1.00  0.00     0.468 C 
ENDBRANCH   6   7
ENDBRANCH   1   6
TORSDOF 4
ENDMDL
MODEL 3
REMARK VINA RESULT:      -7.4      1.788      5.277
REMARK SMILES O=C(O)CCc1ccc2c(c1)OCO2
REMARK SMILES IDX 4 1 2 2 1 3 3 4 5 6 6 7 7 8 11 9 8 10 10 11 9 12 12 13 14 14
REMARK SMILES IDX 13 15
REMARK H PARENT 3 5
REMARK Flexibility Score: inf
ROOT
ATOM      1  C   UNL     1       8.317  -0.318  -2.826  1.00  0.00     0.127 C 
ENDROOT
BRANCH   1   2
ATOM      2  C   UNL     1       8.466  -1.747  -3.056  1.00  0.00     0.303 C 
ATOM      3  O   UNL     1       9.528  -2.371  -3.026  1.00  0.00    -0.252 OA
BRANCH   2   4
ATOM      4  O   UNL     1       7.302  -2.479  -3.338  1.00  0.00    -0.481 OA
ATOM      5  H   UNL     1       7.008  -3.136  -2.632  1.00  0.00     0.296 HD
ENDBRANCH   2   4
ENDBRANCH   1   2
BRANCH   1   6
ATOM      6  C   UNL     1       8.768   0.125  -1.490  1.00  0.00     0.047 C 
BRANCH   6   7
ATOM      7  C   UNL     1       7.791   0.091  -0.399  1.00  0.00    -0.043 A 
ATOM      8  C   UNL     1       7.730  -0.973   0.487  1.00  0.00     0.008 A 
ATOM      9  C   UNL     1       6.877   1.100  -0.247  1.00  0.00     0.054 A 
ATOM     10  C   UNL     1       6.788  -1.023   1.490  1.00  0.00     0.051 A 
ATOM     11  C   UNL     1       5.923   1.071   0.753  1.00  0.00     0.166 A 
ATOM     12  C   UNL     1       5.875   0.010   1.624  1.00  0.00     0.165 A 
ATOM     13  O   UNL     1       4.919   1.961   1.090  1.00  0.00    -0.454 OA
ATOM     14  O   UNL     1       4.823   0.261   2.507  1.00  0.00    -0.454 OA
ATOM     15  C   UNL     1       4.024   1.306   2.002  1.00  0.00     0.468 C 
ENDBRANCH   6   7
ENDBRANCH   1   6
TORSDOF 4
ENDMDL
MODEL 4
REMARK VINA RESULT:      -7.4      1.954      2.857
REMARK SMILES O=C(O)CCc1ccc2c(c1)OCO2
REMARK SMILES IDX 4 1 2 2 1 3 3 4 5 6 6 7 7 8 11 9 8 10 10 11 9 12 12 13 14 14
REMARK SMILES IDX 13 15
REMARK H PARENT 3 5
REMARK Flexibility Score: inf
ROOT
ATOM      1  C   UNL     1       6.431   1.300   0.738  1.00  0.00     0.127 C 
ENDROOT
BRANCH   1   2
ATOM      2  C   UNL     1       5.176   1.329   1.471  1.00  0.00     0.303 C 
ATOM      3  O   UNL     1       4.272   2.151   1.314  1.00  0.00    -0.252 OA
BRANCH   2   4
ATOM      4  O   UNL     1       4.974   0.336   2.443  1.00  0.00    -0.481 OA
ATOM      5  H   UNL     1       5.573  -0.473   2.384  1.00  0.00     0.296 HD
ENDBRANCH   2   4
ENDBRANCH   1   2
BRANCH   1   6
ATOM      6  C   UNL     1       6.289   0.910  -0.681  1.00  0.00     0.047 C 
BRANCH   6   7
ATOM      7  C   UNL     1       7.015  -0.278  -1.133  1.00  0.00    -0.043 A 
ATOM      8  C   UNL     1       7.272  -0.503  -2.477  1.00  0.00     0.008 A 
ATOM      9  C   UNL     1       7.430  -1.228  -0.238  1.00  0.00     0.054 A 
ATOM     10  C   UNL     1       7.923  -1.638  -2.907  1.00  0.00     0.051 A 
ATOM     11  C   UNL     1       8.085  -2.374  -0.646  1.00  0.00     0.166 A 
ATOM     12  C   UNL     1       8.335  -2.583  -1.981  1.00  0.00     0.165 A 
ATOM     13  O   UNL     1       8.587  -3.449   0.067  1.00  0.00    -0.454 OA
ATOM     14  O   UNL     1       8.999  -3.807  -2.080  1.00  0.00    -0.454 OA
ATOM     15  C   UNL     1       8.887  -4.503  -0.861  1.00  0.00     0.468 C 
ENDBRANCH   6   7
ENDBRANCH   1   6
TORSDOF 4
ENDMDL
MODEL 5
REMARK VINA RESULT:      -7.3      0.962      2.096
REMARK SMILES O=C(O)CCc1ccc2c(c1)OCO2
REMARK SMILES IDX 4 1 2 2 1 3 3 4 5 6 6 7 7 8 11 9 8 10 10 11 9 12 12 13 14 14
REMARK SMILES IDX 13 15
REMARK H PARENT 3 5
REMARK Flexibility Score: inf
ROOT
ATOM      1  C   UNL     1       5.452   2.592   0.332  1.00  0.00     0.127 C 
ENDROOT
BRANCH   1   2
ATOM      2  C   UNL     1       6.115   3.721   0.965  1.00  0.00     0.303 C 
ATOM      3  O   UNL     1       6.161   3.937   2.178  1.00  0.00    -0.252 OA
BRANCH   2   4
ATOM      4  O   UNL     1       6.758   4.645   0.126  1.00  0.00    -0.481 OA
ATOM      5  H   UNL     1       7.663   4.373  -0.224  1.00  0.00     0.296 HD
ENDBRANCH   2   4
ENDBRANCH   1   2
BRANCH   1   6
ATOM      6  C   UNL     1       5.677   1.302   1.017  1.00  0.00     0.047 C 
BRANCH   6   7
ATOM      7  C   UNL     1       6.420   0.270   0.290  1.00  0.00    -0.043 A 
ATOM      8  C   UNL     1       6.499   0.273  -1.094  1.00  0.00     0.008 A 
ATOM      9  C   UNL     1       7.029  -0.757   0.960  1.00  0.00     0.054 A 
ATOM     10  C   UNL     1       7.167  -0.716  -1.781  1.00  0.00     0.051 A 
ATOM     11  C   UNL     1       7.705  -1.761   0.292  1.00  0.00     0.166 A 
ATOM     12  C   UNL     1       7.777  -1.744  -1.080  1.00  0.00     0.165 A 
ATOM     13  O   UNL     1       8.384  -2.876   0.753  1.00  0.00    -0.454 OA
ATOM     14  O   UNL     1       8.511  -2.869  -1.459  1.00  0.00    -0.454 OA
ATOM     15  C   UNL     1       8.628  -3.746  -0.362  1.00  0.00     0.468 C 
ENDBRANCH   6   7
ENDBRANCH   1   6
TORSDOF 4
ENDMDL
