@<TRIPOS>MOLECULE
/home/cewinharhar/GITHUB/reincatalyze/data/processed/docking_pred/2023-May-17-1006_maxeplen10_maxtrainstep1000_seadep16_gamma099_lrac9e-4_lrcr1e-3_sub6/4e2e003c692afcef440410ba16f5bc8e831af6c9_ligand_6.pdbqt
 15 16 0 0 0
SMALL
GASTEIGER

@<TRIPOS>ATOM
      1  C          4.7190    1.8760    0.6920 C.3     1  UNL1        0.1270
      2  C          4.4030    1.1600    1.9180 C.2     1  UNL1        0.3030
      3  O          5.1210    0.3210    2.4650 O.2     1  UNL1       -0.2520
      4  O          3.1740    1.4470    2.5340 O.3     1  UNL1       -0.4810
      5  H          2.4270    0.7920    2.3640 H       1  UNL1        0.2960
      6  C          6.1490    2.2250    0.5530 C.3     1  UNL1        0.0470
      7  C          6.9940    1.3210   -0.2300 C.2     1  UNL1       -0.0430
      8  C          8.3530    1.5480   -0.3800 C.2     1  UNL1        0.0080
      9  C          6.4540    0.2390   -0.8720 C.2     1  UNL1        0.0540
     10  C          9.1430    0.7190   -1.1460 C.2     1  UNL1        0.0510
     11  C          7.2270   -0.6080   -1.6450 C.2     1  UNL1        0.1660
     12  C          8.5730   -0.3710   -1.7840 C.2     1  UNL1        0.1650
     13  O          6.9040   -1.7400   -2.3710 O.2     1  UNL1       -0.4540
     14  O          9.0760   -1.3780   -2.6100 O.2     1  UNL1       -0.4540
     15  C          8.0080   -2.0510   -3.2340 C.3     1  UNL1        0.4680
@<TRIPOS>BOND
     1    15    14    1
     2    15    13    1
     3    14    12    1
     4    13    11    1
     5    12    11    2
     6    12    10    1
     7    11     9    1
     8    10     8    2
     9     9     7    2
    10     8     7    1
    11     7     6    1
    12     6     1    1
    13     1     2    1
    14     2     3    2
    15     2     4    1
    16     5     4    1
