@<TRIPOS>MOLECULE
/home/cewinharhar/GITHUB/reincatalyze/data/processed/docking_pred/2023-May-17-1006_maxeplen10_maxtrainstep1000_seadep16_gamma099_lrac9e-4_lrcr1e-3_sub6/4e2e003c692afcef440410ba16f5bc8e831af6c9_ligand_6.pdbqt
 15 16 0 0 0
SMALL
GASTEIGER

@<TRIPOS>ATOM
      1  C          6.4310    1.3000    0.7380 C.3     1  UNL1        0.1270
      2  C          5.1760    1.3290    1.4710 C.2     1  UNL1        0.3030
      3  O          4.2720    2.1510    1.3140 O.2     1  UNL1       -0.2520
      4  O          4.9740    0.3360    2.4430 O.3     1  UNL1       -0.4810
      5  H          5.5730   -0.4730    2.3840 H       1  UNL1        0.2960
      6  C          6.2890    0.9100   -0.6810 C.3     1  UNL1        0.0470
      7  C          7.0150   -0.2780   -1.1330 C.2     1  UNL1       -0.0430
      8  C          7.2720   -0.5030   -2.4770 C.2     1  UNL1        0.0080
      9  C          7.4300   -1.2280   -0.2380 C.2     1  UNL1        0.0540
     10  C          7.9230   -1.6380   -2.9070 C.2     1  UNL1        0.0510
     11  C          8.0850   -2.3740   -0.6460 C.2     1  UNL1        0.1660
     12  C          8.3350   -2.5830   -1.9810 C.2     1  UNL1        0.1650
     13  O          8.5870   -3.4490    0.0670 O.2     1  UNL1       -0.4540
     14  O          8.9990   -3.8070   -2.0800 O.2     1  UNL1       -0.4540
     15  C          8.8870   -4.5030   -0.8610 C.3     1  UNL1        0.4680
@<TRIPOS>BOND
     1    10     8    1
     2    10    12    2
     3     8     7    2
     4    14    12    1
     5    14    15    1
     6    12    11    1
     7     7     6    1
     8     7     9    1
     9    15    13    1
    10     6     1    1
    11    11     9    2
    12    11    13    1
    13     1     2    1
    14     3     2    2
    15     2     4    1
    16     5     4    1
