@<TRIPOS>MOLECULE
/home/cewinharhar/GITHUB/reincatalyze/data/processed/docking_pred/2023-May-17-1006_maxeplen10_maxtrainstep1000_seadep16_gamma099_lrac9e-4_lrcr1e-3_sub6/4e2e003c692afcef440410ba16f5bc8e831af6c9_ligand_6.pdbqt
 15 16 0 0 0
SMALL
GASTEIGER

@<TRIPOS>ATOM
      1  C          8.3170   -0.3180   -2.8260 C.3     1  UNL1        0.1270
      2  C          8.4660   -1.7470   -3.0560 C.2     1  UNL1        0.3030
      3  O          9.5280   -2.3710   -3.0260 O.2     1  UNL1       -0.2520
      4  O          7.3020   -2.4790   -3.3380 O.3     1  UNL1       -0.4810
      5  H          7.0080   -3.1360   -2.6320 H       1  UNL1        0.2960
      6  C          8.7680    0.1250   -1.4900 C.3     1  UNL1        0.0470
      7  C          7.7910    0.0910   -0.3990 C.2     1  UNL1       -0.0430
      8  C          7.7300   -0.9730    0.4870 C.2     1  UNL1        0.0080
      9  C          6.8770    1.1000   -0.2470 C.2     1  UNL1        0.0540
     10  C          6.7880   -1.0230    1.4900 C.2     1  UNL1        0.0510
     11  C          5.9230    1.0710    0.7530 C.2     1  UNL1        0.1660
     12  C          5.8750    0.0100    1.6240 C.2     1  UNL1        0.1650
     13  O          4.9190    1.9610    1.0900 O.2     1  UNL1       -0.4540
     14  O          4.8230    0.2610    2.5070 O.2     1  UNL1       -0.4540
     15  C          4.0240    1.3060    2.0020 C.3     1  UNL1        0.4680
@<TRIPOS>BOND
     1     4     2    1
     2     4     5    1
     3     2     3    2
     4     2     1    1
     5     1     6    1
     6     6     7    1
     7     7     9    2
     8     7     8    1
     9     9    11    1
    10     8    10    2
    11    11    13    1
    12    11    12    2
    13    13    15    1
    14    10    12    1
    15    12    14    1
    16    15    14    1
