@<TRIPOS>MOLECULE
/home/cewinharhar/GITHUB/reincatalyze/data/processed/docking_pred/2023-May-17-1006_maxeplen10_maxtrainstep1000_seadep16_gamma099_lrac9e-4_lrcr1e-3_sub6/4e2e003c692afcef440410ba16f5bc8e831af6c9_ligand_6.pdbqt
 15 16 0 0 0
SMALL
GASTEIGER

@<TRIPOS>ATOM
      1  C          5.4130    2.8670    0.1310 C.3     1  UNL1        0.1270
      2  C          6.2420    3.8480    0.8130 C.2     1  UNL1        0.3030
      3  O          6.8730    4.7560    0.2680 O.2     1  UNL1       -0.2520
      4  O          6.3340    3.7550    2.2100 O.3     1  UNL1       -0.4810
      5  H          7.0840    4.2720    2.6430 H       1  UNL1        0.2960
      6  C          5.3360    1.5620    0.8220 C.3     1  UNL1        0.0470
      7  C          6.1140    0.4540    0.2660 C.2     1  UNL1       -0.0430
      8  C          6.5780   -0.5800    1.0650 C.2     1  UNL1        0.0080
      9  C          6.4420    0.4270   -1.0640 C.2     1  UNL1        0.0540
     10  C          7.3410   -1.6040    0.5490 C.2     1  UNL1        0.0510
     11  C          7.2050   -0.5910   -1.6040 C.2     1  UNL1        0.1660
     12  C          7.6570   -1.6090   -0.8000 C.2     1  UNL1        0.1650
     13  O          7.6500   -0.8210   -2.8940 O.2     1  UNL1       -0.4540
     14  O          8.3900   -2.4730   -1.6160 O.2     1  UNL1       -0.4540
     15  C          8.6590   -1.8420   -2.8470 C.3     1  UNL1        0.4680
@<TRIPOS>BOND
     1    13    15    1
     2    13    11    1
     3    15    14    1
     4    14    12    1
     5    11     9    1
     6    11    12    2
     7     9     7    2
     8    12    10    1
     9     1     2    1
    10     1     6    1
    11     7     6    1
    12     7     8    1
    13     3     2    2
    14    10     8    2
    15     2     4    1
    16     4     5    1
