@<TRIPOS>MOLECULE
/home/cewinharhar/GITHUB/reincatalyze/data/processed/docking_pred/2023-May-17-1006_maxeplen10_maxtrainstep1000_seadep16_gamma099_lrac9e-4_lrcr1e-3_sub6/4f8338f1f65f27d68c3e57a6b5041c9c59ec4c55_ligand_6.pdbqt
 15 16 0 0 0
SMALL
GASTEIGER

@<TRIPOS>ATOM
      1  C          5.4540    2.9180    0.1640 C.3     1  UNL1        0.1270
      2  C          6.2610    3.9270    0.8340 C.2     1  UNL1        0.3030
      3  O          6.9580    4.7750    0.2740 O.2     1  UNL1       -0.2520
      4  O          6.2450    3.9370    2.2370 O.3     1  UNL1       -0.4810
      5  H          5.5720    4.5500    2.6710 H       1  UNL1        0.2960
      6  C          5.3160    1.6580    0.9250 C.3     1  UNL1        0.0470
      7  C          6.1520    0.5260    0.5190 C.2     1  UNL1       -0.0430
      8  C          7.0210   -0.0880    1.4070 C.2     1  UNL1        0.0080
      9  C          6.1260    0.0650   -0.7710 C.2     1  UNL1        0.0540
     10  C          7.8340   -1.1290    1.0160 C.2     1  UNL1        0.0510
     11  C          6.9320   -0.9790   -1.1850 C.2     1  UNL1        0.1660
     12  C          7.7880   -1.5790   -0.2930 C.2     1  UNL1        0.1650
     13  O          7.0720   -1.6000   -2.4130 O.2     1  UNL1       -0.4540
     14  O          8.4600   -2.5830   -0.9930 O.2     1  UNL1       -0.4540
     15  C          8.2600   -2.4070   -2.3760 C.3     1  UNL1        0.4680
@<TRIPOS>BOND
     1    13    15    1
     2    13    11    1
     3    15    14    1
     4    11     9    1
     5    11    12    2
     6    14    12    1
     7     9     7    2
     8    12    10    1
     9     1     2    1
    10     1     6    1
    11     3     2    2
    12     7     6    1
    13     7     8    1
    14     2     4    1
    15    10     8    2
    16     4     5    1
