@<TRIPOS>MOLECULE
/home/cewinharhar/GITHUB/reincatalyze/data/processed/docking_pred/2023-May-17-1006_maxeplen10_maxtrainstep1000_seadep16_gamma099_lrac9e-4_lrcr1e-3_sub6/4f8338f1f65f27d68c3e57a6b5041c9c59ec4c55_ligand_6.pdbqt
 15 16 0 0 0
SMALL
GASTEIGER

@<TRIPOS>ATOM
      1  C          4.6300    1.8320    0.6960 C.3     1  UNL1        0.1270
      2  C          4.2830    1.1890    1.9540 C.2     1  UNL1        0.3030
      3  O          3.2250    1.3370    2.5670 O.2     1  UNL1       -0.2520
      4  O          5.2350    0.3260    2.5200 O.3     1  UNL1       -0.4810
      5  H          4.8750   -0.4060    3.1130 H       1  UNL1        0.2960
      6  C          6.0610    2.1830    0.5750 C.3     1  UNL1        0.0470
      7  C          6.9130    1.2910   -0.2140 C.2     1  UNL1       -0.0430
      8  C          8.2670    1.5390   -0.3790 C.2     1  UNL1        0.0080
      9  C          6.3840    0.1980   -0.8490 C.2     1  UNL1        0.0540
     10  C          9.0610    0.7210   -1.1510 C.2     1  UNL1        0.0510
     11  C          7.1620   -0.6370   -1.6280 C.2     1  UNL1        0.1660
     12  C          8.5030   -0.3790   -1.7820 C.2     1  UNL1        0.1650
     13  O          6.8500   -1.7760   -2.3490 O.2     1  UNL1       -0.4540
     14  O          9.0140   -1.3790   -2.6100 O.2     1  UNL1       -0.4540
     15  C          7.9500   -2.0710   -3.2230 C.3     1  UNL1        0.4680
@<TRIPOS>BOND
     1    15    14    1
     2    15    13    1
     3    14    12    1
     4    13    11    1
     5    12    11    2
     6    12    10    1
     7    11     9    1
     8    10     8    2
     9     9     7    2
    10     8     7    1
    11     7     6    1
    12     6     1    1
    13     1     2    1
    14     2     4    1
    15     2     3    2
    16     4     5    1
