@<TRIPOS>MOLECULE
/home/cewinharhar/GITHUB/reincatalyze/data/processed/docking_pred/2023-May-17-1006_maxeplen10_maxtrainstep1000_seadep16_gamma099_lrac9e-4_lrcr1e-3_sub6/4f8338f1f65f27d68c3e57a6b5041c9c59ec4c55_ligand_6.pdbqt
 15 16 0 0 0
SMALL
GASTEIGER

@<TRIPOS>ATOM
      1  C          6.4140    1.3370    0.6580 C.3     1  UNL1        0.1270
      2  C          5.1940    1.3360    1.4500 C.2     1  UNL1        0.3030
      3  O          4.2520    2.1190    1.3170 O.2     1  UNL1       -0.2520
      4  O          5.0770    0.3600    2.4520 O.3     1  UNL1       -0.4810
      5  H          5.9420   -0.0140    2.8120 H       1  UNL1        0.2960
      6  C          6.2300    0.8640   -0.7300 C.3     1  UNL1        0.0470
      7  C          6.9750   -0.3270   -1.1440 C.2     1  UNL1       -0.0430
      8  C          7.2630   -0.5740   -2.4780 C.2     1  UNL1        0.0080
      9  C          7.3770   -1.2570   -0.2230 C.2     1  UNL1        0.0540
     10  C          7.9320   -1.7110   -2.8730 C.2     1  UNL1        0.0510
     11  C          8.0500   -2.4050   -0.5960 C.2     1  UNL1        0.1660
     12  C          8.3300   -2.6360   -1.9210 C.2     1  UNL1        0.1650
     13  O          8.5440   -3.4630    0.1470 O.2     1  UNL1       -0.4540
     14  O          9.0060   -3.8560   -1.9830 O.2     1  UNL1       -0.4540
     15  C          8.8730   -4.5310   -0.7540 C.3     1  UNL1        0.4680
@<TRIPOS>BOND
     1    10     8    1
     2    10    12    2
     3     8     7    2
     4    14    12    1
     5    14    15    1
     6    12    11    1
     7     7     6    1
     8     7     9    1
     9    15    13    1
    10     6     1    1
    11    11     9    2
    12    11    13    1
    13     1     2    1
    14     3     2    2
    15     2     4    1
    16     4     5    1
