@<TRIPOS>MOLECULE
/home/cewinharhar/GITHUB/reincatalyze/data/processed/docking_pred/2023-May-17-1006_maxeplen10_maxtrainstep1000_seadep16_gamma099_lrac9e-4_lrcr1e-3_sub6/4f8338f1f65f27d68c3e57a6b5041c9c59ec4c55_ligand_6.pdbqt
 15 16 0 0 0
SMALL
GASTEIGER

@<TRIPOS>ATOM
      1  C          8.4860   -0.4630   -3.0180 C.3     1  UNL1        0.1270
      2  C          8.5520   -1.9160   -3.0490 C.2     1  UNL1        0.3030
      3  O          7.6110   -2.6820   -2.8310 O.2     1  UNL1       -0.2520
      4  O          9.7920   -2.4980   -3.3550 O.3     1  UNL1       -0.4810
      5  H          9.8880   -3.4790   -3.1400 H       1  UNL1        0.2960
      6  C          9.0270    0.1350   -1.7790 C.3     1  UNL1        0.0470
      7  C          8.1380    0.2090   -0.6180 C.2     1  UNL1       -0.0430
      8  C          8.3700   -0.5440    0.5230 C.2     1  UNL1        0.0080
      9  C          7.0210    1.0010   -0.6410 C.2     1  UNL1        0.0540
     10  C          7.5150   -0.5030    1.6010 C.2     1  UNL1        0.0510
     11  C          6.1480    1.0590    0.4300 C.2     1  UNL1        0.1660
     12  C          6.3920    0.3080    1.5540 C.2     1  UNL1        0.1650
     13  O          4.9800    1.7750    0.6260 O.2     1  UNL1       -0.4540
     14  O          5.3540    0.5720    2.4480 O.2     1  UNL1       -0.4540
     15  C          4.3090    1.2340    1.7740 C.3     1  UNL1        0.4680
@<TRIPOS>BOND
     1     4     5    1
     2     4     2    1
     3     2     1    1
     4     2     3    2
     5     1     6    1
     6     6     7    1
     7     9     7    2
     8     9    11    1
     9     7     8    1
    10    11    13    1
    11    11    12    2
    12     8    10    2
    13    13    15    1
    14    12    10    1
    15    12    14    1
    16    15    14    1
