@<TRIPOS>MOLECULE
/home/cewinharhar/GITHUB/reincatalyze/data/processed/docking_pred/2023-May-17-1006_maxeplen10_maxtrainstep1000_seadep16_gamma099_lrac9e-4_lrcr1e-3_sub6/4f8338f1f65f27d68c3e57a6b5041c9c59ec4c55_ligand_6.pdbqt
 15 16 0 0 0
SMALL
GASTEIGER

@<TRIPOS>ATOM
      1  C          5.4580    2.6600    0.0990 C.3     1  UNL1        0.1270
      2  C          6.1320    3.6910    0.8730 C.2     1  UNL1        0.3030
      3  O          6.1880    3.7430    2.1030 O.2     1  UNL1       -0.2520
      4  O          6.7720    4.7170    0.1610 O.3     1  UNL1       -0.4810
      5  H          6.3680    5.6370    0.2440 H       1  UNL1        0.2960
      6  C          5.5260    1.3140    0.7060 C.3     1  UNL1        0.0470
      7  C          6.3230    0.2980    0.0140 C.2     1  UNL1       -0.0430
      8  C          6.4540    0.2970   -1.3660 C.2     1  UNL1        0.0080
      9  C          6.9340   -0.7090    0.7130 C.2     1  UNL1        0.0540
     10  C          7.1730   -0.6780   -2.0210 C.2     1  UNL1        0.0510
     11  C          7.6600   -1.6970    0.0770 C.2     1  UNL1        0.1660
     12  C          7.7830   -1.6860   -1.2920 C.2     1  UNL1        0.1650
     13  O          8.3500   -2.7910    0.5690 O.2     1  UNL1       -0.4540
     14  O          8.5600   -2.7920   -1.6360 O.2     1  UNL1       -0.4540
     15  C          8.6590   -3.6600   -0.5310 C.3     1  UNL1        0.4680
@<TRIPOS>BOND
     1    10     8    1
     2    10    12    2
     3    14    12    1
     4    14    15    1
     5     8     7    2
     6    12    11    1
     7    15    13    1
     8     7     6    1
     9     7     9    1
    10    11    13    1
    11    11     9    2
    12     1     6    1
    13     1     2    1
    14     4     5    1
    15     4     2    1
    16     2     3    2
