@<TRIPOS>MOLECULE
/home/cewinharhar/GITHUB/reincatalyze/data/processed/docking_pred/2023-May-17-1006_maxeplen10_maxtrainstep1000_seadep16_gamma099_lrac9e-4_lrcr1e-3_sub6/4f8485ffa73320ccf1b94cd7b1ea99ef776c762b_ligand_6.pdbqt
 15 16 0 0 0
SMALL
GASTEIGER

@<TRIPOS>ATOM
      1  C          5.4110    2.8940    0.0700 C.3     1  UNL1        0.1270
      2  C          6.2420    3.8550    0.7780 C.2     1  UNL1        0.3030
      3  O          6.9100    4.7490    0.2540 O.2     1  UNL1       -0.2520
      4  O          6.2890    3.7590    2.1770 O.3     1  UNL1       -0.4810
      5  H          5.4580    3.4080    2.6280 H       1  UNL1        0.2960
      6  C          5.3170    1.5770    0.7350 C.3     1  UNL1        0.0470
      7  C          6.0790    0.4690    0.1540 C.2     1  UNL1       -0.0430
      8  C          6.4570   -0.6270    0.9140 C.2     1  UNL1        0.0080
      9  C          6.4760    0.5030   -1.1560 C.2     1  UNL1        0.0540
     10  C          7.2050   -1.6520    0.3790 C.2     1  UNL1        0.0510
     11  C          7.2260   -0.5140   -1.7150 C.2     1  UNL1        0.1660
     12  C          7.5930   -1.5950   -0.9500 C.2     1  UNL1        0.1650
     13  O          7.7290   -0.6900   -2.9920 O.2     1  UNL1       -0.4540
     14  O          8.3320   -2.4420   -1.7770 O.2     1  UNL1       -0.4540
     15  C          8.6920   -1.7540   -2.9530 C.3     1  UNL1        0.4680
@<TRIPOS>BOND
     1    13    15    1
     2    13    11    1
     3    15    14    1
     4    14    12    1
     5    11     9    1
     6    11    12    2
     7     9     7    2
     8    12    10    1
     9     1     6    1
    10     1     2    1
    11     7     6    1
    12     7     8    1
    13     3     2    2
    14    10     8    2
    15     2     4    1
    16     4     5    1
