MODEL 1
REMARK VINA RESULT:      -7.3      0.000      0.000
REMARK SMILES O=C(O)CCc1ccc2c(c1)OCO2
REMARK SMILES IDX 4 1 2 2 1 3 3 4 5 6 6 7 7 8 11 9 8 10 10 11 9 12 12 13 14 14
REMARK SMILES IDX 13 15
REMARK H PARENT 3 5
REMARK Flexibility Score: inf
ROOT
ATOM      1  C   UNL     1       5.411   2.894   0.070  1.00  0.00     0.127 C 
ENDROOT
BRANCH   1   2
ATOM      2  C   UNL     1       6.242   3.855   0.778  1.00  0.00     0.303 C 
ATOM      3  O   UNL     1       6.910   4.749   0.254  1.00  0.00    -0.252 OA
BRANCH   2   4
ATOM      4  O   UNL     1       6.289   3.759   2.177  1.00  0.00    -0.481 OA
ATOM      5  H   UNL     1       5.458   3.408   2.628  1.00  0.00     0.296 HD
ENDBRANCH   2   4
ENDBRANCH   1   2
BRANCH   1   6
ATOM      6  C   UNL     1       5.317   1.577   0.735  1.00  0.00     0.047 C 
BRANCH   6   7
ATOM      7  C   UNL     1       6.079   0.469   0.154  1.00  0.00    -0.043 A 
ATOM      8  C   UNL     1       6.457  -0.627   0.914  1.00  0.00     0.008 A 
ATOM      9  C   UNL     1       6.476   0.503  -1.156  1.00  0.00     0.054 A 
ATOM     10  C   UNL     1       7.205  -1.652   0.379  1.00  0.00     0.051 A 
ATOM     11  C   UNL     1       7.226  -0.514  -1.715  1.00  0.00     0.166 A 
ATOM     12  C   UNL     1       7.593  -1.595  -0.950  1.00  0.00     0.165 A 
ATOM     13  O   UNL     1       7.729  -0.690  -2.992  1.00  0.00    -0.454 OA
ATOM     14  O   UNL     1       8.332  -2.442  -1.777  1.00  0.00    -0.454 OA
ATOM     15  C   UNL     1       8.692  -1.754  -2.953  1.00  0.00     0.468 C 
ENDBRANCH   6   7
ENDBRANCH   1   6
TORSDOF 4
ENDMDL
MODEL 2
REMARK VINA RESULT:      -7.3      2.100      2.528
REMARK SMILES O=C(O)CCc1ccc2c(c1)OCO2
REMARK SMILES IDX 4 1 2 2 1 3 3 4 5 6 6 7 7 8 11 9 8 10 10 11 9 12 12 13 14 14
REMARK SMILES IDX 13 15
REMARK H PARENT 3 5
REMARK Flexibility Score: inf
ROOT
ATOM      1  C   UNL     1       4.680   1.881   0.660  1.00  0.00     0.127 C 
ENDROOT
BRANCH   1   2
ATOM      2  C   UNL     1       4.394   1.188   1.907  1.00  0.00     0.303 C 
ATOM      3  O   UNL     1       5.136   0.376   2.462  1.00  0.00    -0.252 OA
BRANCH   2   4
ATOM      4  O   UNL     1       3.168   1.465   2.531  1.00  0.00    -0.481 OA
ATOM      5  H   UNL     1       2.457   0.755   2.452  1.00  0.00     0.296 HD
ENDBRANCH   2   4
ENDBRANCH   1   2
BRANCH   1   6
ATOM      6  C   UNL     1       6.099   2.265   0.499  1.00  0.00     0.047 C 
BRANCH   6   7
ATOM      7  C   UNL     1       6.963   1.362  -0.264  1.00  0.00    -0.043 A 
ATOM      8  C   UNL     1       8.321   1.602  -0.402  1.00  0.00     0.008 A 
ATOM      9  C   UNL     1       6.442   0.266  -0.900  1.00  0.00     0.054 A 
ATOM     10  C   UNL     1       9.128   0.773  -1.149  1.00  0.00     0.051 A 
ATOM     11  C   UNL     1       7.233  -0.580  -1.654  1.00  0.00     0.166 A 
ATOM     12  C   UNL     1       8.578  -0.330  -1.781  1.00  0.00     0.165 A 
ATOM     13  O   UNL     1       6.930  -1.725  -2.371  1.00  0.00    -0.454 OA
ATOM     14  O   UNL     1       9.101  -1.341  -2.590  1.00  0.00    -0.454 OA
ATOM     15  C   UNL     1       8.047  -2.033  -3.218  1.00  0.00     0.468 C 
ENDBRANCH   6   7
ENDBRANCH   1   6
TORSDOF 4
ENDMDL
MODEL 3
REMARK VINA RESULT:      -7.2      2.003      2.996
REMARK SMILES O=C(O)CCc1ccc2c(c1)OCO2
REMARK SMILES IDX 4 1 2 2 1 3 3 4 5 6 6 7 7 8 11 9 8 10 10 11 9 12 12 13 14 14
REMARK SMILES IDX 13 15
REMARK H PARENT 3 5
REMARK Flexibility Score: inf
ROOT
ATOM      1  C   UNL     1       6.438   1.250   0.747  1.00  0.00     0.127 C 
ENDROOT
BRANCH   1   2
ATOM      2  C   UNL     1       5.243   1.147   1.570  1.00  0.00     0.303 C 
ATOM      3  O   UNL     1       5.029   0.279   2.418  1.00  0.00    -0.252 OA
BRANCH   2   4
ATOM      4  O   UNL     1       4.247   2.118   1.384  1.00  0.00    -0.481 OA
ATOM      5  H   UNL     1       4.386   2.995   1.862  1.00  0.00     0.296 HD
ENDBRANCH   2   4
ENDBRANCH   1   2
BRANCH   1   6
ATOM      6  C   UNL     1       6.246   0.801  -0.648  1.00  0.00     0.047 C 
BRANCH   6   7
ATOM      7  C   UNL     1       6.994  -0.378  -1.089  1.00  0.00    -0.043 A 
ATOM      8  C   UNL     1       7.277  -0.597  -2.429  1.00  0.00     0.008 A 
ATOM      9  C   UNL     1       7.404  -1.324  -0.188  1.00  0.00     0.054 A 
ATOM     10  C   UNL     1       7.949  -1.724  -2.849  1.00  0.00     0.051 A 
ATOM     11  C   UNL     1       8.080  -2.462  -0.586  1.00  0.00     0.166 A 
ATOM     12  C   UNL     1       8.355  -2.666  -1.917  1.00  0.00     0.165 A 
ATOM     13  O   UNL     1       8.581  -3.532   0.134  1.00  0.00    -0.454 OA
ATOM     14  O   UNL     1       9.035  -3.882  -2.006  1.00  0.00    -0.454 OA
ATOM     15  C   UNL     1       8.910  -4.581  -0.790  1.00  0.00     0.468 C 
ENDBRANCH   6   7
ENDBRANCH   1   6
TORSDOF 4
ENDMDL
MODEL 4
REMARK VINA RESULT:      -7.1      3.750      4.844
REMARK SMILES O=C(O)CCc1ccc2c(c1)OCO2
REMARK SMILES IDX 4 1 2 2 1 3 3 4 5 6 6 7 7 8 11 9 8 10 10 11 9 12 12 13 14 14
REMARK SMILES IDX 13 15
REMARK H PARENT 3 5
REMARK Flexibility Score: inf
ROOT
ATOM      1  C   UNL     1       6.487   0.271   1.021  1.00  0.00     0.127 C 
ENDROOT
BRANCH   1   2
ATOM      2  C   UNL     1       5.348   0.937   1.633  1.00  0.00     0.303 C 
ATOM      3  O   UNL     1       4.558   0.423   2.426  1.00  0.00    -0.252 OA
BRANCH   2   4
ATOM      4  O   UNL     1       5.128   2.281   1.291  1.00  0.00    -0.481 OA
ATOM      5  H   UNL     1       4.989   2.474   0.311  1.00  0.00     0.296 HD
ENDBRANCH   2   4
ENDBRANCH   1   2
BRANCH   1   6
ATOM      6  C   UNL     1       6.615  -1.156   1.388  1.00  0.00     0.047 C 
BRANCH   6   7
ATOM      7  C   UNL     1       7.712  -1.529   2.284  1.00  0.00    -0.043 A 
ATOM      8  C   UNL     1       7.681  -1.220   3.635  1.00  0.00     0.008 A 
ATOM      9  C   UNL     1       8.825  -2.165   1.801  1.00  0.00     0.054 A 
ATOM     10  C   UNL     1       8.727  -1.539   4.472  1.00  0.00     0.051 A 
ATOM     11  C   UNL     1       9.887  -2.495   2.623  1.00  0.00     0.166 A 
ATOM     12  C   UNL     1       9.842  -2.183   3.960  1.00  0.00     0.165 A 
ATOM     13  O   UNL     1      11.090  -3.127   2.360  1.00  0.00    -0.454 OA
ATOM     14  O   UNL     1      11.038  -2.634   4.519  1.00  0.00    -0.454 OA
ATOM     15  C   UNL     1      11.953  -2.938   3.491  1.00  0.00     0.468 C 
ENDBRANCH   6   7
ENDBRANCH   1   6
TORSDOF 4
ENDMDL
MODEL 5
REMARK VINA RESULT:      -7.1      2.037      2.643
REMARK SMILES O=C(O)CCc1ccc2c(c1)OCO2
REMARK SMILES IDX 4 1 2 2 1 3 3 4 5 6 6 7 7 8 11 9 8 10 10 11 9 12 12 13 14 14
REMARK SMILES IDX 13 15
REMARK H PARENT 3 5
REMARK Flexibility Score: inf
ROOT
ATOM      1  C   UNL     1       5.123   2.758   0.096  1.00  0.00     0.127 C 
ENDROOT
BRANCH   1   2
ATOM      2  C   UNL     1       6.105   3.641   0.705  1.00  0.00     0.303 C 
ATOM      3  O   UNL     1       6.815   4.448   0.103  1.00  0.00    -0.252 OA
BRANCH   2   4
ATOM      4  O   UNL     1       6.260   3.570   2.098  1.00  0.00    -0.481 OA
ATOM      5  H   UNL     1       5.437   3.318   2.625  1.00  0.00     0.296 HD
ENDBRANCH   2   4
ENDBRANCH   1   2
BRANCH   1   6
ATOM      6  C   UNL     1       5.705   1.549  -0.523  1.00  0.00     0.047 C 
BRANCH   6   7
ATOM      7  C   UNL     1       6.276   0.538   0.370  1.00  0.00    -0.043 A 
ATOM      8  C   UNL     1       5.586   0.083   1.483  1.00  0.00     0.008 A 
ATOM      9  C   UNL     1       7.532   0.039   0.152  1.00  0.00     0.054 A 
ATOM     10  C   UNL     1       6.136  -0.840   2.345  1.00  0.00     0.051 A 
ATOM     11  C   UNL     1       8.104  -0.888   1.002  1.00  0.00     0.166 A 
ATOM     12  C   UNL     1       7.408  -1.331   2.101  1.00  0.00     0.165 A 
ATOM     13  O   UNL     1       9.336  -1.519   0.979  1.00  0.00    -0.454 OA
ATOM     14  O   UNL     1       8.232  -2.248   2.757  1.00  0.00    -0.454 OA
ATOM     15  C   UNL     1       9.544  -2.144   2.255  1.00  0.00     0.468 C 
ENDBRANCH   6   7
ENDBRANCH   1   6
TORSDOF 4
ENDMDL
