@<TRIPOS>MOLECULE
/home/cewinharhar/GITHUB/reincatalyze/data/processed/docking_pred/2023-May-17-1006_maxeplen10_maxtrainstep1000_seadep16_gamma099_lrac9e-4_lrcr1e-3_sub6/4f8485ffa73320ccf1b94cd7b1ea99ef776c762b_ligand_6.pdbqt
 15 16 0 0 0
SMALL
GASTEIGER

@<TRIPOS>ATOM
      1  C          5.1230    2.7580    0.0960 C.3     1  UNL1        0.1270
      2  C          6.1050    3.6410    0.7050 C.2     1  UNL1        0.3030
      3  O          6.8150    4.4480    0.1030 O.2     1  UNL1       -0.2520
      4  O          6.2600    3.5700    2.0980 O.3     1  UNL1       -0.4810
      5  H          5.4370    3.3180    2.6250 H       1  UNL1        0.2960
      6  C          5.7050    1.5490   -0.5230 C.3     1  UNL1        0.0470
      7  C          6.2760    0.5380    0.3700 C.2     1  UNL1       -0.0430
      8  C          5.5860    0.0830    1.4830 C.2     1  UNL1        0.0080
      9  C          7.5320    0.0390    0.1520 C.2     1  UNL1        0.0540
     10  C          6.1360   -0.8400    2.3450 C.2     1  UNL1        0.0510
     11  C          8.1040   -0.8880    1.0020 C.2     1  UNL1        0.1660
     12  C          7.4080   -1.3310    2.1010 C.2     1  UNL1        0.1650
     13  O          9.3360   -1.5190    0.9790 O.2     1  UNL1       -0.4540
     14  O          8.2320   -2.2480    2.7570 O.2     1  UNL1       -0.4540
     15  C          9.5440   -2.1440    2.2550 C.3     1  UNL1        0.4680
@<TRIPOS>BOND
     1     6     1    1
     2     6     7    1
     3     1     2    1
     4     3     2    2
     5     9     7    2
     6     9    11    1
     7     7     8    1
     8     2     4    1
     9    13    11    1
    10    13    15    1
    11    11    12    2
    12     8    10    2
    13     4     5    1
    14    12    10    1
    15    12    14    1
    16    15    14    1
