@<TRIPOS>MOLECULE
/home/cewinharhar/GITHUB/reincatalyze/data/processed/docking_pred/2023-May-17-1006_maxeplen10_maxtrainstep1000_seadep16_gamma099_lrac9e-4_lrcr1e-3_sub6/4f8485ffa73320ccf1b94cd7b1ea99ef776c762b_ligand_6.pdbqt
 15 16 0 0 0
SMALL
GASTEIGER

@<TRIPOS>ATOM
      1  C          4.6800    1.8810    0.6600 C.3     1  UNL1        0.1270
      2  C          4.3940    1.1880    1.9070 C.2     1  UNL1        0.3030
      3  O          5.1360    0.3760    2.4620 O.2     1  UNL1       -0.2520
      4  O          3.1680    1.4650    2.5310 O.3     1  UNL1       -0.4810
      5  H          2.4570    0.7550    2.4520 H       1  UNL1        0.2960
      6  C          6.0990    2.2650    0.4990 C.3     1  UNL1        0.0470
      7  C          6.9630    1.3620   -0.2640 C.2     1  UNL1       -0.0430
      8  C          8.3210    1.6020   -0.4020 C.2     1  UNL1        0.0080
      9  C          6.4420    0.2660   -0.9000 C.2     1  UNL1        0.0540
     10  C          9.1280    0.7730   -1.1490 C.2     1  UNL1        0.0510
     11  C          7.2330   -0.5800   -1.6540 C.2     1  UNL1        0.1660
     12  C          8.5780   -0.3300   -1.7810 C.2     1  UNL1        0.1650
     13  O          6.9300   -1.7250   -2.3710 O.2     1  UNL1       -0.4540
     14  O          9.1010   -1.3410   -2.5900 O.2     1  UNL1       -0.4540
     15  C          8.0470   -2.0330   -3.2180 C.3     1  UNL1        0.4680
@<TRIPOS>BOND
     1    15    14    1
     2    15    13    1
     3    14    12    1
     4    13    11    1
     5    12    11    2
     6    12    10    1
     7    11     9    1
     8    10     8    2
     9     9     7    2
    10     8     7    1
    11     7     6    1
    12     6     1    1
    13     1     2    1
    14     2     3    2
    15     2     4    1
    16     5     4    1
