@<TRIPOS>MOLECULE
/home/cewinharhar/GITHUB/reincatalyze/data/processed/docking_pred/2023-May-17-1006_maxeplen10_maxtrainstep1000_seadep16_gamma099_lrac9e-4_lrcr1e-3_sub6/4f8485ffa73320ccf1b94cd7b1ea99ef776c762b_ligand_6.pdbqt
 15 16 0 0 0
SMALL
GASTEIGER

@<TRIPOS>ATOM
      1  C          6.4870    0.2710    1.0210 C.3     1  UNL1        0.1270
      2  C          5.3480    0.9370    1.6330 C.2     1  UNL1        0.3030
      3  O          4.5580    0.4230    2.4260 O.2     1  UNL1       -0.2520
      4  O          5.1280    2.2810    1.2910 O.3     1  UNL1       -0.4810
      5  H          4.9890    2.4740    0.3110 H       1  UNL1        0.2960
      6  C          6.6150   -1.1560    1.3880 C.3     1  UNL1        0.0470
      7  C          7.7120   -1.5290    2.2840 C.2     1  UNL1       -0.0430
      8  C          7.6810   -1.2200    3.6350 C.2     1  UNL1        0.0080
      9  C          8.8250   -2.1650    1.8010 C.2     1  UNL1        0.0540
     10  C          8.7270   -1.5390    4.4720 C.2     1  UNL1        0.0510
     11  C          9.8870   -2.4950    2.6230 C.2     1  UNL1        0.1660
     12  C          9.8420   -2.1830    3.9600 C.2     1  UNL1        0.1650
     13  O         11.0900   -3.1270    2.3600 O.2     1  UNL1       -0.4540
     14  O         11.0380   -2.6340    4.5190 O.2     1  UNL1       -0.4540
     15  C         11.9530   -2.9380    3.4910 C.3     1  UNL1        0.4680
@<TRIPOS>BOND
     1     5     4    1
     2     1     6    1
     3     1     2    1
     4     4     2    1
     5     6     7    1
     6     2     3    2
     7     9     7    2
     8     9    11    1
     9     7     8    1
    10    13    11    1
    11    13    15    1
    12    11    12    2
    13    15    14    1
    14     8    10    2
    15    12    10    1
    16    12    14    1
