@<TRIPOS>MOLECULE
/home/cewinharhar/GITHUB/reincatalyze/data/processed/docking_pred/2023-May-17-1006_maxeplen10_maxtrainstep1000_seadep16_gamma099_lrac9e-4_lrcr1e-3_sub6/4f8485ffa73320ccf1b94cd7b1ea99ef776c762b_ligand_6.pdbqt
 15 16 0 0 0
SMALL
GASTEIGER

@<TRIPOS>ATOM
      1  C          6.4380    1.2500    0.7470 C.3     1  UNL1        0.1270
      2  C          5.2430    1.1470    1.5700 C.2     1  UNL1        0.3030
      3  O          5.0290    0.2790    2.4180 O.2     1  UNL1       -0.2520
      4  O          4.2470    2.1180    1.3840 O.3     1  UNL1       -0.4810
      5  H          4.3860    2.9950    1.8620 H       1  UNL1        0.2960
      6  C          6.2460    0.8010   -0.6480 C.3     1  UNL1        0.0470
      7  C          6.9940   -0.3780   -1.0890 C.2     1  UNL1       -0.0430
      8  C          7.2770   -0.5970   -2.4290 C.2     1  UNL1        0.0080
      9  C          7.4040   -1.3240   -0.1880 C.2     1  UNL1        0.0540
     10  C          7.9490   -1.7240   -2.8490 C.2     1  UNL1        0.0510
     11  C          8.0800   -2.4620   -0.5860 C.2     1  UNL1        0.1660
     12  C          8.3550   -2.6660   -1.9170 C.2     1  UNL1        0.1650
     13  O          8.5810   -3.5320    0.1340 O.2     1  UNL1       -0.4540
     14  O          9.0350   -3.8820   -2.0060 O.2     1  UNL1       -0.4540
     15  C          8.9100   -4.5810   -0.7900 C.3     1  UNL1        0.4680
@<TRIPOS>BOND
     1    10     8    1
     2    10    12    2
     3     8     7    2
     4    14    12    1
     5    14    15    1
     6    12    11    1
     7     7     6    1
     8     7     9    1
     9    15    13    1
    10     6     1    1
    11    11     9    2
    12    11    13    1
    13     1     2    1
    14     4     2    1
    15     4     5    1
    16     2     3    2
