@<TRIPOS>MOLECULE
/home/cewinharhar/GITHUB/reincatalyze/data/processed/docking_pred/2023-May-17-1006_maxeplen10_maxtrainstep1000_seadep16_gamma099_lrac9e-4_lrcr1e-3_sub6/5131ba4422f83928eab452067adeb3f7f7723c60_ligand_6.pdbqt
 15 16 0 0 0
SMALL
GASTEIGER

@<TRIPOS>ATOM
      1  C          5.5600    2.5800    0.1340 C.3     1  UNL1        0.1270
      2  C          6.1320    3.6990    0.8660 C.2     1  UNL1        0.3030
      3  O          6.0830    3.8580    2.0870 O.2     1  UNL1       -0.2520
      4  O          6.7980    4.6840    0.1200 O.3     1  UNL1       -0.4810
      5  H          6.5290    4.7670   -0.8490 H       1  UNL1        0.2960
      6  C          5.7010    1.2780    0.8210 C.3     1  UNL1        0.0470
      7  C          6.4550    0.2280    0.1320 C.2     1  UNL1       -0.0430
      8  C          6.5660    0.2030   -1.2490 C.2     1  UNL1        0.0080
      9  C          7.0420   -0.7890    0.8370 C.2     1  UNL1        0.0540
     10  C          7.2440   -0.8040   -1.9000 C.2     1  UNL1        0.0510
     11  C          7.7270   -1.8090    0.2060 C.2     1  UNL1        0.1660
     12  C          7.8310   -1.8210   -1.1640 C.2     1  UNL1        0.1650
     13  O          8.3880   -2.9190    0.7040 O.2     1  UNL1       -0.4540
     14  O          8.5670   -2.9570   -1.5040 O.2     1  UNL1       -0.4540
     15  C          8.6530   -3.8120   -0.3880 C.3     1  UNL1        0.4680
@<TRIPOS>BOND
     1    10     8    1
     2    10    12    2
     3    14    12    1
     4    14    15    1
     5     8     7    2
     6    12    11    1
     7     5     4    1
     8    15    13    1
     9     4     2    1
    10     7     6    1
    11     7     9    1
    12     1     6    1
    13     1     2    1
    14    11    13    1
    15    11     9    2
    16     2     3    2
