@<TRIPOS>MOLECULE
/home/cewinharhar/GITHUB/reincatalyze/data/processed/docking_pred/2023-May-17-1006_maxeplen10_maxtrainstep1000_seadep16_gamma099_lrac9e-4_lrcr1e-3_sub6/5131ba4422f83928eab452067adeb3f7f7723c60_ligand_6.pdbqt
 15 16 0 0 0
SMALL
GASTEIGER

@<TRIPOS>ATOM
      1  C          5.4140    2.8700    0.1230 C.3     1  UNL1        0.1270
      2  C          6.2400    3.8540    0.8040 C.2     1  UNL1        0.3030
      3  O          6.8800    4.7540    0.2580 O.2     1  UNL1       -0.2520
      4  O          6.3160    3.7750    2.2040 O.3     1  UNL1       -0.4810
      5  H          5.8790    4.5250    2.7170 H       1  UNL1        0.2960
      6  C          5.3480    1.5630    0.8110 C.3     1  UNL1        0.0470
      7  C          6.1300    0.4600    0.2470 C.2     1  UNL1       -0.0430
      8  C          6.5860   -0.5840    1.0380 C.2     1  UNL1        0.0080
      9  C          6.4690    0.4500   -1.0800 C.2     1  UNL1        0.0540
     10  C          7.3520   -1.6020    0.5160 C.2     1  UNL1        0.0510
     11  C          7.2360   -0.5620   -1.6260 C.2     1  UNL1        0.1660
     12  C          7.6800   -1.5910   -0.8300 C.2     1  UNL1        0.1650
     13  O          7.6910   -0.7770   -2.9150 O.2     1  UNL1       -0.4540
     14  O          8.4180   -2.4450   -1.6510 O.2     1  UNL1       -0.4540
     15  C          8.6990   -1.7990   -2.8710 C.3     1  UNL1        0.4680
@<TRIPOS>BOND
     1    13    15    1
     2    13    11    1
     3    15    14    1
     4    14    12    1
     5    11     9    1
     6    11    12    2
     7     9     7    2
     8    12    10    1
     9     1     2    1
    10     1     6    1
    11     7     6    1
    12     7     8    1
    13     3     2    2
    14    10     8    2
    15     2     4    1
    16     4     5    1
