MODEL 1
REMARK VINA RESULT:      -7.7      0.000      0.000
REMARK SMILES O=C(O)CCc1ccc2c(c1)OCO2
REMARK SMILES IDX 4 1 2 2 1 3 3 4 5 6 6 7 7 8 11 9 8 10 10 11 9 12 12 13 14 14
REMARK SMILES IDX 13 15
REMARK H PARENT 3 5
REMARK Flexibility Score: inf
ROOT
ATOM      1  C   UNL     1       5.414   2.870   0.123  1.00  0.00     0.127 C 
ENDROOT
BRANCH   1   2
ATOM      2  C   UNL     1       6.240   3.854   0.804  1.00  0.00     0.303 C 
ATOM      3  O   UNL     1       6.880   4.754   0.258  1.00  0.00    -0.252 OA
BRANCH   2   4
ATOM      4  O   UNL     1       6.316   3.775   2.204  1.00  0.00    -0.481 OA
ATOM      5  H   UNL     1       5.879   4.525   2.717  1.00  0.00     0.296 HD
ENDBRANCH   2   4
ENDBRANCH   1   2
BRANCH   1   6
ATOM      6  C   UNL     1       5.348   1.563   0.811  1.00  0.00     0.047 C 
BRANCH   6   7
ATOM      7  C   UNL     1       6.130   0.460   0.247  1.00  0.00    -0.043 A 
ATOM      8  C   UNL     1       6.586  -0.584   1.038  1.00  0.00     0.008 A 
ATOM      9  C   UNL     1       6.469   0.450  -1.080  1.00  0.00     0.054 A 
ATOM     10  C   UNL     1       7.352  -1.602   0.516  1.00  0.00     0.051 A 
ATOM     11  C   UNL     1       7.236  -0.562  -1.626  1.00  0.00     0.166 A 
ATOM     12  C   UNL     1       7.680  -1.591  -0.830  1.00  0.00     0.165 A 
ATOM     13  O   UNL     1       7.691  -0.777  -2.915  1.00  0.00    -0.454 OA
ATOM     14  O   UNL     1       8.418  -2.445  -1.651  1.00  0.00    -0.454 OA
ATOM     15  C   UNL     1       8.699  -1.799  -2.871  1.00  0.00     0.468 C 
ENDBRANCH   6   7
ENDBRANCH   1   6
TORSDOF 4
ENDMDL
MODEL 2
REMARK VINA RESULT:      -7.6      2.136      2.516
REMARK SMILES O=C(O)CCc1ccc2c(c1)OCO2
REMARK SMILES IDX 4 1 2 2 1 3 3 4 5 6 6 7 7 8 11 9 8 10 10 11 9 12 12 13 14 14
REMARK SMILES IDX 13 15
REMARK H PARENT 3 5
REMARK Flexibility Score: inf
ROOT
ATOM      1  C   UNL     1       4.684   1.855   0.694  1.00  0.00     0.127 C 
ENDROOT
BRANCH   1   2
ATOM      2  C   UNL     1       4.397   1.136   1.926  1.00  0.00     0.303 C 
ATOM      3  O   UNL     1       5.134   0.305   2.459  1.00  0.00    -0.252 OA
BRANCH   2   4
ATOM      4  O   UNL     1       3.177   1.411   2.563  1.00  0.00    -0.481 OA
ATOM      5  H   UNL     1       2.343   1.222   2.028  1.00  0.00     0.296 HD
ENDBRANCH   2   4
ENDBRANCH   1   2
BRANCH   1   6
ATOM      6  C   UNL     1       6.106   2.229   0.535  1.00  0.00     0.047 C 
BRANCH   6   7
ATOM      7  C   UNL     1       6.963   1.322  -0.231  1.00  0.00    -0.043 A 
ATOM      8  C   UNL     1       8.327   1.541  -0.351  1.00  0.00     0.008 A 
ATOM      9  C   UNL     1       6.431   0.244  -0.888  1.00  0.00     0.054 A 
ATOM     10  C   UNL     1       9.128   0.710  -1.101  1.00  0.00     0.051 A 
ATOM     11  C   UNL     1       7.216  -0.605  -1.646  1.00  0.00     0.166 A 
ATOM     12  C   UNL     1       8.566  -0.375  -1.755  1.00  0.00     0.165 A 
ATOM     13  O   UNL     1       6.902  -1.734  -2.382  1.00  0.00    -0.454 OA
ATOM     14  O   UNL     1       9.081  -1.383  -2.572  1.00  0.00    -0.454 OA
ATOM     15  C   UNL     1       8.023  -2.049  -3.222  1.00  0.00     0.468 C 
ENDBRANCH   6   7
ENDBRANCH   1   6
TORSDOF 4
ENDMDL
MODEL 3
REMARK VINA RESULT:      -7.5      1.797      5.281
REMARK SMILES O=C(O)CCc1ccc2c(c1)OCO2
REMARK SMILES IDX 4 1 2 2 1 3 3 4 5 6 6 7 7 8 11 9 8 10 10 11 9 12 12 13 14 14
REMARK SMILES IDX 13 15
REMARK H PARENT 3 5
REMARK Flexibility Score: inf
ROOT
ATOM      1  C   UNL     1       8.302  -0.315  -2.848  1.00  0.00     0.127 C 
ENDROOT
BRANCH   1   2
ATOM      2  C   UNL     1       8.465  -1.744  -3.066  1.00  0.00     0.303 C 
ATOM      3  O   UNL     1       9.532  -2.359  -3.023  1.00  0.00    -0.252 OA
BRANCH   2   4
ATOM      4  O   UNL     1       7.309  -2.489  -3.349  1.00  0.00    -0.481 OA
ATOM      5  H   UNL     1       6.537  -1.977  -3.748  1.00  0.00     0.296 HD
ENDBRANCH   2   4
ENDBRANCH   1   2
BRANCH   1   6
ATOM      6  C   UNL     1       8.763   0.146  -1.521  1.00  0.00     0.047 C 
BRANCH   6   7
ATOM      7  C   UNL     1       7.799   0.110  -0.419  1.00  0.00    -0.043 A 
ATOM      8  C   UNL     1       7.769  -0.942   0.484  1.00  0.00     0.008 A 
ATOM      9  C   UNL     1       6.867   1.102  -0.272  1.00  0.00     0.054 A 
ATOM     10  C   UNL     1       6.840  -0.995   1.499  1.00  0.00     0.051 A 
ATOM     11  C   UNL     1       5.925   1.070   0.740  1.00  0.00     0.166 A 
ATOM     12  C   UNL     1       5.908   0.022   1.628  1.00  0.00     0.165 A 
ATOM     13  O   UNL     1       4.907   1.946   1.075  1.00  0.00    -0.454 OA
ATOM     14  O   UNL     1       4.862   0.266   2.519  1.00  0.00    -0.454 OA
ATOM     15  C   UNL     1       4.036   1.287   2.007  1.00  0.00     0.468 C 
ENDBRANCH   6   7
ENDBRANCH   1   6
TORSDOF 4
ENDMDL
MODEL 4
REMARK VINA RESULT:      -7.4      1.976      2.956
REMARK SMILES O=C(O)CCc1ccc2c(c1)OCO2
REMARK SMILES IDX 4 1 2 2 1 3 3 4 5 6 6 7 7 8 11 9 8 10 10 11 9 12 12 13 14 14
REMARK SMILES IDX 13 15
REMARK H PARENT 3 5
REMARK Flexibility Score: inf
ROOT
ATOM      1  C   UNL     1       6.405   1.329   0.655  1.00  0.00     0.127 C 
ENDROOT
BRANCH   1   2
ATOM      2  C   UNL     1       5.282   1.130   1.557  1.00  0.00     0.303 C 
ATOM      3  O   UNL     1       5.184   0.228   2.392  1.00  0.00    -0.252 OA
BRANCH   2   4
ATOM      4  O   UNL     1       4.217   2.040   1.472  1.00  0.00    -0.481 OA
ATOM      5  H   UNL     1       3.463   1.905   2.127  1.00  0.00     0.296 HD
ENDBRANCH   2   4
ENDBRANCH   1   2
BRANCH   1   6
ATOM      6  C   UNL     1       6.163   0.846  -0.722  1.00  0.00     0.047 C 
BRANCH   6   7
ATOM      7  C   UNL     1       6.945  -0.302  -1.184  1.00  0.00    -0.043 A 
ATOM      8  C   UNL     1       7.277  -0.461  -2.521  1.00  0.00     0.008 A 
ATOM      9  C   UNL     1       7.341  -1.278  -0.309  1.00  0.00     0.054 A 
ATOM     10  C   UNL     1       7.981  -1.559  -2.963  1.00  0.00     0.051 A 
ATOM     11  C   UNL     1       8.049  -2.388  -0.730  1.00  0.00     0.166 A 
ATOM     12  C   UNL     1       8.372  -2.532  -2.058  1.00  0.00     0.165 A 
ATOM     13  O   UNL     1       8.544  -3.479  -0.037  1.00  0.00    -0.454 OA
ATOM     14  O   UNL     1       9.075  -3.732  -2.173  1.00  0.00    -0.454 OA
ATOM     15  C   UNL     1       8.921  -4.483  -0.991  1.00  0.00     0.468 C 
ENDBRANCH   6   7
ENDBRANCH   1   6
TORSDOF 4
ENDMDL
