@<TRIPOS>MOLECULE
/home/cewinharhar/GITHUB/reincatalyze/data/processed/docking_pred/2023-May-17-1006_maxeplen10_maxtrainstep1000_seadep16_gamma099_lrac9e-4_lrcr1e-3_sub6/5131ba4422f83928eab452067adeb3f7f7723c60_ligand_6.pdbqt
 15 16 0 0 0
SMALL
GASTEIGER

@<TRIPOS>ATOM
      1  C          4.6840    1.8550    0.6940 C.3     1  UNL1        0.1270
      2  C          4.3970    1.1360    1.9260 C.2     1  UNL1        0.3030
      3  O          5.1340    0.3050    2.4590 O.2     1  UNL1       -0.2520
      4  O          3.1770    1.4110    2.5630 O.3     1  UNL1       -0.4810
      5  H          2.3430    1.2220    2.0280 H       1  UNL1        0.2960
      6  C          6.1060    2.2290    0.5350 C.3     1  UNL1        0.0470
      7  C          6.9630    1.3220   -0.2310 C.2     1  UNL1       -0.0430
      8  C          8.3270    1.5410   -0.3510 C.2     1  UNL1        0.0080
      9  C          6.4310    0.2440   -0.8880 C.2     1  UNL1        0.0540
     10  C          9.1280    0.7100   -1.1010 C.2     1  UNL1        0.0510
     11  C          7.2160   -0.6050   -1.6460 C.2     1  UNL1        0.1660
     12  C          8.5660   -0.3750   -1.7550 C.2     1  UNL1        0.1650
     13  O          6.9020   -1.7340   -2.3820 O.2     1  UNL1       -0.4540
     14  O          9.0810   -1.3830   -2.5720 O.2     1  UNL1       -0.4540
     15  C          8.0230   -2.0490   -3.2220 C.3     1  UNL1        0.4680
@<TRIPOS>BOND
     1    15    14    1
     2    15    13    1
     3    14    12    1
     4    13    11    1
     5    12    11    2
     6    12    10    1
     7    11     9    1
     8    10     8    2
     9     9     7    2
    10     8     7    1
    11     7     6    1
    12     6     1    1
    13     1     2    1
    14     2     3    2
    15     2     4    1
    16     5     4    1
