@<TRIPOS>MOLECULE
/home/cewinharhar/GITHUB/reincatalyze/data/processed/docking_pred/2023-May-17-1006_maxeplen10_maxtrainstep1000_seadep16_gamma099_lrac9e-4_lrcr1e-3_sub6/5131ba4422f83928eab452067adeb3f7f7723c60_ligand_6.pdbqt
 15 16 0 0 0
SMALL
GASTEIGER

@<TRIPOS>ATOM
      1  C          6.4050    1.3290    0.6550 C.3     1  UNL1        0.1270
      2  C          5.2820    1.1300    1.5570 C.2     1  UNL1        0.3030
      3  O          5.1840    0.2280    2.3920 O.2     1  UNL1       -0.2520
      4  O          4.2170    2.0400    1.4720 O.3     1  UNL1       -0.4810
      5  H          3.4630    1.9050    2.1270 H       1  UNL1        0.2960
      6  C          6.1630    0.8460   -0.7220 C.3     1  UNL1        0.0470
      7  C          6.9450   -0.3020   -1.1840 C.2     1  UNL1       -0.0430
      8  C          7.2770   -0.4610   -2.5210 C.2     1  UNL1        0.0080
      9  C          7.3410   -1.2780   -0.3090 C.2     1  UNL1        0.0540
     10  C          7.9810   -1.5590   -2.9630 C.2     1  UNL1        0.0510
     11  C          8.0490   -2.3880   -0.7300 C.2     1  UNL1        0.1660
     12  C          8.3720   -2.5320   -2.0580 C.2     1  UNL1        0.1650
     13  O          8.5440   -3.4790   -0.0370 O.2     1  UNL1       -0.4540
     14  O          9.0750   -3.7320   -2.1730 O.2     1  UNL1       -0.4540
     15  C          8.9210   -4.4830   -0.9910 C.3     1  UNL1        0.4680
@<TRIPOS>BOND
     1    10     8    1
     2    10    12    2
     3     8     7    2
     4    14    12    1
     5    14    15    1
     6    12    11    1
     7     7     6    1
     8     7     9    1
     9    15    13    1
    10    11     9    2
    11    11    13    1
    12     6     1    1
    13     1     2    1
    14     4     2    1
    15     4     5    1
    16     2     3    2
