@<TRIPOS>MOLECULE
/home/cewinharhar/GITHUB/reincatalyze/data/processed/docking_pred/2023-May-17-1006_maxeplen10_maxtrainstep1000_seadep16_gamma099_lrac9e-4_lrcr1e-3_sub6/5131ba4422f83928eab452067adeb3f7f7723c60_ligand_6.pdbqt
 15 16 0 0 0
SMALL
GASTEIGER

@<TRIPOS>ATOM
      1  C          8.3020   -0.3150   -2.8480 C.3     1  UNL1        0.1270
      2  C          8.4650   -1.7440   -3.0660 C.2     1  UNL1        0.3030
      3  O          9.5320   -2.3590   -3.0230 O.2     1  UNL1       -0.2520
      4  O          7.3090   -2.4890   -3.3490 O.3     1  UNL1       -0.4810
      5  H          6.5370   -1.9770   -3.7480 H       1  UNL1        0.2960
      6  C          8.7630    0.1460   -1.5210 C.3     1  UNL1        0.0470
      7  C          7.7990    0.1100   -0.4190 C.2     1  UNL1       -0.0430
      8  C          7.7690   -0.9420    0.4840 C.2     1  UNL1        0.0080
      9  C          6.8670    1.1020   -0.2720 C.2     1  UNL1        0.0540
     10  C          6.8400   -0.9950    1.4990 C.2     1  UNL1        0.0510
     11  C          5.9250    1.0700    0.7400 C.2     1  UNL1        0.1660
     12  C          5.9080    0.0220    1.6280 C.2     1  UNL1        0.1650
     13  O          4.9070    1.9460    1.0750 O.2     1  UNL1       -0.4540
     14  O          4.8620    0.2660    2.5190 O.2     1  UNL1       -0.4540
     15  C          4.0360    1.2870    2.0070 C.3     1  UNL1        0.4680
@<TRIPOS>BOND
     1     5     4    1
     2     4     2    1
     3     2     3    2
     4     2     1    1
     5     1     6    1
     6     6     7    1
     7     7     9    2
     8     7     8    1
     9     9    11    1
    10     8    10    2
    11    11    13    1
    12    11    12    2
    13    13    15    1
    14    10    12    1
    15    12    14    1
    16    15    14    1
