@<TRIPOS>MOLECULE
/home/cewinharhar/GITHUB/reincatalyze/data/processed/docking_pred/2023-May-17-1006_maxeplen10_maxtrainstep1000_seadep16_gamma099_lrac9e-4_lrcr1e-3_sub6/51cadb519a72bd0ce332fe372f57097c9ba117cb_ligand_6.pdbqt
 15 16 0 0 0
SMALL
GASTEIGER

@<TRIPOS>ATOM
      1  C          5.4020    2.8880    0.0790 C.3     1  UNL1        0.1270
      2  C          6.2330    3.8460    0.7920 C.2     1  UNL1        0.3030
      3  O          6.8660    4.7690    0.2780 O.2     1  UNL1       -0.2520
      4  O          6.3230    3.7080    2.1860 O.3     1  UNL1       -0.4810
      5  H          7.0320    3.0770    2.5260 H       1  UNL1        0.2960
      6  C          5.2810    1.5790    0.7540 C.3     1  UNL1        0.0470
      7  C          6.0780    0.4690    0.2280 C.2     1  UNL1       -0.0430
      8  C          6.5640   -0.5310    1.0560 C.2     1  UNL1        0.0080
      9  C          6.4020    0.4080   -1.1020 C.2     1  UNL1        0.0540
     10  C          7.3440   -1.5560    0.5680 C.2     1  UNL1        0.0510
     11  C          7.1830   -0.6100   -1.6140 C.2     1  UNL1        0.1660
     12  C          7.6570   -1.5960   -0.7810 C.2     1  UNL1        0.1650
     13  O          7.6280   -0.8700   -2.8980 O.2     1  UNL1       -0.4540
     14  O          8.4030   -2.4690   -1.5750 O.2     1  UNL1       -0.4540
     15  C          8.6560   -1.8700   -2.8240 C.3     1  UNL1        0.4680
@<TRIPOS>BOND
     1    13    15    1
     2    13    11    1
     3    15    14    1
     4    11     9    1
     5    11    12    2
     6    14    12    1
     7     9     7    2
     8    12    10    1
     9     1     6    1
    10     1     2    1
    11     7     6    1
    12     7     8    1
    13     3     2    2
    14    10     8    2
    15     2     4    1
    16     4     5    1
