@<TRIPOS>MOLECULE
/home/cewinharhar/GITHUB/reincatalyze/data/processed/docking_pred/2023-May-17-1006_maxeplen10_maxtrainstep1000_seadep16_gamma099_lrac9e-4_lrcr1e-3_sub6/51cadb519a72bd0ce332fe372f57097c9ba117cb_ligand_6.pdbqt
 15 16 0 0 0
SMALL
GASTEIGER

@<TRIPOS>ATOM
      1  C          6.4200    1.2770    0.7290 C.3     1  UNL1        0.1270
      2  C          5.1630    1.3250    1.4580 C.2     1  UNL1        0.3030
      3  O          4.2710    2.1600    1.2960 O.2     1  UNL1       -0.2520
      4  O          4.9440    0.3370    2.4310 O.3     1  UNL1       -0.4810
      5  H          4.9160    0.6540    3.3880 H       1  UNL1        0.2960
      6  C          6.2770    0.8840   -0.6890 C.3     1  UNL1        0.0470
      7  C          7.0110   -0.3000   -1.1410 C.2     1  UNL1       -0.0430
      8  C          7.2720   -0.5220   -2.4840 C.2     1  UNL1        0.0080
      9  C          7.4310   -1.2480   -0.2460 C.2     1  UNL1        0.0540
     10  C          7.9310   -1.6530   -2.9140 C.2     1  UNL1        0.0510
     11  C          8.0940   -2.3900   -0.6540 C.2     1  UNL1        0.1660
     12  C          8.3470   -2.5960   -1.9880 C.2     1  UNL1        0.1650
     13  O          8.6020   -3.4620    0.0590 O.2     1  UNL1       -0.4540
     14  O          9.0190   -3.8150   -2.0880 O.2     1  UNL1       -0.4540
     15  C          8.9100   -4.5130   -0.8680 C.3     1  UNL1        0.4680
@<TRIPOS>BOND
     1    10     8    1
     2    10    12    2
     3     8     7    2
     4    14    12    1
     5    14    15    1
     6    12    11    1
     7     7     6    1
     8     7     9    1
     9    15    13    1
    10     6     1    1
    11    11     9    2
    12    11    13    1
    13     1     2    1
    14     3     2    2
    15     2     4    1
    16     4     5    1
