@<TRIPOS>MOLECULE
/home/cewinharhar/GITHUB/reincatalyze/data/processed/docking_pred/2023-May-17-1006_maxeplen10_maxtrainstep1000_seadep16_gamma099_lrac9e-4_lrcr1e-3_sub6/51cadb519a72bd0ce332fe372f57097c9ba117cb_ligand_6.pdbqt
 15 16 0 0 0
SMALL
GASTEIGER

@<TRIPOS>ATOM
      1  C          8.2300   -0.2100   -2.8450 C.3     1  UNL1        0.1270
      2  C          8.4670   -1.6310   -3.0440 C.2     1  UNL1        0.3030
      3  O          9.5520   -2.2010   -2.9180 O.2     1  UNL1       -0.2520
      4  O          7.3670   -2.4230   -3.4100 O.3     1  UNL1       -0.4810
      5  H          7.0490   -3.0880   -2.7220 H       1  UNL1        0.2960
      6  C          8.6820    0.2970   -1.5320 C.3     1  UNL1        0.0470
      7  C          7.7320    0.2350   -0.4190 C.2     1  UNL1       -0.0430
      8  C          7.7600   -0.8030    0.5000 C.2     1  UNL1        0.0080
      9  C          6.7580    1.1870   -0.2760 C.2     1  UNL1        0.0540
     10  C          6.8450   -0.8810    1.5270 C.2     1  UNL1        0.0510
     11  C          5.8300    1.1290    0.7470 C.2     1  UNL1        0.1660
     12  C          5.8700    0.0950    1.6510 C.2     1  UNL1        0.1650
     13  O          4.7780    1.9630    1.0810 O.2     1  UNL1       -0.4540
     14  O          4.8230    0.3060    2.5500 O.2     1  UNL1       -0.4540
     15  C          3.9480    1.2810    2.0330 C.3     1  UNL1        0.4680
@<TRIPOS>BOND
     1     4     2    1
     2     4     5    1
     3     2     3    2
     4     2     1    1
     5     1     6    1
     6     6     7    1
     7     7     9    2
     8     7     8    1
     9     9    11    1
    10     8    10    2
    11    11    13    1
    12    11    12    2
    13    13    15    1
    14    10    12    1
    15    12    14    1
    16    15    14    1
