@<TRIPOS>MOLECULE
/home/cewinharhar/GITHUB/reincatalyze/data/processed/docking_pred/2023-May-17-1006_maxeplen10_maxtrainstep1000_seadep16_gamma099_lrac9e-4_lrcr1e-3_sub6/51cadb519a72bd0ce332fe372f57097c9ba117cb_ligand_6.pdbqt
 15 16 0 0 0
SMALL
GASTEIGER

@<TRIPOS>ATOM
      1  C          5.3280    2.8280    0.2150 C.3     1  UNL1        0.1270
      2  C          6.1660    3.7400    0.9790 C.2     1  UNL1        0.3030
      3  O          6.3400    3.7030    2.1980 O.2     1  UNL1       -0.2520
      4  O          6.8350    4.7480    0.2680 O.3     1  UNL1       -0.4810
      5  H          6.7110    4.7450   -0.7330 H       1  UNL1        0.2960
      6  C          5.2590    1.4630    0.7780 C.3     1  UNL1        0.0470
      7  C          6.1370    0.4450    0.1950 C.2     1  UNL1       -0.0430
      8  C          6.4750    0.4640   -1.1490 C.2     1  UNL1        0.0080
      9  C          6.6220   -0.5820    0.9600 C.2     1  UNL1        0.0540
     10  C          7.2710   -0.5120   -1.7060 C.2     1  UNL1        0.0510
     11  C          7.4230   -1.5720    0.4230 C.2     1  UNL1        0.1660
     12  C          7.7510   -1.5410   -0.9110 C.2     1  UNL1        0.1650
     13  O          8.0160   -2.6850    0.9930 O.2     1  UNL1       -0.4540
     14  O          8.5560   -2.6540   -1.1550 O.2     1  UNL1       -0.4540
     15  C          8.4750   -3.5410   -0.0630 C.3     1  UNL1        0.4680
@<TRIPOS>BOND
     1    10     8    1
     2    10    12    2
     3    14    12    1
     4    14    15    1
     5     8     7    2
     6    12    11    1
     7     5     4    1
     8    15    13    1
     9     7     6    1
    10     7     9    1
    11     1     6    1
    12     1     2    1
    13     4     2    1
    14    11     9    2
    15    11    13    1
    16     2     3    2
