MODEL 1
REMARK VINA RESULT:      -7.7      0.000      0.000
REMARK SMILES O=C(O)CCc1ccc2c(c1)OCO2
REMARK SMILES IDX 4 1 2 2 1 3 3 4 5 6 6 7 7 8 11 9 8 10 10 11 9 12 12 13 14 14
REMARK SMILES IDX 13 15
REMARK H PARENT 3 5
REMARK Flexibility Score: inf
ROOT
ATOM      1  C   UNL     1       5.402   2.888   0.079  1.00  0.00     0.127 C 
ENDROOT
BRANCH   1   2
ATOM      2  C   UNL     1       6.233   3.846   0.792  1.00  0.00     0.303 C 
ATOM      3  O   UNL     1       6.866   4.769   0.278  1.00  0.00    -0.252 OA
BRANCH   2   4
ATOM      4  O   UNL     1       6.323   3.708   2.186  1.00  0.00    -0.481 OA
ATOM      5  H   UNL     1       7.032   3.077   2.526  1.00  0.00     0.296 HD
ENDBRANCH   2   4
ENDBRANCH   1   2
BRANCH   1   6
ATOM      6  C   UNL     1       5.281   1.579   0.754  1.00  0.00     0.047 C 
BRANCH   6   7
ATOM      7  C   UNL     1       6.078   0.469   0.228  1.00  0.00    -0.043 A 
ATOM      8  C   UNL     1       6.564  -0.531   1.056  1.00  0.00     0.008 A 
ATOM      9  C   UNL     1       6.402   0.408  -1.102  1.00  0.00     0.054 A 
ATOM     10  C   UNL     1       7.344  -1.556   0.568  1.00  0.00     0.051 A 
ATOM     11  C   UNL     1       7.183  -0.610  -1.614  1.00  0.00     0.166 A 
ATOM     12  C   UNL     1       7.657  -1.596  -0.781  1.00  0.00     0.165 A 
ATOM     13  O   UNL     1       7.628  -0.870  -2.898  1.00  0.00    -0.454 OA
ATOM     14  O   UNL     1       8.403  -2.469  -1.575  1.00  0.00    -0.454 OA
ATOM     15  C   UNL     1       8.656  -1.870  -2.824  1.00  0.00     0.468 C 
ENDBRANCH   6   7
ENDBRANCH   1   6
TORSDOF 4
ENDMDL
MODEL 2
REMARK VINA RESULT:      -7.6      2.124      2.509
REMARK SMILES O=C(O)CCc1ccc2c(c1)OCO2
REMARK SMILES IDX 4 1 2 2 1 3 3 4 5 6 6 7 7 8 11 9 8 10 10 11 9 12 12 13 14 14
REMARK SMILES IDX 13 15
REMARK H PARENT 3 5
REMARK Flexibility Score: inf
ROOT
ATOM      1  C   UNL     1       4.698   1.877   0.677  1.00  0.00     0.127 C 
ENDROOT
BRANCH   1   2
ATOM      2  C   UNL     1       4.402   1.169   1.912  1.00  0.00     0.303 C 
ATOM      3  O   UNL     1       5.133   0.340   2.456  1.00  0.00    -0.252 OA
BRANCH   2   4
ATOM      4  O   UNL     1       3.179   1.452   2.540  1.00  0.00    -0.481 OA
ATOM      5  H   UNL     1       2.515   0.694   2.586  1.00  0.00     0.296 HD
ENDBRANCH   2   4
ENDBRANCH   1   2
BRANCH   1   6
ATOM      6  C   UNL     1       6.122   2.243   0.522  1.00  0.00     0.047 C 
BRANCH   6   7
ATOM      7  C   UNL     1       6.974   1.335  -0.248  1.00  0.00    -0.043 A 
ATOM      8  C   UNL     1       8.338   1.553  -0.375  1.00  0.00     0.008 A 
ATOM      9  C   UNL     1       6.438   0.258  -0.903  1.00  0.00     0.054 A 
ATOM     10  C   UNL     1       9.134   0.720  -1.128  1.00  0.00     0.051 A 
ATOM     11  C   UNL     1       7.219  -0.592  -1.664  1.00  0.00     0.166 A 
ATOM     12  C   UNL     1       8.569  -0.364  -1.779  1.00  0.00     0.165 A 
ATOM     13  O   UNL     1       6.900  -1.721  -2.398  1.00  0.00    -0.454 OA
ATOM     14  O   UNL     1       9.079  -1.373  -2.598  1.00  0.00    -0.454 OA
ATOM     15  C   UNL     1       8.017  -2.037  -3.243  1.00  0.00     0.468 C 
ENDBRANCH   6   7
ENDBRANCH   1   6
TORSDOF 4
ENDMDL
MODEL 3
REMARK VINA RESULT:      -7.5      1.802      5.251
REMARK SMILES O=C(O)CCc1ccc2c(c1)OCO2
REMARK SMILES IDX 4 1 2 2 1 3 3 4 5 6 6 7 7 8 11 9 8 10 10 11 9 12 12 13 14 14
REMARK SMILES IDX 13 15
REMARK H PARENT 3 5
REMARK Flexibility Score: inf
ROOT
ATOM      1  C   UNL     1       8.230  -0.210  -2.845  1.00  0.00     0.127 C 
ENDROOT
BRANCH   1   2
ATOM      2  C   UNL     1       8.467  -1.631  -3.044  1.00  0.00     0.303 C 
ATOM      3  O   UNL     1       9.552  -2.201  -2.918  1.00  0.00    -0.252 OA
BRANCH   2   4
ATOM      4  O   UNL     1       7.367  -2.423  -3.410  1.00  0.00    -0.481 OA
ATOM      5  H   UNL     1       7.049  -3.088  -2.722  1.00  0.00     0.296 HD
ENDBRANCH   2   4
ENDBRANCH   1   2
BRANCH   1   6
ATOM      6  C   UNL     1       8.682   0.297  -1.532  1.00  0.00     0.047 C 
BRANCH   6   7
ATOM      7  C   UNL     1       7.732   0.235  -0.419  1.00  0.00    -0.043 A 
ATOM      8  C   UNL     1       7.760  -0.803   0.500  1.00  0.00     0.008 A 
ATOM      9  C   UNL     1       6.758   1.187  -0.276  1.00  0.00     0.054 A 
ATOM     10  C   UNL     1       6.845  -0.881   1.527  1.00  0.00     0.051 A 
ATOM     11  C   UNL     1       5.830   1.129   0.747  1.00  0.00     0.166 A 
ATOM     12  C   UNL     1       5.870   0.095   1.651  1.00  0.00     0.165 A 
ATOM     13  O   UNL     1       4.778   1.963   1.081  1.00  0.00    -0.454 OA
ATOM     14  O   UNL     1       4.823   0.306   2.550  1.00  0.00    -0.454 OA
ATOM     15  C   UNL     1       3.948   1.281   2.033  1.00  0.00     0.468 C 
ENDBRANCH   6   7
ENDBRANCH   1   6
TORSDOF 4
ENDMDL
MODEL 4
REMARK VINA RESULT:      -7.5      0.934      2.105
REMARK SMILES O=C(O)CCc1ccc2c(c1)OCO2
REMARK SMILES IDX 4 1 2 2 1 3 3 4 5 6 6 7 7 8 11 9 8 10 10 11 9 12 12 13 14 14
REMARK SMILES IDX 13 15
REMARK H PARENT 3 5
REMARK Flexibility Score: inf
ROOT
ATOM      1  C   UNL     1       5.328   2.828   0.215  1.00  0.00     0.127 C 
ENDROOT
BRANCH   1   2
ATOM      2  C   UNL     1       6.166   3.740   0.979  1.00  0.00     0.303 C 
ATOM      3  O   UNL     1       6.340   3.703   2.198  1.00  0.00    -0.252 OA
BRANCH   2   4
ATOM      4  O   UNL     1       6.835   4.748   0.268  1.00  0.00    -0.481 OA
ATOM      5  H   UNL     1       6.711   4.745  -0.733  1.00  0.00     0.296 HD
ENDBRANCH   2   4
ENDBRANCH   1   2
BRANCH   1   6
ATOM      6  C   UNL     1       5.259   1.463   0.778  1.00  0.00     0.047 C 
BRANCH   6   7
ATOM      7  C   UNL     1       6.137   0.445   0.195  1.00  0.00    -0.043 A 
ATOM      8  C   UNL     1       6.475   0.464  -1.149  1.00  0.00     0.008 A 
ATOM      9  C   UNL     1       6.622  -0.582   0.960  1.00  0.00     0.054 A 
ATOM     10  C   UNL     1       7.271  -0.512  -1.706  1.00  0.00     0.051 A 
ATOM     11  C   UNL     1       7.423  -1.572   0.423  1.00  0.00     0.166 A 
ATOM     12  C   UNL     1       7.751  -1.541  -0.911  1.00  0.00     0.165 A 
ATOM     13  O   UNL     1       8.016  -2.685   0.993  1.00  0.00    -0.454 OA
ATOM     14  O   UNL     1       8.556  -2.654  -1.155  1.00  0.00    -0.454 OA
ATOM     15  C   UNL     1       8.475  -3.541  -0.063  1.00  0.00     0.468 C 
ENDBRANCH   6   7
ENDBRANCH   1   6
TORSDOF 4
ENDMDL
MODEL 5
REMARK VINA RESULT:      -7.5      1.955      2.859
REMARK SMILES O=C(O)CCc1ccc2c(c1)OCO2
REMARK SMILES IDX 4 1 2 2 1 3 3 4 5 6 6 7 7 8 11 9 8 10 10 11 9 12 12 13 14 14
REMARK SMILES IDX 13 15
REMARK H PARENT 3 5
REMARK Flexibility Score: inf
ROOT
ATOM      1  C   UNL     1       6.420   1.277   0.729  1.00  0.00     0.127 C 
ENDROOT
BRANCH   1   2
ATOM      2  C   UNL     1       5.163   1.325   1.458  1.00  0.00     0.303 C 
ATOM      3  O   UNL     1       4.271   2.160   1.296  1.00  0.00    -0.252 OA
BRANCH   2   4
ATOM      4  O   UNL     1       4.944   0.337   2.431  1.00  0.00    -0.481 OA
ATOM      5  H   UNL     1       4.916   0.654   3.388  1.00  0.00     0.296 HD
ENDBRANCH   2   4
ENDBRANCH   1   2
BRANCH   1   6
ATOM      6  C   UNL     1       6.277   0.884  -0.689  1.00  0.00     0.047 C 
BRANCH   6   7
ATOM      7  C   UNL     1       7.011  -0.300  -1.141  1.00  0.00    -0.043 A 
ATOM      8  C   UNL     1       7.272  -0.522  -2.484  1.00  0.00     0.008 A 
ATOM      9  C   UNL     1       7.431  -1.248  -0.246  1.00  0.00     0.054 A 
ATOM     10  C   UNL     1       7.931  -1.653  -2.914  1.00  0.00     0.051 A 
ATOM     11  C   UNL     1       8.094  -2.390  -0.654  1.00  0.00     0.166 A 
ATOM     12  C   UNL     1       8.347  -2.596  -1.988  1.00  0.00     0.165 A 
ATOM     13  O   UNL     1       8.602  -3.462   0.059  1.00  0.00    -0.454 OA
ATOM     14  O   UNL     1       9.019  -3.815  -2.088  1.00  0.00    -0.454 OA
ATOM     15  C   UNL     1       8.910  -4.513  -0.868  1.00  0.00     0.468 C 
ENDBRANCH   6   7
ENDBRANCH   1   6
TORSDOF 4
ENDMDL
