@<TRIPOS>MOLECULE
/home/cewinharhar/GITHUB/reincatalyze/data/processed/docking_pred/2023-May-17-1006_maxeplen10_maxtrainstep1000_seadep16_gamma099_lrac9e-4_lrcr1e-3_sub6/51cadb519a72bd0ce332fe372f57097c9ba117cb_ligand_6.pdbqt
 15 16 0 0 0
SMALL
GASTEIGER

@<TRIPOS>ATOM
      1  C          4.6980    1.8770    0.6770 C.3     1  UNL1        0.1270
      2  C          4.4020    1.1690    1.9120 C.2     1  UNL1        0.3030
      3  O          5.1330    0.3400    2.4560 O.2     1  UNL1       -0.2520
      4  O          3.1790    1.4520    2.5400 O.3     1  UNL1       -0.4810
      5  H          2.5150    0.6940    2.5860 H       1  UNL1        0.2960
      6  C          6.1220    2.2430    0.5220 C.3     1  UNL1        0.0470
      7  C          6.9740    1.3350   -0.2480 C.2     1  UNL1       -0.0430
      8  C          8.3380    1.5530   -0.3750 C.2     1  UNL1        0.0080
      9  C          6.4380    0.2580   -0.9030 C.2     1  UNL1        0.0540
     10  C          9.1340    0.7200   -1.1280 C.2     1  UNL1        0.0510
     11  C          7.2190   -0.5920   -1.6640 C.2     1  UNL1        0.1660
     12  C          8.5690   -0.3640   -1.7790 C.2     1  UNL1        0.1650
     13  O          6.9000   -1.7210   -2.3980 O.2     1  UNL1       -0.4540
     14  O          9.0790   -1.3730   -2.5980 O.2     1  UNL1       -0.4540
     15  C          8.0170   -2.0370   -3.2430 C.3     1  UNL1        0.4680
@<TRIPOS>BOND
     1    15    14    1
     2    15    13    1
     3    14    12    1
     4    13    11    1
     5    12    11    2
     6    12    10    1
     7    11     9    1
     8    10     8    2
     9     9     7    2
    10     8     7    1
    11     7     6    1
    12     6     1    1
    13     1     2    1
    14     2     3    2
    15     2     4    1
    16     4     5    1
