@<TRIPOS>MOLECULE
/home/cewinharhar/GITHUB/reincatalyze/data/processed/docking_pred/2023-May-17-1006_maxeplen10_maxtrainstep1000_seadep16_gamma099_lrac9e-4_lrcr1e-3_sub6/53c3fbcdd7c01d09a3e8b21e27d629f70ce21da9_ligand_6.pdbqt
 15 16 0 0 0
SMALL
GASTEIGER

@<TRIPOS>ATOM
      1  C          6.4500    1.3010    0.7910 C.3     1  UNL1        0.1270
      2  C          5.1710    1.3250    1.4840 C.2     1  UNL1        0.3030
      3  O          4.2750    2.1520    1.3080 O.2     1  UNL1       -0.2520
      4  O          4.9360    0.3210    2.4370 O.3     1  UNL1       -0.4810
      5  H          5.0540   -0.6300    2.1200 H       1  UNL1        0.2960
      6  C          6.3450    0.9870   -0.6500 C.3     1  UNL1        0.0470
      7  C          7.0520   -0.1990   -1.1380 C.2     1  UNL1       -0.0430
      8  C          7.2960   -0.3920   -2.4890 C.2     1  UNL1        0.0080
      9  C          7.4600   -1.1770   -0.2700 C.2     1  UNL1        0.0540
     10  C          7.9290   -1.5250   -2.9520 C.2     1  UNL1        0.0510
     11  C          8.0980   -2.3210   -0.7130 C.2     1  UNL1        0.1660
     12  C          8.3340   -2.4990   -2.0540 C.2     1  UNL1        0.1650
     13  O          8.5900   -3.4200   -0.0310 O.2     1  UNL1       -0.4540
     14  O          8.9810   -3.7280   -2.1900 O.2     1  UNL1       -0.4540
     15  C          8.8690   -4.4540   -0.9880 C.3     1  UNL1        0.4680
@<TRIPOS>BOND
     1    10     8    1
     2    10    12    2
     3     8     7    2
     4    14    12    1
     5    14    15    1
     6    12    11    1
     7     7     6    1
     8     7     9    1
     9    15    13    1
    10    11     9    2
    11    11    13    1
    12     6     1    1
    13     1     2    1
    14     3     2    2
    15     2     4    1
    16     5     4    1
