@<TRIPOS>MOLECULE
/home/cewinharhar/GITHUB/reincatalyze/data/processed/docking_pred/2023-May-17-1006_maxeplen10_maxtrainstep1000_seadep16_gamma099_lrac9e-4_lrcr1e-3_sub6/53c3fbcdd7c01d09a3e8b21e27d629f70ce21da9_ligand_6.pdbqt
 15 16 0 0 0
SMALL
GASTEIGER

@<TRIPOS>ATOM
      1  C          8.3160   -0.3210   -2.8440 C.3     1  UNL1        0.1270
      2  C          8.4710   -1.7490   -3.0680 C.2     1  UNL1        0.3030
      3  O          9.5350   -2.3690   -3.0350 O.2     1  UNL1       -0.2520
      4  O          7.3090   -2.4870   -3.3450 O.3     1  UNL1       -0.4810
      5  H          6.6190   -2.5240   -2.6110 H       1  UNL1        0.2960
      6  C          8.7690    0.1300   -1.5100 C.3     1  UNL1        0.0470
      7  C          7.7950    0.0940   -0.4170 C.2     1  UNL1       -0.0430
      8  C          7.7370   -0.9730    0.4670 C.2     1  UNL1        0.0080
      9  C          6.8830    1.1030   -0.2580 C.2     1  UNL1        0.0540
     10  C          6.7990   -1.0260    1.4730 C.2     1  UNL1        0.0510
     11  C          5.9320    1.0720    0.7450 C.2     1  UNL1        0.1660
     12  C          5.8870    0.0080    1.6140 C.2     1  UNL1        0.1650
     13  O          4.9300    1.9620    1.0890 O.2     1  UNL1       -0.4540
     14  O          4.8390    0.2570    2.5010 O.2     1  UNL1       -0.4540
     15  C          4.0390    1.3040    2.0020 C.3     1  UNL1        0.4680
@<TRIPOS>BOND
     1     4     2    1
     2     4     5    1
     3     2     3    2
     4     2     1    1
     5     1     6    1
     6     6     7    1
     7     7     9    2
     8     7     8    1
     9     9    11    1
    10     8    10    2
    11    11    13    1
    12    11    12    2
    13    13    15    1
    14    10    12    1
    15    12    14    1
    16    15    14    1
