@<TRIPOS>MOLECULE
/home/cewinharhar/GITHUB/reincatalyze/data/processed/docking_pred/2023-May-17-1006_maxeplen10_maxtrainstep1000_seadep16_gamma099_lrac9e-4_lrcr1e-3_sub6/53c3fbcdd7c01d09a3e8b21e27d629f70ce21da9_ligand_6.pdbqt
 15 16 0 0 0
SMALL
GASTEIGER

@<TRIPOS>ATOM
      1  C          5.4070    2.8820    0.1170 C.3     1  UNL1        0.1270
      2  C          6.2400    3.8540    0.8060 C.2     1  UNL1        0.3030
      3  O          6.8650    4.7710    0.2690 O.2     1  UNL1       -0.2520
      4  O          6.3440    3.7410    2.2010 O.3     1  UNL1       -0.4810
      5  H          7.2770    3.6430    2.5720 H       1  UNL1        0.2960
      6  C          5.3330    1.5690    0.7930 C.3     1  UNL1        0.0470
      7  C          6.1100    0.4670    0.2210 C.2     1  UNL1       -0.0430
      8  C          6.5580   -0.5860    1.0030 C.2     1  UNL1        0.0080
      9  C          6.4510    0.4660   -1.1060 C.2     1  UNL1        0.0540
     10  C          7.3190   -1.6040    0.4730 C.2     1  UNL1        0.0510
     11  C          7.2130   -0.5450   -1.6590 C.2     1  UNL1        0.1660
     12  C          7.6500   -1.5830   -0.8720 C.2     1  UNL1        0.1650
     13  O          7.6690   -0.7510   -2.9490 O.2     1  UNL1       -0.4540
     14  O          8.3850   -2.4340   -1.7000 O.2     1  UNL1       -0.4540
     15  C          8.6710   -1.7790   -2.9130 C.3     1  UNL1        0.4680
@<TRIPOS>BOND
     1    13    15    1
     2    13    11    1
     3    15    14    1
     4    14    12    1
     5    11     9    1
     6    11    12    2
     7     9     7    2
     8    12    10    1
     9     1     6    1
    10     1     2    1
    11     7     6    1
    12     7     8    1
    13     3     2    2
    14    10     8    2
    15     2     4    1
    16     4     5    1
