MODEL 1
REMARK VINA RESULT:      -7.7      0.000      0.000
REMARK SMILES O=C(O)CCc1ccc2c(c1)OCO2
REMARK SMILES IDX 4 1 2 2 1 3 3 4 5 6 6 7 7 8 11 9 8 10 10 11 9 12 12 13 14 14
REMARK SMILES IDX 13 15
REMARK H PARENT 3 5
REMARK Flexibility Score: inf
ROOT
ATOM      1  C   UNL     1       5.407   2.882   0.117  1.00  0.00     0.127 C 
ENDROOT
BRANCH   1   2
ATOM      2  C   UNL     1       6.240   3.854   0.806  1.00  0.00     0.303 C 
ATOM      3  O   UNL     1       6.865   4.771   0.269  1.00  0.00    -0.252 OA
BRANCH   2   4
ATOM      4  O   UNL     1       6.344   3.741   2.201  1.00  0.00    -0.481 OA
ATOM      5  H   UNL     1       7.277   3.643   2.572  1.00  0.00     0.296 HD
ENDBRANCH   2   4
ENDBRANCH   1   2
BRANCH   1   6
ATOM      6  C   UNL     1       5.333   1.569   0.793  1.00  0.00     0.047 C 
BRANCH   6   7
ATOM      7  C   UNL     1       6.110   0.467   0.221  1.00  0.00    -0.043 A 
ATOM      8  C   UNL     1       6.558  -0.586   1.003  1.00  0.00     0.008 A 
ATOM      9  C   UNL     1       6.451   0.466  -1.106  1.00  0.00     0.054 A 
ATOM     10  C   UNL     1       7.319  -1.604   0.473  1.00  0.00     0.051 A 
ATOM     11  C   UNL     1       7.213  -0.545  -1.659  1.00  0.00     0.166 A 
ATOM     12  C   UNL     1       7.650  -1.583  -0.872  1.00  0.00     0.165 A 
ATOM     13  O   UNL     1       7.669  -0.751  -2.949  1.00  0.00    -0.454 OA
ATOM     14  O   UNL     1       8.385  -2.434  -1.700  1.00  0.00    -0.454 OA
ATOM     15  C   UNL     1       8.671  -1.779  -2.913  1.00  0.00     0.468 C 
ENDBRANCH   6   7
ENDBRANCH   1   6
TORSDOF 4
ENDMDL
MODEL 2
REMARK VINA RESULT:      -7.6      2.131      2.527
REMARK SMILES O=C(O)CCc1ccc2c(c1)OCO2
REMARK SMILES IDX 4 1 2 2 1 3 3 4 5 6 6 7 7 8 11 9 8 10 10 11 9 12 12 13 14 14
REMARK SMILES IDX 13 15
REMARK H PARENT 3 5
REMARK Flexibility Score: inf
ROOT
ATOM      1  C   UNL     1       4.702   1.847   0.691  1.00  0.00     0.127 C 
ENDROOT
BRANCH   1   2
ATOM      2  C   UNL     1       4.387   1.140   1.923  1.00  0.00     0.303 C 
ATOM      3  O   UNL     1       5.103   0.299   2.470  1.00  0.00    -0.252 OA
BRANCH   2   4
ATOM      4  O   UNL     1       3.163   1.439   2.542  1.00  0.00    -0.481 OA
ATOM      5  H   UNL     1       2.343   1.378   1.959  1.00  0.00     0.296 HD
ENDBRANCH   2   4
ENDBRANCH   1   2
BRANCH   1   6
ATOM      6  C   UNL     1       6.130   2.205   0.554  1.00  0.00     0.047 C 
BRANCH   6   7
ATOM      7  C   UNL     1       6.981   1.306  -0.229  1.00  0.00    -0.043 A 
ATOM      8  C   UNL     1       8.338   1.545  -0.385  1.00  0.00     0.008 A 
ATOM      9  C   UNL     1       6.450   0.216  -0.865  1.00  0.00     0.054 A 
ATOM     10  C   UNL     1       9.132   0.721  -1.151  1.00  0.00     0.051 A 
ATOM     11  C   UNL     1       7.227  -0.626  -1.638  1.00  0.00     0.166 A 
ATOM     12  C   UNL     1       8.571  -0.377  -1.783  1.00  0.00     0.165 A 
ATOM     13  O   UNL     1       6.913  -1.765  -2.358  1.00  0.00    -0.454 OA
ATOM     14  O   UNL     1       9.080  -1.382  -2.607  1.00  0.00    -0.454 OA
ATOM     15  C   UNL     1       8.016  -2.068  -3.225  1.00  0.00     0.468 C 
ENDBRANCH   6   7
ENDBRANCH   1   6
TORSDOF 4
ENDMDL
MODEL 3
REMARK VINA RESULT:      -7.4      1.794      5.287
REMARK SMILES O=C(O)CCc1ccc2c(c1)OCO2
REMARK SMILES IDX 4 1 2 2 1 3 3 4 5 6 6 7 7 8 11 9 8 10 10 11 9 12 12 13 14 14
REMARK SMILES IDX 13 15
REMARK H PARENT 3 5
REMARK Flexibility Score: inf
ROOT
ATOM      1  C   UNL     1       8.316  -0.321  -2.844  1.00  0.00     0.127 C 
ENDROOT
BRANCH   1   2
ATOM      2  C   UNL     1       8.471  -1.749  -3.068  1.00  0.00     0.303 C 
ATOM      3  O   UNL     1       9.535  -2.369  -3.035  1.00  0.00    -0.252 OA
BRANCH   2   4
ATOM      4  O   UNL     1       7.309  -2.487  -3.345  1.00  0.00    -0.481 OA
ATOM      5  H   UNL     1       6.619  -2.524  -2.611  1.00  0.00     0.296 HD
ENDBRANCH   2   4
ENDBRANCH   1   2
BRANCH   1   6
ATOM      6  C   UNL     1       8.769   0.130  -1.510  1.00  0.00     0.047 C 
BRANCH   6   7
ATOM      7  C   UNL     1       7.795   0.094  -0.417  1.00  0.00    -0.043 A 
ATOM      8  C   UNL     1       7.737  -0.973   0.467  1.00  0.00     0.008 A 
ATOM      9  C   UNL     1       6.883   1.103  -0.258  1.00  0.00     0.054 A 
ATOM     10  C   UNL     1       6.799  -1.026   1.473  1.00  0.00     0.051 A 
ATOM     11  C   UNL     1       5.932   1.072   0.745  1.00  0.00     0.166 A 
ATOM     12  C   UNL     1       5.887   0.008   1.614  1.00  0.00     0.165 A 
ATOM     13  O   UNL     1       4.930   1.962   1.089  1.00  0.00    -0.454 OA
ATOM     14  O   UNL     1       4.839   0.257   2.501  1.00  0.00    -0.454 OA
ATOM     15  C   UNL     1       4.039   1.304   2.002  1.00  0.00     0.468 C 
ENDBRANCH   6   7
ENDBRANCH   1   6
TORSDOF 4
ENDMDL
MODEL 4
REMARK VINA RESULT:      -7.4      1.956      2.848
REMARK SMILES O=C(O)CCc1ccc2c(c1)OCO2
REMARK SMILES IDX 4 1 2 2 1 3 3 4 5 6 6 7 7 8 11 9 8 10 10 11 9 12 12 13 14 14
REMARK SMILES IDX 13 15
REMARK H PARENT 3 5
REMARK Flexibility Score: inf
ROOT
ATOM      1  C   UNL     1       6.450   1.301   0.791  1.00  0.00     0.127 C 
ENDROOT
BRANCH   1   2
ATOM      2  C   UNL     1       5.171   1.325   1.484  1.00  0.00     0.303 C 
ATOM      3  O   UNL     1       4.275   2.152   1.308  1.00  0.00    -0.252 OA
BRANCH   2   4
ATOM      4  O   UNL     1       4.936   0.321   2.437  1.00  0.00    -0.481 OA
ATOM      5  H   UNL     1       5.054  -0.630   2.120  1.00  0.00     0.296 HD
ENDBRANCH   2   4
ENDBRANCH   1   2
BRANCH   1   6
ATOM      6  C   UNL     1       6.345   0.987  -0.650  1.00  0.00     0.047 C 
BRANCH   6   7
ATOM      7  C   UNL     1       7.052  -0.199  -1.138  1.00  0.00    -0.043 A 
ATOM      8  C   UNL     1       7.296  -0.392  -2.489  1.00  0.00     0.008 A 
ATOM      9  C   UNL     1       7.460  -1.177  -0.270  1.00  0.00     0.054 A 
ATOM     10  C   UNL     1       7.929  -1.525  -2.952  1.00  0.00     0.051 A 
ATOM     11  C   UNL     1       8.098  -2.321  -0.713  1.00  0.00     0.166 A 
ATOM     12  C   UNL     1       8.334  -2.499  -2.054  1.00  0.00     0.165 A 
ATOM     13  O   UNL     1       8.590  -3.420  -0.031  1.00  0.00    -0.454 OA
ATOM     14  O   UNL     1       8.981  -3.728  -2.190  1.00  0.00    -0.454 OA
ATOM     15  C   UNL     1       8.869  -4.454  -0.988  1.00  0.00     0.468 C 
ENDBRANCH   6   7
ENDBRANCH   1   6
TORSDOF 4
ENDMDL
