@<TRIPOS>MOLECULE
/home/cewinharhar/GITHUB/reincatalyze/data/processed/docking_pred/2023-May-17-1006_maxeplen10_maxtrainstep1000_seadep16_gamma099_lrac9e-4_lrcr1e-3_sub6/53c3fbcdd7c01d09a3e8b21e27d629f70ce21da9_ligand_6.pdbqt
 15 16 0 0 0
SMALL
GASTEIGER

@<TRIPOS>ATOM
      1  C          6.4340    1.2850    0.7830 C.3     1  UNL1        0.1270
      2  C          5.1640    1.3180    1.4920 C.2     1  UNL1        0.3030
      3  O          4.2680    2.1460    1.3190 O.2     1  UNL1       -0.2520
      4  O          4.9380    0.3220    2.4550 O.3     1  UNL1       -0.4810
      5  H          5.6540    0.2110    3.1560 H       1  UNL1        0.2960
      6  C          6.3140    0.9280   -0.6470 C.3     1  UNL1        0.0470
      7  C          7.0330   -0.2600   -1.1110 C.2     1  UNL1       -0.0430
      8  C          7.2900   -0.4720   -2.4570 C.2     1  UNL1        0.0080
      9  C          7.4410   -1.2220   -0.2260 C.2     1  UNL1        0.0540
     10  C          7.9330   -1.6070   -2.8980 C.2     1  UNL1        0.0510
     11  C          8.0890   -2.3680   -0.6460 C.2     1  UNL1        0.1660
     12  C          8.3380   -2.5650   -1.9830 C.2     1  UNL1        0.1650
     13  O          8.5830   -3.4540    0.0560 O.2     1  UNL1       -0.4540
     14  O          8.9940   -3.7910   -2.0940 O.2     1  UNL1       -0.4540
     15  C          8.8770   -4.5000   -0.8820 C.3     1  UNL1        0.4680
@<TRIPOS>BOND
     1    10     8    1
     2    10    12    2
     3     8     7    2
     4    14    12    1
     5    14    15    1
     6    12    11    1
     7     7     6    1
     8     7     9    1
     9    15    13    1
    10     6     1    1
    11    11     9    2
    12    11    13    1
    13     1     2    1
    14     3     2    2
    15     2     4    1
    16     4     5    1
