@<TRIPOS>MOLECULE
/home/cewinharhar/GITHUB/reincatalyze/data/processed/docking_pred/2023-May-17-1006_maxeplen10_maxtrainstep1000_seadep16_gamma099_lrac9e-4_lrcr1e-3_sub6/544f4ddee7da09465e084ab518e20d4fbc72de61_ligand_6.pdbqt
 15 16 0 0 0
SMALL
GASTEIGER

@<TRIPOS>ATOM
      1  C          4.6980    1.8890    0.6770 C.3     1  UNL1        0.1270
      2  C          4.3940    1.1810    1.9100 C.2     1  UNL1        0.3030
      3  O          5.1210    0.3510    2.4580 O.2     1  UNL1       -0.2520
      4  O          3.1670    1.4660    2.5310 O.3     1  UNL1       -0.4810
      5  H          2.9820    2.4370    2.7250 H       1  UNL1        0.2960
      6  C          6.1240    2.2510    0.5280 C.3     1  UNL1        0.0470
      7  C          6.9760    1.3440   -0.2430 C.2     1  UNL1       -0.0430
      8  C          8.3380    1.5650   -0.3740 C.2     1  UNL1        0.0080
      9  C          6.4410    0.2640   -0.8940 C.2     1  UNL1        0.0540
     10  C          9.1350    0.7330   -1.1280 C.2     1  UNL1        0.0510
     11  C          7.2210   -0.5850   -1.6560 C.2     1  UNL1        0.1660
     12  C          8.5700   -0.3540   -1.7760 C.2     1  UNL1        0.1650
     13  O          6.9030   -1.7160   -2.3880 O.2     1  UNL1       -0.4540
     14  O          9.0800   -1.3620   -2.5950 O.2     1  UNL1       -0.4540
     15  C          8.0180   -2.0310   -3.2360 C.3     1  UNL1        0.4680
@<TRIPOS>BOND
     1    15    14    1
     2    15    13    1
     3    14    12    1
     4    13    11    1
     5    12    11    2
     6    12    10    1
     7    11     9    1
     8    10     8    2
     9     9     7    2
    10     8     7    1
    11     7     6    1
    12     6     1    1
    13     1     2    1
    14     2     3    2
    15     2     4    1
    16     4     5    1
