MODEL 1
REMARK VINA RESULT:      -7.6      0.000      0.000
REMARK SMILES O=C(O)CCc1ccc2c(c1)OCO2
REMARK SMILES IDX 4 1 2 2 1 3 3 4 5 6 6 7 7 8 11 9 8 10 10 11 9 12 12 13 14 14
REMARK SMILES IDX 13 15
REMARK H PARENT 3 5
REMARK Flexibility Score: inf
ROOT
ATOM      1  C   UNL     1       5.416   2.863   0.135  1.00  0.00     0.127 C 
ENDROOT
BRANCH   1   2
ATOM      2  C   UNL     1       6.248   3.841   0.817  1.00  0.00     0.303 C 
ATOM      3  O   UNL     1       6.883   4.747   0.273  1.00  0.00    -0.252 OA
BRANCH   2   4
ATOM      4  O   UNL     1       6.338   3.749   2.214  1.00  0.00    -0.481 OA
ATOM      5  H   UNL     1       6.567   2.840   2.586  1.00  0.00     0.296 HD
ENDBRANCH   2   4
ENDBRANCH   1   2
BRANCH   1   6
ATOM      6  C   UNL     1       5.350   1.552   0.816  1.00  0.00     0.047 C 
BRANCH   6   7
ATOM      7  C   UNL     1       6.130   0.452   0.244  1.00  0.00    -0.043 A 
ATOM      8  C   UNL     1       6.589  -0.595   1.029  1.00  0.00     0.008 A 
ATOM      9  C   UNL     1       6.464   0.446  -1.084  1.00  0.00     0.054 A 
ATOM     10  C   UNL     1       7.353  -1.611   0.500  1.00  0.00     0.051 A 
ATOM     11  C   UNL     1       7.228  -0.563  -1.637  1.00  0.00     0.166 A 
ATOM     12  C   UNL     1       7.675  -1.595  -0.847  1.00  0.00     0.165 A 
ATOM     13  O   UNL     1       7.679  -0.773  -2.928  1.00  0.00    -0.454 OA
ATOM     14  O   UNL     1       8.410  -2.446  -1.674  1.00  0.00    -0.454 OA
ATOM     15  C   UNL     1       8.686  -1.795  -2.893  1.00  0.00     0.468 C 
ENDBRANCH   6   7
ENDBRANCH   1   6
TORSDOF 4
ENDMDL
MODEL 2
REMARK VINA RESULT:      -7.6      2.120      2.509
REMARK SMILES O=C(O)CCc1ccc2c(c1)OCO2
REMARK SMILES IDX 4 1 2 2 1 3 3 4 5 6 6 7 7 8 11 9 8 10 10 11 9 12 12 13 14 14
REMARK SMILES IDX 13 15
REMARK H PARENT 3 5
REMARK Flexibility Score: inf
ROOT
ATOM      1  C   UNL     1       4.698   1.889   0.677  1.00  0.00     0.127 C 
ENDROOT
BRANCH   1   2
ATOM      2  C   UNL     1       4.394   1.181   1.910  1.00  0.00     0.303 C 
ATOM      3  O   UNL     1       5.121   0.351   2.458  1.00  0.00    -0.252 OA
BRANCH   2   4
ATOM      4  O   UNL     1       3.167   1.466   2.531  1.00  0.00    -0.481 OA
ATOM      5  H   UNL     1       2.982   2.437   2.725  1.00  0.00     0.296 HD
ENDBRANCH   2   4
ENDBRANCH   1   2
BRANCH   1   6
ATOM      6  C   UNL     1       6.124   2.251   0.528  1.00  0.00     0.047 C 
BRANCH   6   7
ATOM      7  C   UNL     1       6.976   1.344  -0.243  1.00  0.00    -0.043 A 
ATOM      8  C   UNL     1       8.338   1.565  -0.374  1.00  0.00     0.008 A 
ATOM      9  C   UNL     1       6.441   0.264  -0.894  1.00  0.00     0.054 A 
ATOM     10  C   UNL     1       9.135   0.733  -1.128  1.00  0.00     0.051 A 
ATOM     11  C   UNL     1       7.221  -0.585  -1.656  1.00  0.00     0.166 A 
ATOM     12  C   UNL     1       8.570  -0.354  -1.776  1.00  0.00     0.165 A 
ATOM     13  O   UNL     1       6.903  -1.716  -2.388  1.00  0.00    -0.454 OA
ATOM     14  O   UNL     1       9.080  -1.362  -2.595  1.00  0.00    -0.454 OA
ATOM     15  C   UNL     1       8.018  -2.031  -3.236  1.00  0.00     0.468 C 
ENDBRANCH   6   7
ENDBRANCH   1   6
TORSDOF 4
ENDMDL
MODEL 3
REMARK VINA RESULT:      -7.5      1.962      2.881
REMARK SMILES O=C(O)CCc1ccc2c(c1)OCO2
REMARK SMILES IDX 4 1 2 2 1 3 3 4 5 6 6 7 7 8 11 9 8 10 10 11 9 12 12 13 14 14
REMARK SMILES IDX 13 15
REMARK H PARENT 3 5
REMARK Flexibility Score: inf
ROOT
ATOM      1  C   UNL     1       6.408   1.297   0.642  1.00  0.00     0.127 C 
ENDROOT
BRANCH   1   2
ATOM      2  C   UNL     1       5.179   1.339   1.418  1.00  0.00     0.303 C 
ATOM      3  O   UNL     1       4.269   2.158   1.276  1.00  0.00    -0.252 OA
BRANCH   2   4
ATOM      4  O   UNL     1       5.011   0.365   2.414  1.00  0.00    -0.481 OA
ATOM      5  H   UNL     1       4.063   0.183   2.705  1.00  0.00     0.296 HD
ENDBRANCH   2   4
ENDBRANCH   1   2
BRANCH   1   6
ATOM      6  C   UNL     1       6.227   0.815  -0.744  1.00  0.00     0.047 C 
BRANCH   6   7
ATOM      7  C   UNL     1       6.985  -0.369  -1.155  1.00  0.00    -0.043 A 
ATOM      8  C   UNL     1       7.296  -0.605  -2.485  1.00  0.00     0.008 A 
ATOM      9  C   UNL     1       7.379  -1.302  -0.233  1.00  0.00     0.054 A 
ATOM     10  C   UNL     1       7.978  -1.736  -2.876  1.00  0.00     0.051 A 
ATOM     11  C   UNL     1       8.065  -2.444  -0.603  1.00  0.00     0.166 A 
ATOM     12  C   UNL     1       8.367  -2.664  -1.925  1.00  0.00     0.165 A 
ATOM     13  O   UNL     1       8.554  -3.504   0.141  1.00  0.00    -0.454 OA
ATOM     14  O   UNL     1       9.051  -3.880  -1.985  1.00  0.00    -0.454 OA
ATOM     15  C   UNL     1       8.903  -4.564  -0.762  1.00  0.00     0.468 C 
ENDBRANCH   6   7
ENDBRANCH   1   6
TORSDOF 4
ENDMDL
MODEL 4
REMARK VINA RESULT:      -7.4      1.013      2.131
REMARK SMILES O=C(O)CCc1ccc2c(c1)OCO2
REMARK SMILES IDX 4 1 2 2 1 3 3 4 5 6 6 7 7 8 11 9 8 10 10 11 9 12 12 13 14 14
REMARK SMILES IDX 13 15
REMARK H PARENT 3 5
REMARK Flexibility Score: inf
ROOT
ATOM      1  C   UNL     1       5.568   2.536   0.133  1.00  0.00     0.127 C 
ENDROOT
BRANCH   1   2
ATOM      2  C   UNL     1       6.168   3.624   0.889  1.00  0.00     0.303 C 
ATOM      3  O   UNL     1       6.227   3.697   2.118  1.00  0.00    -0.252 OA
BRANCH   2   4
ATOM      4  O   UNL     1       6.729   4.683   0.159  1.00  0.00    -0.481 OA
ATOM      5  H   UNL     1       7.176   4.437  -0.711  1.00  0.00     0.296 HD
ENDBRANCH   2   4
ENDBRANCH   1   2
BRANCH   1   6
ATOM      6  C   UNL     1       5.665   1.219   0.797  1.00  0.00     0.047 C 
BRANCH   6   7
ATOM      7  C   UNL     1       6.434   0.173   0.119  1.00  0.00    -0.043 A 
ATOM      8  C   UNL     1       6.556   0.143  -1.261  1.00  0.00     0.008 A 
ATOM      9  C   UNL     1       7.027  -0.834   0.833  1.00  0.00     0.054 A 
ATOM     10  C   UNL     1       7.249  -0.860  -1.902  1.00  0.00     0.051 A 
ATOM     11  C   UNL     1       7.727  -1.851   0.211  1.00  0.00     0.166 A 
ATOM     12  C   UNL     1       7.841  -1.867  -1.158  1.00  0.00     0.165 A 
ATOM     13  O   UNL     1       8.396  -2.950   0.720  1.00  0.00    -0.454 OA
ATOM     14  O   UNL     1       8.592  -2.997  -1.486  1.00  0.00    -0.454 OA
ATOM     15  C   UNL     1       8.678  -3.846  -0.366  1.00  0.00     0.468 C 
ENDBRANCH   6   7
ENDBRANCH   1   6
TORSDOF 4
ENDMDL
MODEL 5
REMARK VINA RESULT:      -7.4      1.780      5.285
REMARK SMILES O=C(O)CCc1ccc2c(c1)OCO2
REMARK SMILES IDX 4 1 2 2 1 3 3 4 5 6 6 7 7 8 11 9 8 10 10 11 9 12 12 13 14 14
REMARK SMILES IDX 13 15
REMARK H PARENT 3 5
REMARK Flexibility Score: inf
ROOT
ATOM      1  C   UNL     1       8.309  -0.326  -2.875  1.00  0.00     0.127 C 
ENDROOT
BRANCH   1   2
ATOM      2  C   UNL     1       8.473  -1.756  -3.088  1.00  0.00     0.303 C 
ATOM      3  O   UNL     1       9.541  -2.369  -3.051  1.00  0.00    -0.252 OA
BRANCH   2   4
ATOM      4  O   UNL     1       7.316  -2.503  -3.360  1.00  0.00    -0.481 OA
ATOM      5  H   UNL     1       7.172  -3.324  -2.792  1.00  0.00     0.296 HD
ENDBRANCH   2   4
ENDBRANCH   1   2
BRANCH   1   6
ATOM      6  C   UNL     1       8.760   0.137  -1.545  1.00  0.00     0.047 C 
BRANCH   6   7
ATOM      7  C   UNL     1       7.790   0.095  -0.449  1.00  0.00    -0.043 A 
ATOM      8  C   UNL     1       7.727  -0.983   0.421  1.00  0.00     0.008 A 
ATOM      9  C   UNL     1       6.885   1.108  -0.274  1.00  0.00     0.054 A 
ATOM     10  C   UNL     1       6.792  -1.041   1.430  1.00  0.00     0.051 A 
ATOM     11  C   UNL     1       5.939   1.071   0.732  1.00  0.00     0.166 A 
ATOM     12  C   UNL     1       5.889  -0.002   1.587  1.00  0.00     0.165 A 
ATOM     13  O   UNL     1       4.944   1.965   1.091  1.00  0.00    -0.454 OA
ATOM     14  O   UNL     1       4.845   0.243   2.481  1.00  0.00    -0.454 OA
ATOM     15  C   UNL     1       4.051   1.302   1.998  1.00  0.00     0.468 C 
ENDBRANCH   6   7
ENDBRANCH   1   6
TORSDOF 4
ENDMDL
