@<TRIPOS>MOLECULE
/home/cewinharhar/GITHUB/reincatalyze/data/processed/docking_pred/2023-May-17-1006_maxeplen10_maxtrainstep1000_seadep16_gamma099_lrac9e-4_lrcr1e-3_sub6/544f4ddee7da09465e084ab518e20d4fbc72de61_ligand_6.pdbqt
 15 16 0 0 0
SMALL
GASTEIGER

@<TRIPOS>ATOM
      1  C          5.5680    2.5360    0.1330 C.3     1  UNL1        0.1270
      2  C          6.1680    3.6240    0.8890 C.2     1  UNL1        0.3030
      3  O          6.2270    3.6970    2.1180 O.2     1  UNL1       -0.2520
      4  O          6.7290    4.6830    0.1590 O.3     1  UNL1       -0.4810
      5  H          7.1760    4.4370   -0.7110 H       1  UNL1        0.2960
      6  C          5.6650    1.2190    0.7970 C.3     1  UNL1        0.0470
      7  C          6.4340    0.1730    0.1190 C.2     1  UNL1       -0.0430
      8  C          6.5560    0.1430   -1.2610 C.2     1  UNL1        0.0080
      9  C          7.0270   -0.8340    0.8330 C.2     1  UNL1        0.0540
     10  C          7.2490   -0.8600   -1.9020 C.2     1  UNL1        0.0510
     11  C          7.7270   -1.8510    0.2110 C.2     1  UNL1        0.1660
     12  C          7.8410   -1.8670   -1.1580 C.2     1  UNL1        0.1650
     13  O          8.3960   -2.9500    0.7200 O.2     1  UNL1       -0.4540
     14  O          8.5920   -2.9970   -1.4860 O.2     1  UNL1       -0.4540
     15  C          8.6780   -3.8460   -0.3660 C.3     1  UNL1        0.4680
@<TRIPOS>BOND
     1    10     8    1
     2    10    12    2
     3    14    12    1
     4    14    15    1
     5     8     7    2
     6    12    11    1
     7     5     4    1
     8    15    13    1
     9     7     6    1
    10     7     9    1
    11     1     6    1
    12     1     2    1
    13     4     2    1
    14    11    13    1
    15    11     9    2
    16     2     3    2
