@<TRIPOS>MOLECULE
/home/cewinharhar/GITHUB/reincatalyze/data/processed/docking_pred/2023-May-17-1006_maxeplen10_maxtrainstep1000_seadep16_gamma099_lrac9e-4_lrcr1e-3_sub6/544f4ddee7da09465e084ab518e20d4fbc72de61_ligand_6.pdbqt
 15 16 0 0 0
SMALL
GASTEIGER

@<TRIPOS>ATOM
      1  C          5.4160    2.8630    0.1350 C.3     1  UNL1        0.1270
      2  C          6.2480    3.8410    0.8170 C.2     1  UNL1        0.3030
      3  O          6.8830    4.7470    0.2730 O.2     1  UNL1       -0.2520
      4  O          6.3380    3.7490    2.2140 O.3     1  UNL1       -0.4810
      5  H          6.5670    2.8400    2.5860 H       1  UNL1        0.2960
      6  C          5.3500    1.5520    0.8160 C.3     1  UNL1        0.0470
      7  C          6.1300    0.4520    0.2440 C.2     1  UNL1       -0.0430
      8  C          6.5890   -0.5950    1.0290 C.2     1  UNL1        0.0080
      9  C          6.4640    0.4460   -1.0840 C.2     1  UNL1        0.0540
     10  C          7.3530   -1.6110    0.5000 C.2     1  UNL1        0.0510
     11  C          7.2280   -0.5630   -1.6370 C.2     1  UNL1        0.1660
     12  C          7.6750   -1.5950   -0.8470 C.2     1  UNL1        0.1650
     13  O          7.6790   -0.7730   -2.9280 O.2     1  UNL1       -0.4540
     14  O          8.4100   -2.4460   -1.6740 O.2     1  UNL1       -0.4540
     15  C          8.6860   -1.7950   -2.8930 C.3     1  UNL1        0.4680
@<TRIPOS>BOND
     1    13    15    1
     2    13    11    1
     3    15    14    1
     4    14    12    1
     5    11     9    1
     6    11    12    2
     7     9     7    2
     8    12    10    1
     9     1     6    1
    10     1     2    1
    11     7     6    1
    12     7     8    1
    13     3     2    2
    14    10     8    2
    15     2     4    1
    16     4     5    1
