@<TRIPOS>MOLECULE
/home/cewinharhar/GITHUB/reincatalyze/data/processed/docking_pred/2023-May-17-1006_maxeplen10_maxtrainstep1000_seadep16_gamma099_lrac9e-4_lrcr1e-3_sub6/544f4ddee7da09465e084ab518e20d4fbc72de61_ligand_6.pdbqt
 15 16 0 0 0
SMALL
GASTEIGER

@<TRIPOS>ATOM
      1  C          8.3090   -0.3260   -2.8750 C.3     1  UNL1        0.1270
      2  C          8.4730   -1.7560   -3.0880 C.2     1  UNL1        0.3030
      3  O          9.5410   -2.3690   -3.0510 O.2     1  UNL1       -0.2520
      4  O          7.3160   -2.5030   -3.3600 O.3     1  UNL1       -0.4810
      5  H          7.1720   -3.3240   -2.7920 H       1  UNL1        0.2960
      6  C          8.7600    0.1370   -1.5450 C.3     1  UNL1        0.0470
      7  C          7.7900    0.0950   -0.4490 C.2     1  UNL1       -0.0430
      8  C          7.7270   -0.9830    0.4210 C.2     1  UNL1        0.0080
      9  C          6.8850    1.1080   -0.2740 C.2     1  UNL1        0.0540
     10  C          6.7920   -1.0410    1.4300 C.2     1  UNL1        0.0510
     11  C          5.9390    1.0710    0.7320 C.2     1  UNL1        0.1660
     12  C          5.8890   -0.0020    1.5870 C.2     1  UNL1        0.1650
     13  O          4.9440    1.9650    1.0910 O.2     1  UNL1       -0.4540
     14  O          4.8450    0.2430    2.4810 O.2     1  UNL1       -0.4540
     15  C          4.0510    1.3020    1.9980 C.3     1  UNL1        0.4680
@<TRIPOS>BOND
     1     4     2    1
     2     4     5    1
     3     2     3    2
     4     2     1    1
     5     1     6    1
     6     6     7    1
     7     7     9    2
     8     7     8    1
     9     9    11    1
    10     8    10    2
    11    11    13    1
    12    11    12    2
    13    13    15    1
    14    10    12    1
    15    12    14    1
    16    15    14    1
