@<TRIPOS>MOLECULE
/home/cewinharhar/GITHUB/reincatalyze/data/processed/docking_pred/2023-May-17-1006_maxeplen10_maxtrainstep1000_seadep16_gamma099_lrac9e-4_lrcr1e-3_sub6/544f4ddee7da09465e084ab518e20d4fbc72de61_ligand_6.pdbqt
 15 16 0 0 0
SMALL
GASTEIGER

@<TRIPOS>ATOM
      1  C          6.4080    1.2970    0.6420 C.3     1  UNL1        0.1270
      2  C          5.1790    1.3390    1.4180 C.2     1  UNL1        0.3030
      3  O          4.2690    2.1580    1.2760 O.2     1  UNL1       -0.2520
      4  O          5.0110    0.3650    2.4140 O.3     1  UNL1       -0.4810
      5  H          4.0630    0.1830    2.7050 H       1  UNL1        0.2960
      6  C          6.2270    0.8150   -0.7440 C.3     1  UNL1        0.0470
      7  C          6.9850   -0.3690   -1.1550 C.2     1  UNL1       -0.0430
      8  C          7.2960   -0.6050   -2.4850 C.2     1  UNL1        0.0080
      9  C          7.3790   -1.3020   -0.2330 C.2     1  UNL1        0.0540
     10  C          7.9780   -1.7360   -2.8760 C.2     1  UNL1        0.0510
     11  C          8.0650   -2.4440   -0.6030 C.2     1  UNL1        0.1660
     12  C          8.3670   -2.6640   -1.9250 C.2     1  UNL1        0.1650
     13  O          8.5540   -3.5040    0.1410 O.2     1  UNL1       -0.4540
     14  O          9.0510   -3.8800   -1.9850 O.2     1  UNL1       -0.4540
     15  C          8.9030   -4.5640   -0.7620 C.3     1  UNL1        0.4680
@<TRIPOS>BOND
     1    10     8    1
     2    10    12    2
     3     8     7    2
     4    14    12    1
     5    14    15    1
     6    12    11    1
     7     7     6    1
     8     7     9    1
     9    15    13    1
    10     6     1    1
    11    11     9    2
    12    11    13    1
    13     1     2    1
    14     3     2    2
    15     2     4    1
    16     4     5    1
