MODEL 1
REMARK VINA RESULT:      -7.6      0.000      0.000
REMARK SMILES O=C(O)CCc1ccc2c(c1)OCO2
REMARK SMILES IDX 4 1 2 2 1 3 3 4 5 6 6 7 7 8 11 9 8 10 10 11 9 12 12 13 14 14
REMARK SMILES IDX 13 15
REMARK H PARENT 3 5
REMARK Flexibility Score: inf
ROOT
ATOM      1  C   UNL     1       5.422   2.871   0.115  1.00  0.00     0.127 C 
ENDROOT
BRANCH   1   2
ATOM      2  C   UNL     1       6.255   3.858   0.784  1.00  0.00     0.303 C 
ATOM      3  O   UNL     1       6.910   4.740   0.225  1.00  0.00    -0.252 OA
BRANCH   2   4
ATOM      4  O   UNL     1       6.319   3.805   2.185  1.00  0.00    -0.481 OA
ATOM      5  H   UNL     1       6.791   3.006   2.579  1.00  0.00     0.296 HD
ENDBRANCH   2   4
ENDBRANCH   1   2
BRANCH   1   6
ATOM      6  C   UNL     1       5.366   1.566   0.808  1.00  0.00     0.047 C 
BRANCH   6   7
ATOM      7  C   UNL     1       6.139   0.461   0.235  1.00  0.00    -0.043 A 
ATOM      8  C   UNL     1       6.582  -0.595   1.016  1.00  0.00     0.008 A 
ATOM      9  C   UNL     1       6.481   0.460  -1.091  1.00  0.00     0.054 A 
ATOM     10  C   UNL     1       7.340  -1.615   0.486  1.00  0.00     0.051 A 
ATOM     11  C   UNL     1       7.240  -0.554  -1.645  1.00  0.00     0.166 A 
ATOM     12  C   UNL     1       7.671  -1.595  -0.859  1.00  0.00     0.165 A 
ATOM     13  O   UNL     1       7.696  -0.760  -2.935  1.00  0.00    -0.454 OA
ATOM     14  O   UNL     1       8.403  -2.448  -1.687  1.00  0.00    -0.454 OA
ATOM     15  C   UNL     1       8.693  -1.792  -2.900  1.00  0.00     0.468 C 
ENDBRANCH   6   7
ENDBRANCH   1   6
TORSDOF 4
ENDMDL
MODEL 2
REMARK VINA RESULT:      -7.6      2.135      2.529
REMARK SMILES O=C(O)CCc1ccc2c(c1)OCO2
REMARK SMILES IDX 4 1 2 2 1 3 3 4 5 6 6 7 7 8 11 9 8 10 10 11 9 12 12 13 14 14
REMARK SMILES IDX 13 15
REMARK H PARENT 3 5
REMARK Flexibility Score: inf
ROOT
ATOM      1  C   UNL     1       4.712   1.862   0.691  1.00  0.00     0.127 C 
ENDROOT
BRANCH   1   2
ATOM      2  C   UNL     1       4.397   1.157   1.923  1.00  0.00     0.303 C 
ATOM      3  O   UNL     1       5.117   0.323   2.476  1.00  0.00    -0.252 OA
BRANCH   2   4
ATOM      4  O   UNL     1       3.170   1.450   2.538  1.00  0.00    -0.481 OA
ATOM      5  H   UNL     1       3.095   1.215   3.516  1.00  0.00     0.296 HD
ENDBRANCH   2   4
ENDBRANCH   1   2
BRANCH   1   6
ATOM      6  C   UNL     1       6.139   2.222   0.552  1.00  0.00     0.047 C 
BRANCH   6   7
ATOM      7  C   UNL     1       6.992   1.323  -0.227  1.00  0.00    -0.043 A 
ATOM      8  C   UNL     1       8.349   1.561  -0.379  1.00  0.00     0.008 A 
ATOM      9  C   UNL     1       6.462   0.233  -0.865  1.00  0.00     0.054 A 
ATOM     10  C   UNL     1       9.146   0.736  -1.141  1.00  0.00     0.051 A 
ATOM     11  C   UNL     1       7.242  -0.609  -1.635  1.00  0.00     0.166 A 
ATOM     12  C   UNL     1       8.586  -0.361  -1.776  1.00  0.00     0.165 A 
ATOM     13  O   UNL     1       6.929  -1.747  -2.357  1.00  0.00    -0.454 OA
ATOM     14  O   UNL     1       9.098  -1.366  -2.598  1.00  0.00    -0.454 OA
ATOM     15  C   UNL     1       8.036  -2.051  -3.220  1.00  0.00     0.468 C 
ENDBRANCH   6   7
ENDBRANCH   1   6
TORSDOF 4
ENDMDL
MODEL 3
REMARK VINA RESULT:      -7.5      1.825      5.263
REMARK SMILES O=C(O)CCc1ccc2c(c1)OCO2
REMARK SMILES IDX 4 1 2 2 1 3 3 4 5 6 6 7 7 8 11 9 8 10 10 11 9 12 12 13 14 14
REMARK SMILES IDX 13 15
REMARK H PARENT 3 5
REMARK Flexibility Score: inf
ROOT
ATOM      1  C   UNL     1       8.202  -0.218  -2.842  1.00  0.00     0.127 C 
ENDROOT
BRANCH   1   2
ATOM      2  C   UNL     1       8.461  -1.636  -3.037  1.00  0.00     0.303 C 
ATOM      3  O   UNL     1       9.554  -2.190  -2.906  1.00  0.00    -0.252 OA
BRANCH   2   4
ATOM      4  O   UNL     1       7.375  -2.444  -3.407  1.00  0.00    -0.481 OA
ATOM      5  H   UNL     1       6.733  -2.692  -2.670  1.00  0.00     0.296 HD
ENDBRANCH   2   4
ENDBRANCH   1   2
BRANCH   1   6
ATOM      6  C   UNL     1       8.659   0.301  -1.535  1.00  0.00     0.047 C 
BRANCH   6   7
ATOM      7  C   UNL     1       7.715   0.244  -0.416  1.00  0.00    -0.043 A 
ATOM      8  C   UNL     1       7.767  -0.774   0.524  1.00  0.00     0.008 A 
ATOM      9  C   UNL     1       6.723   1.179  -0.289  1.00  0.00     0.054 A 
ATOM     10  C   UNL     1       6.858  -0.849   1.556  1.00  0.00     0.051 A 
ATOM     11  C   UNL     1       5.800   1.124   0.739  1.00  0.00     0.166 A 
ATOM     12  C   UNL     1       5.864   0.110   1.664  1.00  0.00     0.165 A 
ATOM     13  O   UNL     1       4.732   1.943   1.060  1.00  0.00    -0.454 OA
ATOM     14  O   UNL     1       4.817   0.318   2.563  1.00  0.00    -0.454 OA
ATOM     15  C   UNL     1       3.920   1.264   2.029  1.00  0.00     0.468 C 
ENDBRANCH   6   7
ENDBRANCH   1   6
TORSDOF 4
ENDMDL
MODEL 4
REMARK VINA RESULT:      -7.5      1.980      2.886
REMARK SMILES O=C(O)CCc1ccc2c(c1)OCO2
REMARK SMILES IDX 4 1 2 2 1 3 3 4 5 6 6 7 7 8 11 9 8 10 10 11 9 12 12 13 14 14
REMARK SMILES IDX 13 15
REMARK H PARENT 3 5
REMARK Flexibility Score: inf
ROOT
ATOM      1  C   UNL     1       6.415   1.281   0.741  1.00  0.00     0.127 C 
ENDROOT
BRANCH   1   2
ATOM      2  C   UNL     1       5.165   1.294   1.484  1.00  0.00     0.303 C 
ATOM      3  O   UNL     1       4.250   2.107   1.336  1.00  0.00    -0.252 OA
BRANCH   2   4
ATOM      4  O   UNL     1       4.981   0.296   2.455  1.00  0.00    -0.481 OA
ATOM      5  H   UNL     1       5.154   0.567   3.410  1.00  0.00     0.296 HD
ENDBRANCH   2   4
ENDBRANCH   1   2
BRANCH   1   6
ATOM      6  C   UNL     1       6.269   0.875  -0.673  1.00  0.00     0.047 C 
BRANCH   6   7
ATOM      7  C   UNL     1       7.004  -0.311  -1.116  1.00  0.00    -0.043 A 
ATOM      8  C   UNL     1       7.291  -0.528  -2.455  1.00  0.00     0.008 A 
ATOM      9  C   UNL     1       7.399  -1.267  -0.218  1.00  0.00     0.054 A 
ATOM     10  C   UNL     1       7.952  -1.660  -2.877  1.00  0.00     0.051 A 
ATOM     11  C   UNL     1       8.063  -2.411  -0.619  1.00  0.00     0.166 A 
ATOM     12  C   UNL     1       8.342  -2.611  -1.949  1.00  0.00     0.165 A 
ATOM     13  O   UNL     1       8.548  -3.491   0.098  1.00  0.00    -0.454 OA
ATOM     14  O   UNL     1       9.008  -3.835  -2.041  1.00  0.00    -0.454 OA
ATOM     15  C   UNL     1       8.869  -4.539  -0.829  1.00  0.00     0.468 C 
ENDBRANCH   6   7
ENDBRANCH   1   6
TORSDOF 4
ENDMDL
MODEL 5
REMARK VINA RESULT:      -7.4      0.941      2.110
REMARK SMILES O=C(O)CCc1ccc2c(c1)OCO2
REMARK SMILES IDX 4 1 2 2 1 3 3 4 5 6 6 7 7 8 11 9 8 10 10 11 9 12 12 13 14 14
REMARK SMILES IDX 13 15
REMARK H PARENT 3 5
REMARK Flexibility Score: inf
ROOT
ATOM      1  C   UNL     1       5.362   2.853   0.174  1.00  0.00     0.127 C 
ENDROOT
BRANCH   1   2
ATOM      2  C   UNL     1       6.110   3.879   0.883  1.00  0.00     0.303 C 
ATOM      3  O   UNL     1       6.140   4.030   2.105  1.00  0.00    -0.252 OA
BRANCH   2   4
ATOM      4  O   UNL     1       6.865   4.775   0.109  1.00  0.00    -0.481 OA
ATOM      5  H   UNL     1       7.867   4.677   0.166  1.00  0.00     0.296 HD
ENDBRANCH   2   4
ENDBRANCH   1   2
BRANCH   1   6
ATOM      6  C   UNL     1       5.401   1.525   0.824  1.00  0.00     0.047 C 
BRANCH   6   7
ATOM      7  C   UNL     1       6.232   0.491   0.203  1.00  0.00    -0.043 A 
ATOM      8  C   UNL     1       6.505   0.501  -1.156  1.00  0.00     0.008 A 
ATOM      9  C   UNL     1       6.734  -0.543   0.946  1.00  0.00     0.054 A 
ATOM     10  C   UNL     1       7.256  -0.490  -1.748  1.00  0.00     0.051 A 
ATOM     11  C   UNL     1       7.491  -1.549   0.374  1.00  0.00     0.166 A 
ATOM     12  C   UNL     1       7.754  -1.526  -0.974  1.00  0.00     0.165 A 
ATOM     13  O   UNL     1       8.090  -2.671   0.919  1.00  0.00    -0.454 OA
ATOM     14  O   UNL     1       8.527  -2.654  -1.253  1.00  0.00    -0.454 OA
ATOM     15  C   UNL     1       8.483  -3.537  -0.156  1.00  0.00     0.468 C 
ENDBRANCH   6   7
ENDBRANCH   1   6
TORSDOF 4
ENDMDL
