@<TRIPOS>MOLECULE
/home/cewinharhar/GITHUB/reincatalyze/data/processed/docking_pred/2023-May-17-1006_maxeplen10_maxtrainstep1000_seadep16_gamma099_lrac9e-4_lrcr1e-3_sub6/54a2e3ceee1b2a6ac8591f20fd198e2f201bb612_ligand_6.pdbqt
 15 16 0 0 0
SMALL
GASTEIGER

@<TRIPOS>ATOM
      1  C          4.7120    1.8620    0.6910 C.3     1  UNL1        0.1270
      2  C          4.3970    1.1570    1.9230 C.2     1  UNL1        0.3030
      3  O          5.1170    0.3230    2.4760 O.2     1  UNL1       -0.2520
      4  O          3.1700    1.4500    2.5380 O.3     1  UNL1       -0.4810
      5  H          3.0950    1.2150    3.5160 H       1  UNL1        0.2960
      6  C          6.1390    2.2220    0.5520 C.3     1  UNL1        0.0470
      7  C          6.9920    1.3230   -0.2270 C.2     1  UNL1       -0.0430
      8  C          8.3490    1.5610   -0.3790 C.2     1  UNL1        0.0080
      9  C          6.4620    0.2330   -0.8650 C.2     1  UNL1        0.0540
     10  C          9.1460    0.7360   -1.1410 C.2     1  UNL1        0.0510
     11  C          7.2420   -0.6090   -1.6350 C.2     1  UNL1        0.1660
     12  C          8.5860   -0.3610   -1.7760 C.2     1  UNL1        0.1650
     13  O          6.9290   -1.7470   -2.3570 O.2     1  UNL1       -0.4540
     14  O          9.0980   -1.3660   -2.5980 O.2     1  UNL1       -0.4540
     15  C          8.0360   -2.0510   -3.2200 C.3     1  UNL1        0.4680
@<TRIPOS>BOND
     1    15    14    1
     2    15    13    1
     3    14    12    1
     4    13    11    1
     5    12    11    2
     6    12    10    1
     7    11     9    1
     8    10     8    2
     9     9     7    2
    10     8     7    1
    11     7     6    1
    12     6     1    1
    13     1     2    1
    14     2     3    2
    15     2     4    1
    16     4     5    1
