@<TRIPOS>MOLECULE
/home/cewinharhar/GITHUB/reincatalyze/data/processed/docking_pred/2023-May-17-1006_maxeplen10_maxtrainstep1000_seadep16_gamma099_lrac9e-4_lrcr1e-3_sub6/54a2e3ceee1b2a6ac8591f20fd198e2f201bb612_ligand_6.pdbqt
 15 16 0 0 0
SMALL
GASTEIGER

@<TRIPOS>ATOM
      1  C          8.2020   -0.2180   -2.8420 C.3     1  UNL1        0.1270
      2  C          8.4610   -1.6360   -3.0370 C.2     1  UNL1        0.3030
      3  O          9.5540   -2.1900   -2.9060 O.2     1  UNL1       -0.2520
      4  O          7.3750   -2.4440   -3.4070 O.3     1  UNL1       -0.4810
      5  H          6.7330   -2.6920   -2.6700 H       1  UNL1        0.2960
      6  C          8.6590    0.3010   -1.5350 C.3     1  UNL1        0.0470
      7  C          7.7150    0.2440   -0.4160 C.2     1  UNL1       -0.0430
      8  C          7.7670   -0.7740    0.5240 C.2     1  UNL1        0.0080
      9  C          6.7230    1.1790   -0.2890 C.2     1  UNL1        0.0540
     10  C          6.8580   -0.8490    1.5560 C.2     1  UNL1        0.0510
     11  C          5.8000    1.1240    0.7390 C.2     1  UNL1        0.1660
     12  C          5.8640    0.1100    1.6640 C.2     1  UNL1        0.1650
     13  O          4.7320    1.9430    1.0600 O.2     1  UNL1       -0.4540
     14  O          4.8170    0.3180    2.5630 O.2     1  UNL1       -0.4540
     15  C          3.9200    1.2640    2.0290 C.3     1  UNL1        0.4680
@<TRIPOS>BOND
     1     4     2    1
     2     4     5    1
     3     2     3    2
     4     2     1    1
     5     1     6    1
     6     6     7    1
     7     7     9    2
     8     7     8    1
     9     9    11    1
    10     8    10    2
    11    11    13    1
    12    11    12    2
    13    13    15    1
    14    10    12    1
    15    12    14    1
    16    15    14    1
