@<TRIPOS>MOLECULE
/home/cewinharhar/GITHUB/reincatalyze/data/processed/docking_pred/2023-May-17-1006_maxeplen10_maxtrainstep1000_seadep16_gamma099_lrac9e-4_lrcr1e-3_sub6/54a2e3ceee1b2a6ac8591f20fd198e2f201bb612_ligand_6.pdbqt
 15 16 0 0 0
SMALL
GASTEIGER

@<TRIPOS>ATOM
      1  C          5.3620    2.8530    0.1740 C.3     1  UNL1        0.1270
      2  C          6.1100    3.8790    0.8830 C.2     1  UNL1        0.3030
      3  O          6.1400    4.0300    2.1050 O.2     1  UNL1       -0.2520
      4  O          6.8650    4.7750    0.1090 O.3     1  UNL1       -0.4810
      5  H          7.8670    4.6770    0.1660 H       1  UNL1        0.2960
      6  C          5.4010    1.5250    0.8240 C.3     1  UNL1        0.0470
      7  C          6.2320    0.4910    0.2030 C.2     1  UNL1       -0.0430
      8  C          6.5050    0.5010   -1.1560 C.2     1  UNL1        0.0080
      9  C          6.7340   -0.5430    0.9460 C.2     1  UNL1        0.0540
     10  C          7.2560   -0.4900   -1.7480 C.2     1  UNL1        0.0510
     11  C          7.4910   -1.5490    0.3740 C.2     1  UNL1        0.1660
     12  C          7.7540   -1.5260   -0.9740 C.2     1  UNL1        0.1650
     13  O          8.0900   -2.6710    0.9190 O.2     1  UNL1       -0.4540
     14  O          8.5270   -2.6540   -1.2530 O.2     1  UNL1       -0.4540
     15  C          8.4830   -3.5370   -0.1560 C.3     1  UNL1        0.4680
@<TRIPOS>BOND
     1    10     8    1
     2    10    12    2
     3    14    12    1
     4    14    15    1
     5     8     7    2
     6    12    11    1
     7    15    13    1
     8     4     5    1
     9     4     2    1
    10     1     6    1
    11     1     2    1
    12     7     6    1
    13     7     9    1
    14    11    13    1
    15    11     9    2
    16     2     3    2
