@<TRIPOS>MOLECULE
/home/cewinharhar/GITHUB/reincatalyze/data/processed/docking_pred/2023-May-17-1006_maxeplen10_maxtrainstep1000_seadep16_gamma099_lrac9e-4_lrcr1e-3_sub6/54c3cf531f582f2d935f1daccafc2f163e83168d_ligand_6.pdbqt
 15 16 0 0 0
SMALL
GASTEIGER

@<TRIPOS>ATOM
      1  C          8.7310   -0.6080   -2.8100 C.3     1  UNL1        0.1270
      2  C          8.6710   -2.0320   -3.1040 C.2     1  UNL1        0.3030
      3  O          7.6450   -2.7120   -3.1510 O.2     1  UNL1       -0.2520
      4  O          9.8860   -2.6890   -3.3570 O.3     1  UNL1       -0.4810
      5  H         10.1780   -3.3650   -2.6690 H       1  UNL1        0.2960
      6  C          7.4060    0.0330   -2.6750 C.3     1  UNL1        0.0470
      7  C          6.8230    0.1080   -1.3340 C.2     1  UNL1       -0.0430
      8  C          6.0150    1.1690   -0.9530 C.2     1  UNL1        0.0080
      9  C          7.0920   -0.8550   -0.3980 C.2     1  UNL1        0.0540
     10  C          5.4960    1.2590    0.3190 C.2     1  UNL1        0.0510
     11  C          6.5810   -0.7860    0.8840 C.2     1  UNL1        0.1660
     12  C          5.7820    0.2710    1.2470 C.2     1  UNL1        0.1650
     13  O          6.7170   -1.6280    1.9740 O.2     1  UNL1       -0.4540
     14  O          5.4260    0.0670    2.5810 O.2     1  UNL1       -0.4540
     15  C          6.2450   -0.9340    3.1390 C.3     1  UNL1        0.4680
@<TRIPOS>BOND
     1     4     2    1
     2     4     5    1
     3     3     2    2
     4     2     1    1
     5     1     6    1
     6     6     7    1
     7     7     8    2
     8     7     9    1
     9     8    10    1
    10     9    11    2
    11    10    12    2
    12    11    12    1
    13    11    13    1
    14    12    14    1
    15    13    15    1
    16    14    15    1
