@<TRIPOS>MOLECULE
/home/cewinharhar/GITHUB/reincatalyze/data/processed/docking_pred/2023-May-17-1006_maxeplen10_maxtrainstep1000_seadep16_gamma099_lrac9e-4_lrcr1e-3_sub6/54c3cf531f582f2d935f1daccafc2f163e83168d_ligand_6.pdbqt
 15 16 0 0 0
SMALL
GASTEIGER

@<TRIPOS>ATOM
      1  C          5.9020    2.7430   -0.3780 C.3     1  UNL1        0.1270
      2  C          6.4960    3.6220    0.6180 C.2     1  UNL1        0.3030
      3  O          6.9960    4.7250    0.3920 O.2     1  UNL1       -0.2520
      4  O          6.5010    3.1770    1.9490 O.3     1  UNL1       -0.4810
      5  H          5.6530    2.7420    2.2760 H       1  UNL1        0.2960
      6  C          5.5120    1.4170    0.1490 C.3     1  UNL1        0.0470
      7  C          6.3200    0.2640   -0.2540 C.2     1  UNL1       -0.0430
      8  C          6.6840   -0.7180    0.6540 C.2     1  UNL1        0.0080
      9  C          6.7760    0.1430   -1.5400 C.2     1  UNL1        0.0540
     10  C          7.4750   -1.7840    0.2860 C.2     1  UNL1        0.0510
     11  C          7.5700   -0.9180   -1.9330 C.2     1  UNL1        0.1660
     12  C          7.9210   -1.8850   -1.0220 C.2     1  UNL1        0.1650
     13  O          8.1340   -1.2400   -3.1540 O.2     1  UNL1       -0.4540
     14  O          8.7140   -2.8100   -1.7030 O.2     1  UNL1       -0.4540
     15  C          9.1140   -2.2670   -2.9400 C.3     1  UNL1        0.4680
@<TRIPOS>BOND
     1    13    15    1
     2    13    11    1
     3    15    14    1
     4    11     9    1
     5    11    12    2
     6    14    12    1
     7     9     7    2
     8    12    10    1
     9     1     6    1
    10     1     2    1
    11     7     6    1
    12     7     8    1
    13    10     8    2
    14     3     2    2
    15     2     4    1
    16     4     5    1
