@<TRIPOS>MOLECULE
/home/cewinharhar/GITHUB/reincatalyze/data/processed/docking_pred/2023-May-17-1006_maxeplen10_maxtrainstep1000_seadep16_gamma099_lrac9e-4_lrcr1e-3_sub6/54c3cf531f582f2d935f1daccafc2f163e83168d_ligand_6.pdbqt
 15 16 0 0 0
SMALL
GASTEIGER

@<TRIPOS>ATOM
      1  C          5.4100    1.0150    0.5540 C.3     1  UNL1        0.1270
      2  C          5.0880    0.5580    1.8960 C.2     1  UNL1        0.3030
      3  O          5.7930   -0.1760    2.5920 O.2     1  UNL1       -0.2520
      4  O          3.8720    0.9870    2.4500 O.3     1  UNL1       -0.4810
      5  H          3.6350    1.9570    2.3060 H       1  UNL1        0.2960
      6  C          6.8510    0.9550    0.2280 C.3     1  UNL1        0.0470
      7  C          7.3310   -0.2170   -0.5070 C.2     1  UNL1       -0.0430
      8  C          7.2250   -0.3010   -1.8860 C.2     1  UNL1        0.0080
      9  C          7.8670   -1.2880    0.1570 C.2     1  UNL1        0.0540
     10  C          7.6430   -1.4180   -2.5750 C.2     1  UNL1        0.0510
     11  C          8.2940   -2.4190   -0.5130 C.2     1  UNL1        0.1660
     12  C          8.1830   -2.4880   -1.8810 C.2     1  UNL1        0.1650
     13  O          8.8570   -3.5990   -0.0580 O.2     1  UNL1       -0.4540
     14  O          8.6880   -3.7320   -2.2630 O.2     1  UNL1       -0.4540
     15  C          8.8200   -4.5560   -1.1280 C.3     1  UNL1        0.4680
@<TRIPOS>BOND
     1    10     8    1
     2    10    12    2
     3    14    12    1
     4    14    15    1
     5     8     7    2
     6    12    11    1
     7    15    13    1
     8    11    13    1
     9    11     9    2
    10     7     9    1
    11     7     6    1
    12     6     1    1
    13     1     2    1
    14     2     4    1
    15     2     3    2
    16     5     4    1
