@<TRIPOS>MOLECULE
/home/cewinharhar/GITHUB/reincatalyze/data/processed/docking_pred/2023-May-17-1006_maxeplen10_maxtrainstep1000_seadep16_gamma099_lrac9e-4_lrcr1e-3_sub6/54c3cf531f582f2d935f1daccafc2f163e83168d_ligand_6.pdbqt
 15 16 0 0 0
SMALL
GASTEIGER

@<TRIPOS>ATOM
      1  C          8.3960   -0.3210   -3.2080 C.3     1  UNL1        0.1270
      2  C          8.5120   -1.7710   -3.1970 C.2     1  UNL1        0.3030
      3  O          9.5590   -2.4060   -3.0580 O.2     1  UNL1       -0.2520
      4  O          7.3310   -2.5120   -3.3590 O.3     1  UNL1       -0.4810
      5  H          6.5280   -2.0030   -3.6960 H       1  UNL1        0.2960
      6  C          8.9270    0.3330   -1.9920 C.3     1  UNL1        0.0470
      7  C          8.1750    0.1590   -0.7470 C.2     1  UNL1       -0.0430
      8  C          8.6150   -0.6970    0.2510 C.2     1  UNL1        0.0080
      9  C          6.9880    0.8120   -0.5490 C.2     1  UNL1        0.0540
     10  C          7.8910   -0.8890    1.4070 C.2     1  UNL1        0.0510
     11  C          6.2450    0.6350    0.6030 C.2     1  UNL1        0.1660
     12  C          6.6940   -0.2150    1.5840 C.2     1  UNL1        0.1650
     13  O          5.0410    1.1800    1.0120 O.2     1  UNL1       -0.4540
     14  O          5.7450   -0.1860    2.6070 O.2     1  UNL1       -0.4540
     15  C          4.5660    0.4270    2.1390 C.3     1  UNL1        0.4680
@<TRIPOS>BOND
     1     5     4    1
     2     4     2    1
     3     1     2    1
     4     1     6    1
     5     2     3    2
     6     6     7    1
     7     7     9    2
     8     7     8    1
     9     9    11    1
    10     8    10    2
    11    11    13    1
    12    11    12    2
    13    13    15    1
    14    10    12    1
    15    12    14    1
    16    15    14    1
