MODEL 1
REMARK VINA RESULT:      -7.3      0.000      0.000
REMARK SMILES O=C(O)CCc1ccc2c(c1)OCO2
REMARK SMILES IDX 4 1 2 2 1 3 3 4 5 6 6 7 7 8 11 9 8 10 10 11 9 12 12 13 14 14
REMARK SMILES IDX 13 15
REMARK H PARENT 3 5
REMARK Flexibility Score: inf
ROOT
ATOM      1  C   UNL     1       5.410   1.015   0.554  1.00  0.00     0.127 C 
ENDROOT
BRANCH   1   2
ATOM      2  C   UNL     1       5.088   0.558   1.896  1.00  0.00     0.303 C 
ATOM      3  O   UNL     1       5.793  -0.176   2.592  1.00  0.00    -0.252 OA
BRANCH   2   4
ATOM      4  O   UNL     1       3.872   0.987   2.450  1.00  0.00    -0.481 OA
ATOM      5  H   UNL     1       3.635   1.957   2.306  1.00  0.00     0.296 HD
ENDBRANCH   2   4
ENDBRANCH   1   2
BRANCH   1   6
ATOM      6  C   UNL     1       6.851   0.955   0.228  1.00  0.00     0.047 C 
BRANCH   6   7
ATOM      7  C   UNL     1       7.331  -0.217  -0.507  1.00  0.00    -0.043 A 
ATOM      8  C   UNL     1       7.225  -0.301  -1.886  1.00  0.00     0.008 A 
ATOM      9  C   UNL     1       7.867  -1.288   0.157  1.00  0.00     0.054 A 
ATOM     10  C   UNL     1       7.643  -1.418  -2.575  1.00  0.00     0.051 A 
ATOM     11  C   UNL     1       8.294  -2.419  -0.513  1.00  0.00     0.166 A 
ATOM     12  C   UNL     1       8.183  -2.488  -1.881  1.00  0.00     0.165 A 
ATOM     13  O   UNL     1       8.857  -3.599  -0.058  1.00  0.00    -0.454 OA
ATOM     14  O   UNL     1       8.688  -3.732  -2.263  1.00  0.00    -0.454 OA
ATOM     15  C   UNL     1       8.820  -4.556  -1.128  1.00  0.00     0.468 C 
ENDBRANCH   6   7
ENDBRANCH   1   6
TORSDOF 4
ENDMDL
MODEL 2
REMARK VINA RESULT:      -7.1      1.752      5.260
REMARK SMILES O=C(O)CCc1ccc2c(c1)OCO2
REMARK SMILES IDX 4 1 2 2 1 3 3 4 5 6 6 7 7 8 11 9 8 10 10 11 9 12 12 13 14 14
REMARK SMILES IDX 13 15
REMARK H PARENT 3 5
REMARK Flexibility Score: inf
ROOT
ATOM      1  C   UNL     1       8.396  -0.321  -3.208  1.00  0.00     0.127 C 
ENDROOT
BRANCH   1   2
ATOM      2  C   UNL     1       8.512  -1.771  -3.197  1.00  0.00     0.303 C 
ATOM      3  O   UNL     1       9.559  -2.406  -3.058  1.00  0.00    -0.252 OA
BRANCH   2   4
ATOM      4  O   UNL     1       7.331  -2.512  -3.359  1.00  0.00    -0.481 OA
ATOM      5  H   UNL     1       6.528  -2.003  -3.696  1.00  0.00     0.296 HD
ENDBRANCH   2   4
ENDBRANCH   1   2
BRANCH   1   6
ATOM      6  C   UNL     1       8.927   0.333  -1.992  1.00  0.00     0.047 C 
BRANCH   6   7
ATOM      7  C   UNL     1       8.175   0.159  -0.747  1.00  0.00    -0.043 A 
ATOM      8  C   UNL     1       8.615  -0.697   0.251  1.00  0.00     0.008 A 
ATOM      9  C   UNL     1       6.988   0.812  -0.549  1.00  0.00     0.054 A 
ATOM     10  C   UNL     1       7.891  -0.889   1.407  1.00  0.00     0.051 A 
ATOM     11  C   UNL     1       6.245   0.635   0.603  1.00  0.00     0.166 A 
ATOM     12  C   UNL     1       6.694  -0.215   1.584  1.00  0.00     0.165 A 
ATOM     13  O   UNL     1       5.041   1.180   1.012  1.00  0.00    -0.454 OA
ATOM     14  O   UNL     1       5.745  -0.186   2.607  1.00  0.00    -0.454 OA
ATOM     15  C   UNL     1       4.566   0.427   2.139  1.00  0.00     0.468 C 
ENDBRANCH   6   7
ENDBRANCH   1   6
TORSDOF 4
ENDMDL
MODEL 3
REMARK VINA RESULT:      -6.8      1.718      5.085
REMARK SMILES O=C(O)CCc1ccc2c(c1)OCO2
REMARK SMILES IDX 4 1 2 2 1 3 3 4 5 6 6 7 7 8 11 9 8 10 10 11 9 12 12 13 14 14
REMARK SMILES IDX 13 15
REMARK H PARENT 3 5
REMARK Flexibility Score: inf
ROOT
ATOM      1  C   UNL     1       8.731  -0.608  -2.810  1.00  0.00     0.127 C 
ENDROOT
BRANCH   1   2
ATOM      2  C   UNL     1       8.671  -2.032  -3.104  1.00  0.00     0.303 C 
ATOM      3  O   UNL     1       7.645  -2.712  -3.151  1.00  0.00    -0.252 OA
BRANCH   2   4
ATOM      4  O   UNL     1       9.886  -2.689  -3.357  1.00  0.00    -0.481 OA
ATOM      5  H   UNL     1      10.178  -3.365  -2.669  1.00  0.00     0.296 HD
ENDBRANCH   2   4
ENDBRANCH   1   2
BRANCH   1   6
ATOM      6  C   UNL     1       7.406   0.033  -2.675  1.00  0.00     0.047 C 
BRANCH   6   7
ATOM      7  C   UNL     1       6.823   0.108  -1.334  1.00  0.00    -0.043 A 
ATOM      8  C   UNL     1       6.015   1.169  -0.953  1.00  0.00     0.008 A 
ATOM      9  C   UNL     1       7.092  -0.855  -0.398  1.00  0.00     0.054 A 
ATOM     10  C   UNL     1       5.496   1.259   0.319  1.00  0.00     0.051 A 
ATOM     11  C   UNL     1       6.581  -0.786   0.884  1.00  0.00     0.166 A 
ATOM     12  C   UNL     1       5.782   0.271   1.247  1.00  0.00     0.165 A 
ATOM     13  O   UNL     1       6.717  -1.628   1.974  1.00  0.00    -0.454 OA
ATOM     14  O   UNL     1       5.426   0.067   2.581  1.00  0.00    -0.454 OA
ATOM     15  C   UNL     1       6.245  -0.934   3.139  1.00  0.00     0.468 C 
ENDBRANCH   6   7
ENDBRANCH   1   6
TORSDOF 4
ENDMDL
MODEL 4
REMARK VINA RESULT:      -6.6      2.193      2.872
REMARK SMILES O=C(O)CCc1ccc2c(c1)OCO2
REMARK SMILES IDX 4 1 2 2 1 3 3 4 5 6 6 7 7 8 11 9 8 10 10 11 9 12 12 13 14 14
REMARK SMILES IDX 13 15
REMARK H PARENT 3 5
REMARK Flexibility Score: inf
ROOT
ATOM      1  C   UNL     1       5.902   2.743  -0.378  1.00  0.00     0.127 C 
ENDROOT
BRANCH   1   2
ATOM      2  C   UNL     1       6.496   3.622   0.618  1.00  0.00     0.303 C 
ATOM      3  O   UNL     1       6.996   4.725   0.392  1.00  0.00    -0.252 OA
BRANCH   2   4
ATOM      4  O   UNL     1       6.501   3.177   1.949  1.00  0.00    -0.481 OA
ATOM      5  H   UNL     1       5.653   2.742   2.276  1.00  0.00     0.296 HD
ENDBRANCH   2   4
ENDBRANCH   1   2
BRANCH   1   6
ATOM      6  C   UNL     1       5.512   1.417   0.149  1.00  0.00     0.047 C 
BRANCH   6   7
ATOM      7  C   UNL     1       6.320   0.264  -0.254  1.00  0.00    -0.043 A 
ATOM      8  C   UNL     1       6.684  -0.718   0.654  1.00  0.00     0.008 A 
ATOM      9  C   UNL     1       6.776   0.143  -1.540  1.00  0.00     0.054 A 
ATOM     10  C   UNL     1       7.475  -1.784   0.286  1.00  0.00     0.051 A 
ATOM     11  C   UNL     1       7.570  -0.918  -1.933  1.00  0.00     0.166 A 
ATOM     12  C   UNL     1       7.921  -1.885  -1.022  1.00  0.00     0.165 A 
ATOM     13  O   UNL     1       8.134  -1.240  -3.154  1.00  0.00    -0.454 OA
ATOM     14  O   UNL     1       8.714  -2.810  -1.703  1.00  0.00    -0.454 OA
ATOM     15  C   UNL     1       9.114  -2.267  -2.940  1.00  0.00     0.468 C 
ENDBRANCH   6   7
ENDBRANCH   1   6
TORSDOF 4
ENDMDL
