@<TRIPOS>MOLECULE
/home/cewinharhar/GITHUB/reincatalyze/data/processed/docking_pred/2023-May-17-1006_maxeplen10_maxtrainstep1000_seadep16_gamma099_lrac9e-4_lrcr1e-3_sub6/551c5941f3bf749be32b1159c48b101be233bdbe_ligand_6.pdbqt
 15 16 0 0 0
SMALL
GASTEIGER

@<TRIPOS>ATOM
      1  C          4.6880    1.8210    0.6860 C.3     1  UNL1        0.1270
      2  C          4.3900    1.1320    1.9320 C.2     1  UNL1        0.3030
      3  O          5.1170    0.3070    2.4870 O.2     1  UNL1       -0.2520
      4  O          3.1680    1.4310    2.5560 O.3     1  UNL1       -0.4810
      5  H          2.4450    0.7330    2.4760 H       1  UNL1        0.2960
      6  C          6.1090    2.2020    0.5370 C.3     1  UNL1        0.0470
      7  C          6.9730    1.3070   -0.2370 C.2     1  UNL1       -0.0430
      8  C          8.3310    1.5480   -0.3710 C.2     1  UNL1        0.0080
      9  C          6.4510    0.2200   -0.8870 C.2     1  UNL1        0.0540
     10  C          9.1380    0.7270   -1.1280 C.2     1  UNL1        0.0510
     11  C          7.2410   -0.6170   -1.6520 C.2     1  UNL1        0.1660
     12  C          8.5860   -0.3670   -1.7750 C.2     1  UNL1        0.1650
     13  O          6.9370   -1.7520   -2.3830 O.2     1  UNL1       -0.4540
     14  O          9.1090   -1.3680   -2.5960 O.2     1  UNL1       -0.4540
     15  C          8.0550   -2.0500   -3.2340 C.3     1  UNL1        0.4680
@<TRIPOS>BOND
     1    15    14    1
     2    15    13    1
     3    14    12    1
     4    13    11    1
     5    12    11    2
     6    12    10    1
     7    11     9    1
     8    10     8    2
     9     9     7    2
    10     8     7    1
    11     7     6    1
    12     6     1    1
    13     1     2    1
    14     2     3    2
    15     2     4    1
    16     5     4    1
