@<TRIPOS>MOLECULE
/home/cewinharhar/GITHUB/reincatalyze/data/processed/docking_pred/2023-May-17-1006_maxeplen10_maxtrainstep1000_seadep16_gamma099_lrac9e-4_lrcr1e-3_sub6/551c5941f3bf749be32b1159c48b101be233bdbe_ligand_6.pdbqt
 15 16 0 0 0
SMALL
GASTEIGER

@<TRIPOS>ATOM
      1  C          5.4150    2.8790    0.1000 C.3     1  UNL1        0.1270
      2  C          6.2320    3.8780    0.7710 C.2     1  UNL1        0.3030
      3  O          6.9130    4.7400    0.2130 O.2     1  UNL1       -0.2520
      4  O          6.2480    3.8600    2.1750 O.3     1  UNL1       -0.4810
      5  H          6.7940    4.5800    2.6230 H       1  UNL1        0.2960
      6  C          5.3630    1.5770    0.7990 C.3     1  UNL1        0.0470
      7  C          6.1290    0.4690    0.2250 C.2     1  UNL1       -0.0430
      8  C          6.5500   -0.6000    1.0000 C.2     1  UNL1        0.0080
      9  C          6.4870    0.4770   -1.0970 C.2     1  UNL1        0.0540
     10  C          7.3000   -1.6250    0.4690 C.2     1  UNL1        0.0510
     11  C          7.2390   -0.5410   -1.6520 C.2     1  UNL1        0.1660
     12  C          7.6480   -1.5950   -0.8720 C.2     1  UNL1        0.1650
     13  O          7.7080   -0.7400   -2.9390 O.2     1  UNL1       -0.4540
     14  O          8.3790   -2.4490   -1.6990 O.2     1  UNL1       -0.4540
     15  C          8.6920   -1.7860   -2.9020 C.3     1  UNL1        0.4680
@<TRIPOS>BOND
     1    13    15    1
     2    13    11    1
     3    15    14    1
     4    14    12    1
     5    11     9    1
     6    11    12    2
     7     9     7    2
     8    12    10    1
     9     1     2    1
    10     1     6    1
    11     3     2    2
    12     7     6    1
    13     7     8    1
    14    10     8    2
    15     2     4    1
    16     4     5    1
