MODEL 1
REMARK VINA RESULT:      -7.6      0.000      0.000
REMARK SMILES O=C(O)CCc1ccc2c(c1)OCO2
REMARK SMILES IDX 4 1 2 2 1 3 3 4 5 6 6 7 7 8 11 9 8 10 10 11 9 12 12 13 14 14
REMARK SMILES IDX 13 15
REMARK H PARENT 3 5
REMARK Flexibility Score: inf
ROOT
ATOM      1  C   UNL     1       5.415   2.879   0.100  1.00  0.00     0.127 C 
ENDROOT
BRANCH   1   2
ATOM      2  C   UNL     1       6.232   3.878   0.771  1.00  0.00     0.303 C 
ATOM      3  O   UNL     1       6.913   4.740   0.213  1.00  0.00    -0.252 OA
BRANCH   2   4
ATOM      4  O   UNL     1       6.248   3.860   2.175  1.00  0.00    -0.481 OA
ATOM      5  H   UNL     1       6.794   4.580   2.623  1.00  0.00     0.296 HD
ENDBRANCH   2   4
ENDBRANCH   1   2
BRANCH   1   6
ATOM      6  C   UNL     1       5.363   1.577   0.799  1.00  0.00     0.047 C 
BRANCH   6   7
ATOM      7  C   UNL     1       6.129   0.469   0.225  1.00  0.00    -0.043 A 
ATOM      8  C   UNL     1       6.550  -0.600   1.000  1.00  0.00     0.008 A 
ATOM      9  C   UNL     1       6.487   0.477  -1.097  1.00  0.00     0.054 A 
ATOM     10  C   UNL     1       7.300  -1.625   0.469  1.00  0.00     0.051 A 
ATOM     11  C   UNL     1       7.239  -0.541  -1.652  1.00  0.00     0.166 A 
ATOM     12  C   UNL     1       7.648  -1.595  -0.872  1.00  0.00     0.165 A 
ATOM     13  O   UNL     1       7.708  -0.740  -2.939  1.00  0.00    -0.454 OA
ATOM     14  O   UNL     1       8.379  -2.449  -1.699  1.00  0.00    -0.454 OA
ATOM     15  C   UNL     1       8.692  -1.786  -2.902  1.00  0.00     0.468 C 
ENDBRANCH   6   7
ENDBRANCH   1   6
TORSDOF 4
ENDMDL
MODEL 2
REMARK VINA RESULT:      -7.6      2.148      2.535
REMARK SMILES O=C(O)CCc1ccc2c(c1)OCO2
REMARK SMILES IDX 4 1 2 2 1 3 3 4 5 6 6 7 7 8 11 9 8 10 10 11 9 12 12 13 14 14
REMARK SMILES IDX 13 15
REMARK H PARENT 3 5
REMARK Flexibility Score: inf
ROOT
ATOM      1  C   UNL     1       4.688   1.821   0.686  1.00  0.00     0.127 C 
ENDROOT
BRANCH   1   2
ATOM      2  C   UNL     1       4.390   1.132   1.932  1.00  0.00     0.303 C 
ATOM      3  O   UNL     1       5.117   0.307   2.487  1.00  0.00    -0.252 OA
BRANCH   2   4
ATOM      4  O   UNL     1       3.168   1.431   2.556  1.00  0.00    -0.481 OA
ATOM      5  H   UNL     1       2.445   0.733   2.476  1.00  0.00     0.296 HD
ENDBRANCH   2   4
ENDBRANCH   1   2
BRANCH   1   6
ATOM      6  C   UNL     1       6.109   2.202   0.537  1.00  0.00     0.047 C 
BRANCH   6   7
ATOM      7  C   UNL     1       6.973   1.307  -0.237  1.00  0.00    -0.043 A 
ATOM      8  C   UNL     1       8.331   1.548  -0.371  1.00  0.00     0.008 A 
ATOM      9  C   UNL     1       6.451   0.220  -0.887  1.00  0.00     0.054 A 
ATOM     10  C   UNL     1       9.138   0.727  -1.128  1.00  0.00     0.051 A 
ATOM     11  C   UNL     1       7.241  -0.617  -1.652  1.00  0.00     0.166 A 
ATOM     12  C   UNL     1       8.586  -0.367  -1.775  1.00  0.00     0.165 A 
ATOM     13  O   UNL     1       6.937  -1.752  -2.383  1.00  0.00    -0.454 OA
ATOM     14  O   UNL     1       9.109  -1.368  -2.596  1.00  0.00    -0.454 OA
ATOM     15  C   UNL     1       8.055  -2.050  -3.234  1.00  0.00     0.468 C 
ENDBRANCH   6   7
ENDBRANCH   1   6
TORSDOF 4
ENDMDL
MODEL 3
REMARK VINA RESULT:      -7.5      1.965      2.876
REMARK SMILES O=C(O)CCc1ccc2c(c1)OCO2
REMARK SMILES IDX 4 1 2 2 1 3 3 4 5 6 6 7 7 8 11 9 8 10 10 11 9 12 12 13 14 14
REMARK SMILES IDX 13 15
REMARK H PARENT 3 5
REMARK Flexibility Score: inf
ROOT
ATOM      1  C   UNL     1       6.387   1.345   0.628  1.00  0.00     0.127 C 
ENDROOT
BRANCH   1   2
ATOM      2  C   UNL     1       5.193   1.315   1.458  1.00  0.00     0.303 C 
ATOM      3  O   UNL     1       4.248   2.102   1.383  1.00  0.00    -0.252 OA
BRANCH   2   4
ATOM      4  O   UNL     1       5.109   0.305   2.429  1.00  0.00    -0.481 OA
ATOM      5  H   UNL     1       4.218  -0.161   2.511  1.00  0.00     0.296 HD
ENDBRANCH   2   4
ENDBRANCH   1   2
BRANCH   1   6
ATOM      6  C   UNL     1       6.172   0.857  -0.751  1.00  0.00     0.047 C 
BRANCH   6   7
ATOM      7  C   UNL     1       6.948  -0.306  -1.186  1.00  0.00    -0.043 A 
ATOM      8  C   UNL     1       7.269  -0.506  -2.520  1.00  0.00     0.008 A 
ATOM      9  C   UNL     1       7.349  -1.258  -0.286  1.00  0.00     0.054 A 
ATOM     10  C   UNL     1       7.968  -1.617  -2.935  1.00  0.00     0.051 A 
ATOM     11  C   UNL     1       8.051  -2.381  -0.680  1.00  0.00     0.166 A 
ATOM     12  C   UNL     1       8.363  -2.565  -2.005  1.00  0.00     0.165 A 
ATOM     13  O   UNL     1       8.549  -3.453   0.041  1.00  0.00    -0.454 OA
ATOM     14  O   UNL     1       9.063  -3.769  -2.091  1.00  0.00    -0.454 OA
ATOM     15  C   UNL     1       8.917  -4.485  -0.887  1.00  0.00     0.468 C 
ENDBRANCH   6   7
ENDBRANCH   1   6
TORSDOF 4
ENDMDL
MODEL 4
REMARK VINA RESULT:      -7.5      1.811      5.286
REMARK SMILES O=C(O)CCc1ccc2c(c1)OCO2
REMARK SMILES IDX 4 1 2 2 1 3 3 4 5 6 6 7 7 8 11 9 8 10 10 11 9 12 12 13 14 14
REMARK SMILES IDX 13 15
REMARK H PARENT 3 5
REMARK Flexibility Score: inf
ROOT
ATOM      1  C   UNL     1       8.306  -0.318  -2.848  1.00  0.00     0.127 C 
ENDROOT
BRANCH   1   2
ATOM      2  C   UNL     1       8.469  -1.747  -3.065  1.00  0.00     0.303 C 
ATOM      3  O   UNL     1       9.537  -2.361  -3.026  1.00  0.00    -0.252 OA
BRANCH   2   4
ATOM      4  O   UNL     1       7.313  -2.493  -3.344  1.00  0.00    -0.481 OA
ATOM      5  H   UNL     1       7.271  -2.924  -4.255  1.00  0.00     0.296 HD
ENDBRANCH   2   4
ENDBRANCH   1   2
BRANCH   1   6
ATOM      6  C   UNL     1       8.764   0.144  -1.520  1.00  0.00     0.047 C 
BRANCH   6   7
ATOM      7  C   UNL     1       7.799   0.106  -0.419  1.00  0.00    -0.043 A 
ATOM      8  C   UNL     1       7.766  -0.948   0.480  1.00  0.00     0.008 A 
ATOM      9  C   UNL     1       6.869   1.100  -0.269  1.00  0.00     0.054 A 
ATOM     10  C   UNL     1       6.836  -1.003   1.494  1.00  0.00     0.051 A 
ATOM     11  C   UNL     1       5.926   1.067   0.741  1.00  0.00     0.166 A 
ATOM     12  C   UNL     1       5.907   0.016   1.626  1.00  0.00     0.165 A 
ATOM     13  O   UNL     1       4.910   1.944   1.078  1.00  0.00    -0.454 OA
ATOM     14  O   UNL     1       4.860   0.259   2.516  1.00  0.00    -0.454 OA
ATOM     15  C   UNL     1       4.037   1.284   2.007  1.00  0.00     0.468 C 
ENDBRANCH   6   7
ENDBRANCH   1   6
TORSDOF 4
ENDMDL
MODEL 5
REMARK VINA RESULT:      -7.4      0.980      2.114
REMARK SMILES O=C(O)CCc1ccc2c(c1)OCO2
REMARK SMILES IDX 4 1 2 2 1 3 3 4 5 6 6 7 7 8 11 9 8 10 10 11 9 12 12 13 14 14
REMARK SMILES IDX 13 15
REMARK H PARENT 3 5
REMARK Flexibility Score: inf
ROOT
ATOM      1  C   UNL     1       5.496   2.620   0.158  1.00  0.00     0.127 C 
ENDROOT
BRANCH   1   2
ATOM      2  C   UNL     1       6.146   3.686   0.905  1.00  0.00     0.303 C 
ATOM      3  O   UNL     1       6.200   3.771   2.134  1.00  0.00    -0.252 OA
BRANCH   2   4
ATOM      4  O   UNL     1       6.765   4.706   0.166  1.00  0.00    -0.481 OA
ATOM      5  H   UNL     1       6.743   4.605  -0.837  1.00  0.00     0.296 HD
ENDBRANCH   2   4
ENDBRANCH   1   2
BRANCH   1   6
ATOM      6  C   UNL     1       5.578   1.295   0.809  1.00  0.00     0.047 C 
BRANCH   6   7
ATOM      7  C   UNL     1       6.362   0.257   0.136  1.00  0.00    -0.043 A 
ATOM      8  C   UNL     1       6.498   0.233  -1.244  1.00  0.00     0.008 A 
ATOM      9  C   UNL     1       6.955  -0.748   0.853  1.00  0.00     0.054 A 
ATOM     10  C   UNL     1       7.205  -0.763  -1.881  1.00  0.00     0.051 A 
ATOM     11  C   UNL     1       7.669  -1.757   0.235  1.00  0.00     0.166 A 
ATOM     12  C   UNL     1       7.797  -1.768  -1.133  1.00  0.00     0.165 A 
ATOM     13  O   UNL     1       8.341  -2.854   0.747  1.00  0.00    -0.454 OA
ATOM     14  O   UNL     1       8.559  -2.891  -1.458  1.00  0.00    -0.454 OA
ATOM     15  C   UNL     1       8.641  -3.744  -0.339  1.00  0.00     0.468 C 
ENDBRANCH   6   7
ENDBRANCH   1   6
TORSDOF 4
ENDMDL
