@<TRIPOS>MOLECULE
/home/cewinharhar/GITHUB/reincatalyze/data/processed/docking_pred/2023-May-17-1006_maxeplen10_maxtrainstep1000_seadep16_gamma099_lrac9e-4_lrcr1e-3_sub6/551c5941f3bf749be32b1159c48b101be233bdbe_ligand_6.pdbqt
 15 16 0 0 0
SMALL
GASTEIGER

@<TRIPOS>ATOM
      1  C          6.3870    1.3450    0.6280 C.3     1  UNL1        0.1270
      2  C          5.1930    1.3150    1.4580 C.2     1  UNL1        0.3030
      3  O          4.2480    2.1020    1.3830 O.2     1  UNL1       -0.2520
      4  O          5.1090    0.3050    2.4290 O.3     1  UNL1       -0.4810
      5  H          4.2180   -0.1610    2.5110 H       1  UNL1        0.2960
      6  C          6.1720    0.8570   -0.7510 C.3     1  UNL1        0.0470
      7  C          6.9480   -0.3060   -1.1860 C.2     1  UNL1       -0.0430
      8  C          7.2690   -0.5060   -2.5200 C.2     1  UNL1        0.0080
      9  C          7.3490   -1.2580   -0.2860 C.2     1  UNL1        0.0540
     10  C          7.9680   -1.6170   -2.9350 C.2     1  UNL1        0.0510
     11  C          8.0510   -2.3810   -0.6800 C.2     1  UNL1        0.1660
     12  C          8.3630   -2.5650   -2.0050 C.2     1  UNL1        0.1650
     13  O          8.5490   -3.4530    0.0410 O.2     1  UNL1       -0.4540
     14  O          9.0630   -3.7690   -2.0910 O.2     1  UNL1       -0.4540
     15  C          8.9170   -4.4850   -0.8870 C.3     1  UNL1        0.4680
@<TRIPOS>BOND
     1    10     8    1
     2    10    12    2
     3     8     7    2
     4    14    12    1
     5    14    15    1
     6    12    11    1
     7     7     6    1
     8     7     9    1
     9    15    13    1
    10     6     1    1
    11    11     9    2
    12    11    13    1
    13     1     2    1
    14     3     2    2
    15     2     4    1
    16     4     5    1
