@<TRIPOS>MOLECULE
/home/cewinharhar/GITHUB/reincatalyze/data/processed/docking_pred/2023-May-17-1006_maxeplen10_maxtrainstep1000_seadep16_gamma099_lrac9e-4_lrcr1e-3_sub6/551c5941f3bf749be32b1159c48b101be233bdbe_ligand_6.pdbqt
 15 16 0 0 0
SMALL
GASTEIGER

@<TRIPOS>ATOM
      1  C          5.4960    2.6200    0.1580 C.3     1  UNL1        0.1270
      2  C          6.1460    3.6860    0.9050 C.2     1  UNL1        0.3030
      3  O          6.2000    3.7710    2.1340 O.2     1  UNL1       -0.2520
      4  O          6.7650    4.7060    0.1660 O.3     1  UNL1       -0.4810
      5  H          6.7430    4.6050   -0.8370 H       1  UNL1        0.2960
      6  C          5.5780    1.2950    0.8090 C.3     1  UNL1        0.0470
      7  C          6.3620    0.2570    0.1360 C.2     1  UNL1       -0.0430
      8  C          6.4980    0.2330   -1.2440 C.2     1  UNL1        0.0080
      9  C          6.9550   -0.7480    0.8530 C.2     1  UNL1        0.0540
     10  C          7.2050   -0.7630   -1.8810 C.2     1  UNL1        0.0510
     11  C          7.6690   -1.7570    0.2350 C.2     1  UNL1        0.1660
     12  C          7.7970   -1.7680   -1.1330 C.2     1  UNL1        0.1650
     13  O          8.3410   -2.8540    0.7470 O.2     1  UNL1       -0.4540
     14  O          8.5590   -2.8910   -1.4580 O.2     1  UNL1       -0.4540
     15  C          8.6410   -3.7440   -0.3390 C.3     1  UNL1        0.4680
@<TRIPOS>BOND
     1    10     8    1
     2    10    12    2
     3    14    12    1
     4    14    15    1
     5     8     7    2
     6    12    11    1
     7     5     4    1
     8    15    13    1
     9     7     6    1
    10     7     9    1
    11     1     6    1
    12     1     2    1
    13     4     2    1
    14    11    13    1
    15    11     9    2
    16     2     3    2
