@<TRIPOS>MOLECULE
/home/cewinharhar/GITHUB/reincatalyze/data/processed/docking_pred/2023-May-17-1006_maxeplen10_maxtrainstep1000_seadep16_gamma099_lrac9e-4_lrcr1e-3_sub6/551e6d8a024554ec32308953f7464105b503c37a_ligand_6.pdbqt
 15 16 0 0 0
SMALL
GASTEIGER

@<TRIPOS>ATOM
      1  C          8.3060   -0.3310   -2.8460 C.3     1  UNL1        0.1270
      2  C          8.4740   -1.7580   -3.0710 C.2     1  UNL1        0.3030
      3  O          9.5440   -2.3670   -3.0400 O.2     1  UNL1       -0.2520
      4  O          7.3200   -2.5070   -3.3480 O.3     1  UNL1       -0.4810
      5  H          7.1060   -2.6520   -4.3220 H       1  UNL1        0.2960
      6  C          8.7580    0.1240   -1.5140 C.3     1  UNL1        0.0470
      7  C          7.7870    0.0810   -0.4180 C.2     1  UNL1       -0.0430
      8  C          7.7370   -0.9870    0.4650 C.2     1  UNL1        0.0080
      9  C          6.8690    1.0850   -0.2560 C.2     1  UNL1        0.0540
     10  C          6.8020   -1.0460    1.4730 C.2     1  UNL1        0.0510
     11  C          5.9220    1.0470    0.7490 C.2     1  UNL1        0.1660
     12  C          5.8850   -0.0170    1.6170 C.2     1  UNL1        0.1650
     13  O          4.9150    1.9310    1.0960 O.2     1  UNL1       -0.4540
     14  O          4.8370    0.2250    2.5070 O.2     1  UNL1       -0.4540
     15  C          4.0300    1.2670    2.0110 C.3     1  UNL1        0.4680
@<TRIPOS>BOND
     1     5     4    1
     2     4     2    1
     3     2     3    2
     4     2     1    1
     5     1     6    1
     6     6     7    1
     7     7     9    2
     8     7     8    1
     9     9    11    1
    10     8    10    2
    11    11    13    1
    12    11    12    2
    13    13    15    1
    14    10    12    1
    15    12    14    1
    16    15    14    1
