MODEL 1
REMARK VINA RESULT:      -7.7      0.000      0.000
REMARK SMILES O=C(O)CCc1ccc2c(c1)OCO2
REMARK SMILES IDX 4 1 2 2 1 3 3 4 5 6 6 7 7 8 11 9 8 10 10 11 9 12 12 13 14 14
REMARK SMILES IDX 13 15
REMARK H PARENT 3 5
REMARK Flexibility Score: inf
ROOT
ATOM      1  C   UNL     1       5.409   2.867   0.126  1.00  0.00     0.127 C 
ENDROOT
BRANCH   1   2
ATOM      2  C   UNL     1       6.236   3.845   0.816  1.00  0.00     0.303 C 
ATOM      3  O   UNL     1       6.859   4.763   0.280  1.00  0.00    -0.252 OA
BRANCH   2   4
ATOM      4  O   UNL     1       6.335   3.735   2.212  1.00  0.00    -0.481 OA
ATOM      5  H   UNL     1       7.237   3.467   2.575  1.00  0.00     0.296 HD
ENDBRANCH   2   4
ENDBRANCH   1   2
BRANCH   1   6
ATOM      6  C   UNL     1       5.333   1.557   0.809  1.00  0.00     0.047 C 
BRANCH   6   7
ATOM      7  C   UNL     1       6.115   0.454   0.247  1.00  0.00    -0.043 A 
ATOM      8  C   UNL     1       6.591  -0.576   1.043  1.00  0.00     0.008 A 
ATOM      9  C   UNL     1       6.432   0.428  -1.085  1.00  0.00     0.054 A 
ATOM     10  C   UNL     1       7.357  -1.595   0.522  1.00  0.00     0.051 A 
ATOM     11  C   UNL     1       7.199  -0.584  -1.630  1.00  0.00     0.166 A 
ATOM     12  C   UNL     1       7.663  -1.599  -0.829  1.00  0.00     0.165 A 
ATOM     13  O   UNL     1       7.635  -0.812  -2.924  1.00  0.00    -0.454 OA
ATOM     14  O   UNL     1       8.395  -2.458  -1.650  1.00  0.00    -0.454 OA
ATOM     15  C   UNL     1       8.651  -1.826  -2.883  1.00  0.00     0.468 C 
ENDBRANCH   6   7
ENDBRANCH   1   6
TORSDOF 4
ENDMDL
MODEL 2
REMARK VINA RESULT:      -7.7      2.129      2.511
REMARK SMILES O=C(O)CCc1ccc2c(c1)OCO2
REMARK SMILES IDX 4 1 2 2 1 3 3 4 5 6 6 7 7 8 11 9 8 10 10 11 9 12 12 13 14 14
REMARK SMILES IDX 13 15
REMARK H PARENT 3 5
REMARK Flexibility Score: inf
ROOT
ATOM      1  C   UNL     1       4.703   1.877   0.683  1.00  0.00     0.127 C 
ENDROOT
BRANCH   1   2
ATOM      2  C   UNL     1       4.381   1.167   1.911  1.00  0.00     0.303 C 
ATOM      3  O   UNL     1       5.090   0.319   2.456  1.00  0.00    -0.252 OA
BRANCH   2   4
ATOM      4  O   UNL     1       3.159   1.472   2.530  1.00  0.00    -0.481 OA
ATOM      5  H   UNL     1       3.187   2.181   3.246  1.00  0.00     0.296 HD
ENDBRANCH   2   4
ENDBRANCH   1   2
BRANCH   1   6
ATOM      6  C   UNL     1       6.133   2.228   0.550  1.00  0.00     0.047 C 
BRANCH   6   7
ATOM      7  C   UNL     1       6.983   1.323  -0.227  1.00  0.00    -0.043 A 
ATOM      8  C   UNL     1       8.345   1.546  -0.362  1.00  0.00     0.008 A 
ATOM      9  C   UNL     1       6.446   0.245  -0.878  1.00  0.00     0.054 A 
ATOM     10  C   UNL     1       9.139   0.716  -1.122  1.00  0.00     0.051 A 
ATOM     11  C   UNL     1       7.223  -0.601  -1.646  1.00  0.00     0.166 A 
ATOM     12  C   UNL     1       8.572  -0.369  -1.770  1.00  0.00     0.165 A 
ATOM     13  O   UNL     1       6.903  -1.730  -2.380  1.00  0.00    -0.454 OA
ATOM     14  O   UNL     1       9.079  -1.375  -2.594  1.00  0.00    -0.454 OA
ATOM     15  C   UNL     1       8.015  -2.042  -3.232  1.00  0.00     0.468 C 
ENDBRANCH   6   7
ENDBRANCH   1   6
TORSDOF 4
ENDMDL
MODEL 3
REMARK VINA RESULT:      -7.5      1.981      2.965
REMARK SMILES O=C(O)CCc1ccc2c(c1)OCO2
REMARK SMILES IDX 4 1 2 2 1 3 3 4 5 6 6 7 7 8 11 9 8 10 10 11 9 12 12 13 14 14
REMARK SMILES IDX 13 15
REMARK H PARENT 3 5
REMARK Flexibility Score: inf
ROOT
ATOM      1  C   UNL     1       6.453   1.297   0.752  1.00  0.00     0.127 C 
ENDROOT
BRANCH   1   2
ATOM      2  C   UNL     1       5.271   1.152   1.586  1.00  0.00     0.303 C 
ATOM      3  O   UNL     1       5.104   0.288   2.450  1.00  0.00    -0.252 OA
BRANCH   2   4
ATOM      4  O   UNL     1       4.229   2.072   1.393  1.00  0.00    -0.481 OA
ATOM      5  H   UNL     1       4.238   2.886   1.988  1.00  0.00     0.296 HD
ENDBRANCH   2   4
ENDBRANCH   1   2
BRANCH   1   6
ATOM      6  C   UNL     1       6.257   0.863  -0.648  1.00  0.00     0.047 C 
BRANCH   6   7
ATOM      7  C   UNL     1       6.997  -0.316  -1.102  1.00  0.00    -0.043 A 
ATOM      8  C   UNL     1       7.269  -0.529  -2.444  1.00  0.00     0.008 A 
ATOM      9  C   UNL     1       7.410  -1.270  -0.209  1.00  0.00     0.054 A 
ATOM     10  C   UNL     1       7.933  -1.656  -2.876  1.00  0.00     0.051 A 
ATOM     11  C   UNL     1       8.078  -2.408  -0.619  1.00  0.00     0.166 A 
ATOM     12  C   UNL     1       8.342  -2.605  -1.953  1.00  0.00     0.165 A 
ATOM     13  O   UNL     1       8.581  -3.484   0.091  1.00  0.00    -0.454 OA
ATOM     14  O   UNL     1       9.017  -3.823  -2.054  1.00  0.00    -0.454 OA
ATOM     15  C   UNL     1       8.898  -4.529  -0.841  1.00  0.00     0.468 C 
ENDBRANCH   6   7
ENDBRANCH   1   6
TORSDOF 4
ENDMDL
MODEL 4
REMARK VINA RESULT:      -7.5      1.797      5.283
REMARK SMILES O=C(O)CCc1ccc2c(c1)OCO2
REMARK SMILES IDX 4 1 2 2 1 3 3 4 5 6 6 7 7 8 11 9 8 10 10 11 9 12 12 13 14 14
REMARK SMILES IDX 13 15
REMARK H PARENT 3 5
REMARK Flexibility Score: inf
ROOT
ATOM      1  C   UNL     1       8.306  -0.331  -2.846  1.00  0.00     0.127 C 
ENDROOT
BRANCH   1   2
ATOM      2  C   UNL     1       8.474  -1.758  -3.071  1.00  0.00     0.303 C 
ATOM      3  O   UNL     1       9.544  -2.367  -3.040  1.00  0.00    -0.252 OA
BRANCH   2   4
ATOM      4  O   UNL     1       7.320  -2.507  -3.348  1.00  0.00    -0.481 OA
ATOM      5  H   UNL     1       7.106  -2.652  -4.322  1.00  0.00     0.296 HD
ENDBRANCH   2   4
ENDBRANCH   1   2
BRANCH   1   6
ATOM      6  C   UNL     1       8.758   0.124  -1.514  1.00  0.00     0.047 C 
BRANCH   6   7
ATOM      7  C   UNL     1       7.787   0.081  -0.418  1.00  0.00    -0.043 A 
ATOM      8  C   UNL     1       7.737  -0.987   0.465  1.00  0.00     0.008 A 
ATOM      9  C   UNL     1       6.869   1.085  -0.256  1.00  0.00     0.054 A 
ATOM     10  C   UNL     1       6.802  -1.046   1.473  1.00  0.00     0.051 A 
ATOM     11  C   UNL     1       5.922   1.047   0.749  1.00  0.00     0.166 A 
ATOM     12  C   UNL     1       5.885  -0.017   1.617  1.00  0.00     0.165 A 
ATOM     13  O   UNL     1       4.915   1.931   1.096  1.00  0.00    -0.454 OA
ATOM     14  O   UNL     1       4.837   0.225   2.507  1.00  0.00    -0.454 OA
ATOM     15  C   UNL     1       4.030   1.267   2.011  1.00  0.00     0.468 C 
ENDBRANCH   6   7
ENDBRANCH   1   6
TORSDOF 4
ENDMDL
MODEL 5
REMARK VINA RESULT:      -7.5      0.941      2.106
REMARK SMILES O=C(O)CCc1ccc2c(c1)OCO2
REMARK SMILES IDX 4 1 2 2 1 3 3 4 5 6 6 7 7 8 11 9 8 10 10 11 9 12 12 13 14 14
REMARK SMILES IDX 13 15
REMARK H PARENT 3 5
REMARK Flexibility Score: inf
ROOT
ATOM      1  C   UNL     1       5.408   2.819   0.044  1.00  0.00     0.127 C 
ENDROOT
BRANCH   1   2
ATOM      2  C   UNL     1       6.119   3.819   0.826  1.00  0.00     0.303 C 
ATOM      3  O   UNL     1       6.121   3.898   2.056  1.00  0.00    -0.252 OA
BRANCH   2   4
ATOM      4  O   UNL     1       6.867   4.775   0.123  1.00  0.00    -0.481 OA
ATOM      5  H   UNL     1       6.398   5.232  -0.644  1.00  0.00     0.296 HD
ENDBRANCH   2   4
ENDBRANCH   1   2
BRANCH   1   6
ATOM      6  C   UNL     1       5.374   1.480   0.670  1.00  0.00     0.047 C 
BRANCH   6   7
ATOM      7  C   UNL     1       6.216   0.437   0.082  1.00  0.00    -0.043 A 
ATOM      8  C   UNL     1       6.513   0.422  -1.272  1.00  0.00     0.008 A 
ATOM      9  C   UNL     1       6.707  -0.584   0.852  1.00  0.00     0.054 A 
ATOM     10  C   UNL     1       7.275  -0.579  -1.833  1.00  0.00     0.051 A 
ATOM     11  C   UNL     1       7.474  -1.598   0.312  1.00  0.00     0.166 A 
ATOM     12  C   UNL     1       7.761  -1.600  -1.032  1.00  0.00     0.165 A 
ATOM     13  O   UNL     1       8.065  -2.710   0.887  1.00  0.00    -0.454 OA
ATOM     14  O   UNL     1       8.540  -2.731  -1.277  1.00  0.00    -0.454 OA
ATOM     15  C   UNL     1       8.477  -3.595  -0.165  1.00  0.00     0.468 C 
ENDBRANCH   6   7
ENDBRANCH   1   6
TORSDOF 4
ENDMDL
