@<TRIPOS>MOLECULE
/home/cewinharhar/GITHUB/reincatalyze/data/processed/docking_pred/2023-May-17-1006_maxeplen10_maxtrainstep1000_seadep16_gamma099_lrac9e-4_lrcr1e-3_sub6/551e6d8a024554ec32308953f7464105b503c37a_ligand_6.pdbqt
 15 16 0 0 0
SMALL
GASTEIGER

@<TRIPOS>ATOM
      1  C          5.4090    2.8670    0.1260 C.3     1  UNL1        0.1270
      2  C          6.2360    3.8450    0.8160 C.2     1  UNL1        0.3030
      3  O          6.8590    4.7630    0.2800 O.2     1  UNL1       -0.2520
      4  O          6.3350    3.7350    2.2120 O.3     1  UNL1       -0.4810
      5  H          7.2370    3.4670    2.5750 H       1  UNL1        0.2960
      6  C          5.3330    1.5570    0.8090 C.3     1  UNL1        0.0470
      7  C          6.1150    0.4540    0.2470 C.2     1  UNL1       -0.0430
      8  C          6.5910   -0.5760    1.0430 C.2     1  UNL1        0.0080
      9  C          6.4320    0.4280   -1.0850 C.2     1  UNL1        0.0540
     10  C          7.3570   -1.5950    0.5220 C.2     1  UNL1        0.0510
     11  C          7.1990   -0.5840   -1.6300 C.2     1  UNL1        0.1660
     12  C          7.6630   -1.5990   -0.8290 C.2     1  UNL1        0.1650
     13  O          7.6350   -0.8120   -2.9240 O.2     1  UNL1       -0.4540
     14  O          8.3950   -2.4580   -1.6500 O.2     1  UNL1       -0.4540
     15  C          8.6510   -1.8260   -2.8830 C.3     1  UNL1        0.4680
@<TRIPOS>BOND
     1    13    15    1
     2    13    11    1
     3    15    14    1
     4    14    12    1
     5    11     9    1
     6    11    12    2
     7     9     7    2
     8    12    10    1
     9     1     6    1
    10     1     2    1
    11     7     6    1
    12     7     8    1
    13     3     2    2
    14    10     8    2
    15     2     4    1
    16     4     5    1
