@<TRIPOS>MOLECULE
/home/cewinharhar/GITHUB/reincatalyze/data/processed/docking_pred/2023-May-17-1006_maxeplen10_maxtrainstep1000_seadep16_gamma099_lrac9e-4_lrcr1e-3_sub6/551e6d8a024554ec32308953f7464105b503c37a_ligand_6.pdbqt
 15 16 0 0 0
SMALL
GASTEIGER

@<TRIPOS>ATOM
      1  C          5.4080    2.8190    0.0440 C.3     1  UNL1        0.1270
      2  C          6.1190    3.8190    0.8260 C.2     1  UNL1        0.3030
      3  O          6.1210    3.8980    2.0560 O.2     1  UNL1       -0.2520
      4  O          6.8670    4.7750    0.1230 O.3     1  UNL1       -0.4810
      5  H          6.3980    5.2320   -0.6440 H       1  UNL1        0.2960
      6  C          5.3740    1.4800    0.6700 C.3     1  UNL1        0.0470
      7  C          6.2160    0.4370    0.0820 C.2     1  UNL1       -0.0430
      8  C          6.5130    0.4220   -1.2720 C.2     1  UNL1        0.0080
      9  C          6.7070   -0.5840    0.8520 C.2     1  UNL1        0.0540
     10  C          7.2750   -0.5790   -1.8330 C.2     1  UNL1        0.0510
     11  C          7.4740   -1.5980    0.3120 C.2     1  UNL1        0.1660
     12  C          7.7610   -1.6000   -1.0320 C.2     1  UNL1        0.1650
     13  O          8.0650   -2.7100    0.8870 O.2     1  UNL1       -0.4540
     14  O          8.5400   -2.7310   -1.2770 O.2     1  UNL1       -0.4540
     15  C          8.4770   -3.5950   -0.1650 C.3     1  UNL1        0.4680
@<TRIPOS>BOND
     1    10     8    1
     2    10    12    2
     3    14    12    1
     4    14    15    1
     5     8     7    2
     6    12    11    1
     7     5     4    1
     8    15    13    1
     9     1     6    1
    10     1     2    1
    11     7     6    1
    12     7     9    1
    13     4     2    1
    14    11     9    2
    15    11    13    1
    16     2     3    2
