@<TRIPOS>MOLECULE
/home/cewinharhar/GITHUB/reincatalyze/data/processed/docking_pred/2023-May-17-1006_maxeplen10_maxtrainstep1000_seadep16_gamma099_lrac9e-4_lrcr1e-3_sub6/551e6d8a024554ec32308953f7464105b503c37a_ligand_6.pdbqt
 15 16 0 0 0
SMALL
GASTEIGER

@<TRIPOS>ATOM
      1  C          4.7030    1.8770    0.6830 C.3     1  UNL1        0.1270
      2  C          4.3810    1.1670    1.9110 C.2     1  UNL1        0.3030
      3  O          5.0900    0.3190    2.4560 O.2     1  UNL1       -0.2520
      4  O          3.1590    1.4720    2.5300 O.3     1  UNL1       -0.4810
      5  H          3.1870    2.1810    3.2460 H       1  UNL1        0.2960
      6  C          6.1330    2.2280    0.5500 C.3     1  UNL1        0.0470
      7  C          6.9830    1.3230   -0.2270 C.2     1  UNL1       -0.0430
      8  C          8.3450    1.5460   -0.3620 C.2     1  UNL1        0.0080
      9  C          6.4460    0.2450   -0.8780 C.2     1  UNL1        0.0540
     10  C          9.1390    0.7160   -1.1220 C.2     1  UNL1        0.0510
     11  C          7.2230   -0.6010   -1.6460 C.2     1  UNL1        0.1660
     12  C          8.5720   -0.3690   -1.7700 C.2     1  UNL1        0.1650
     13  O          6.9030   -1.7300   -2.3800 O.2     1  UNL1       -0.4540
     14  O          9.0790   -1.3750   -2.5940 O.2     1  UNL1       -0.4540
     15  C          8.0150   -2.0420   -3.2320 C.3     1  UNL1        0.4680
@<TRIPOS>BOND
     1    15    14    1
     2    15    13    1
     3    14    12    1
     4    13    11    1
     5    12    11    2
     6    12    10    1
     7    11     9    1
     8    10     8    2
     9     9     7    2
    10     8     7    1
    11     7     6    1
    12     6     1    1
    13     1     2    1
    14     2     3    2
    15     2     4    1
    16     4     5    1
