@<TRIPOS>MOLECULE
/home/cewinharhar/GITHUB/reincatalyze/data/processed/docking_pred/2023-May-17-1006_maxeplen10_maxtrainstep1000_seadep16_gamma099_lrac9e-4_lrcr1e-3_sub6/55f9a48c22e019202c812c896c561d7470c53219_ligand_6.pdbqt
 15 16 0 0 0
SMALL
GASTEIGER

@<TRIPOS>ATOM
      1  C          5.4420    2.8860    0.0870 C.3     1  UNL1        0.1270
      2  C          6.2540    3.8600    0.7990 C.2     1  UNL1        0.3030
      3  O          6.8990    4.7730    0.2810 O.2     1  UNL1       -0.2520
      4  O          6.3110    3.7520    2.1980 O.3     1  UNL1       -0.4810
      5  H          7.0730    4.2320    2.6510 H       1  UNL1        0.2960
      6  C          5.3460    1.5750    0.7640 C.3     1  UNL1        0.0470
      7  C          6.1200    0.4660    0.2040 C.2     1  UNL1       -0.0430
      8  C          6.5600   -0.5840    0.9960 C.2     1  UNL1        0.0080
      9  C          6.4680    0.4530   -1.1210 C.2     1  UNL1        0.0540
     10  C          7.3190   -1.6090    0.4780 C.2     1  UNL1        0.0510
     11  C          7.2290   -0.5660   -1.6620 C.2     1  UNL1        0.1660
     12  C          7.6570   -1.6010   -0.8650 C.2     1  UNL1        0.1650
     13  O          7.6910   -0.7840   -2.9490 O.2     1  UNL1       -0.4540
     14  O          8.3920   -2.4610   -1.6820 O.2     1  UNL1       -0.4540
     15  C          8.6870   -1.8170   -2.8990 C.3     1  UNL1        0.4680
@<TRIPOS>BOND
     1    13    15    1
     2    13    11    1
     3    15    14    1
     4    14    12    1
     5    11     9    1
     6    11    12    2
     7     9     7    2
     8    12    10    1
     9     1     6    1
    10     1     2    1
    11     7     6    1
    12     7     8    1
    13     3     2    2
    14    10     8    2
    15     2     4    1
    16     4     5    1
