@<TRIPOS>MOLECULE
/home/cewinharhar/GITHUB/reincatalyze/data/processed/docking_pred/2023-May-17-1006_maxeplen10_maxtrainstep1000_seadep16_gamma099_lrac9e-4_lrcr1e-3_sub6/55f9a48c22e019202c812c896c561d7470c53219_ligand_6.pdbqt
 15 16 0 0 0
SMALL
GASTEIGER

@<TRIPOS>ATOM
      1  C          5.3750    2.5260    0.3080 C.3     1  UNL1        0.1270
      2  C          6.1160    3.6130    0.9290 C.2     1  UNL1        0.3030
      3  O          6.1210    3.8820    2.1320 O.2     1  UNL1       -0.2520
      4  O          6.8940    4.4250    0.0890 O.3     1  UNL1       -0.4810
      5  H          7.8440    4.5890    0.3830 H       1  UNL1        0.2960
      6  C          5.5640    1.2160    0.9670 C.3     1  UNL1        0.0470
      7  C          6.3540    0.2080    0.2570 C.2     1  UNL1       -0.0430
      8  C          6.4900    0.2330   -1.1220 C.2     1  UNL1        0.0080
      9  C          6.9550   -0.8180    0.9380 C.2     1  UNL1        0.0540
     10  C          7.2020   -0.7350   -1.7950 C.2     1  UNL1        0.0510
     11  C          7.6750   -1.8000    0.2840 C.2     1  UNL1        0.1660
     12  C          7.8020   -1.7620   -1.0840 C.2     1  UNL1        0.1650
     13  O          8.3540   -2.9090    0.7560 O.2     1  UNL1       -0.4540
     14  O          8.5710   -2.8680   -1.4480 O.2     1  UNL1       -0.4540
     15  C          8.6590   -3.7580   -0.3600 C.3     1  UNL1        0.4680
@<TRIPOS>BOND
     1    10     8    1
     2    10    12    2
     3    14    12    1
     4    14    15    1
     5     8     7    2
     6    12    11    1
     7    15    13    1
     8     4     5    1
     9     4     2    1
    10     7     9    1
    11     7     6    1
    12    11    13    1
    13    11     9    2
    14     1     2    1
    15     1     6    1
    16     2     3    2
