@<TRIPOS>MOLECULE
/home/cewinharhar/GITHUB/reincatalyze/data/processed/docking_pred/2023-May-17-1006_maxeplen10_maxtrainstep1000_seadep16_gamma099_lrac9e-4_lrcr1e-3_sub6/55f9a48c22e019202c812c896c561d7470c53219_ligand_6.pdbqt
 15 16 0 0 0
SMALL
GASTEIGER

@<TRIPOS>ATOM
      1  C          4.6680    1.8510    0.6750 C.3     1  UNL1        0.1270
      2  C          4.3920    1.1530    1.9210 C.2     1  UNL1        0.3030
      3  O          5.1410    0.3430    2.4700 O.2     1  UNL1       -0.2520
      4  O          3.1690    1.4250    2.5540 O.3     1  UNL1       -0.4810
      5  H          2.4740    1.8950    1.9960 H       1  UNL1        0.2960
      6  C          6.0840    2.2420    0.5070 C.3     1  UNL1        0.0470
      7  C          6.9520    1.3360   -0.2490 C.2     1  UNL1       -0.0430
      8  C          8.3130    1.5680   -0.3700 C.2     1  UNL1        0.0080
      9  C          6.4320    0.2460   -0.8950 C.2     1  UNL1        0.0540
     10  C          9.1240    0.7370   -1.1110 C.2     1  UNL1        0.0510
     11  C          7.2260   -0.6030   -1.6430 C.2     1  UNL1        0.1660
     12  C          8.5740   -0.3600   -1.7540 C.2     1  UNL1        0.1650
     13  O          6.9250   -1.7430   -2.3680 O.2     1  UNL1       -0.4540
     14  O          9.1010   -1.3710   -2.5590 O.2     1  UNL1       -0.4540
     15  C          8.0510   -2.0540   -3.2030 C.3     1  UNL1        0.4680
@<TRIPOS>BOND
     1    15    14    1
     2    15    13    1
     3    14    12    1
     4    13    11    1
     5    12    11    2
     6    12    10    1
     7    11     9    1
     8    10     8    2
     9     9     7    2
    10     8     7    1
    11     7     6    1
    12     6     1    1
    13     1     2    1
    14     2     3    2
    15     2     4    1
    16     5     4    1
