@<TRIPOS>MOLECULE
/home/cewinharhar/GITHUB/reincatalyze/data/processed/docking_pred/2023-May-17-1006_maxeplen10_maxtrainstep1000_seadep16_gamma099_lrac9e-4_lrcr1e-3_sub6/55f9a48c22e019202c812c896c561d7470c53219_ligand_6.pdbqt
 15 16 0 0 0
SMALL
GASTEIGER

@<TRIPOS>ATOM
      1  C          8.2390   -0.1950   -2.8320 C.3     1  UNL1        0.1270
      2  C          8.4750   -1.6170   -3.0310 C.2     1  UNL1        0.3030
      3  O          9.5600   -2.1880   -2.9080 O.2     1  UNL1       -0.2520
      4  O          7.3730   -2.4080   -3.3940 O.3     1  UNL1       -0.4810
      5  H          7.3310   -3.3280   -2.9830 H       1  UNL1        0.2960
      6  C          8.6900    0.3100   -1.5180 C.3     1  UNL1        0.0470
      7  C          7.7400    0.2450   -0.4050 C.2     1  UNL1       -0.0430
      8  C          7.7660   -0.7950    0.5110 C.2     1  UNL1        0.0080
      9  C          6.7660    1.1980   -0.2600 C.2     1  UNL1        0.0540
     10  C          6.8500   -0.8760    1.5370 C.2     1  UNL1        0.0510
     11  C          5.8370    1.1370    0.7610 C.2     1  UNL1        0.1660
     12  C          5.8760    0.1010    1.6630 C.2     1  UNL1        0.1650
     13  O          4.7850    1.9710    1.0970 O.2     1  UNL1       -0.4540
     14  O          4.8280    0.3100    2.5620 O.2     1  UNL1       -0.4540
     15  C          3.9530    1.2860    2.0460 C.3     1  UNL1        0.4680
@<TRIPOS>BOND
     1     4     2    1
     2     4     5    1
     3     2     3    2
     4     2     1    1
     5     1     6    1
     6     6     7    1
     7     7     9    2
     8     7     8    1
     9     9    11    1
    10     8    10    2
    11    11    13    1
    12    11    12    2
    13    13    15    1
    14    10    12    1
    15    12    14    1
    16    15    14    1
