@<TRIPOS>MOLECULE
/home/cewinharhar/GITHUB/reincatalyze/data/processed/docking_pred/2023-May-17-1006_maxeplen10_maxtrainstep1000_seadep16_gamma099_lrac9e-4_lrcr1e-3_sub6/55f9a48c22e019202c812c896c561d7470c53219_ligand_6.pdbqt
 15 16 0 0 0
SMALL
GASTEIGER

@<TRIPOS>ATOM
      1  C          6.4360    1.2980    0.7540 C.3     1  UNL1        0.1270
      2  C          5.2610    1.1450    1.5970 C.2     1  UNL1        0.3030
      3  O          5.1040    0.2760    2.4580 O.2     1  UNL1       -0.2520
      4  O          4.2140    2.0630    1.4180 O.3     1  UNL1       -0.4810
      5  H          3.4100    1.7280    0.9100 H       1  UNL1        0.2960
      6  C          6.2290    0.8710   -0.6470 C.3     1  UNL1        0.0470
      7  C          6.9790   -0.2950   -1.1170 C.2     1  UNL1       -0.0430
      8  C          7.2570   -0.4840   -2.4620 C.2     1  UNL1        0.0080
      9  C          7.3960   -1.2600   -0.2380 C.2     1  UNL1        0.0540
     10  C          7.9310   -1.5990   -2.9090 C.2     1  UNL1        0.0510
     11  C          8.0740   -2.3860   -0.6640 C.2     1  UNL1        0.1660
     12  C          8.3440   -2.5600   -2.0000 C.2     1  UNL1        0.1650
     13  O          8.5830   -3.4700    0.0300 O.2     1  UNL1       -0.4540
     14  O          9.0280   -3.7710   -2.1190 O.2     1  UNL1       -0.4540
     15  C          8.9110   -4.4970   -0.9180 C.3     1  UNL1        0.4680
@<TRIPOS>BOND
     1    10     8    1
     2    10    12    2
     3     8     7    2
     4    14    12    1
     5    14    15    1
     6    12    11    1
     7     7     6    1
     8     7     9    1
     9    15    13    1
    10    11     9    2
    11    11    13    1
    12     6     1    1
    13     1     2    1
    14     5     4    1
    15     4     2    1
    16     2     3    2
