MODEL 1
REMARK VINA RESULT:      -7.7      0.000      0.000
REMARK SMILES O=C(O)CCc1ccc2c(c1)OCO2
REMARK SMILES IDX 4 1 2 2 1 3 3 4 5 6 6 7 7 8 11 9 8 10 10 11 9 12 12 13 14 14
REMARK SMILES IDX 13 15
REMARK H PARENT 3 5
REMARK Flexibility Score: inf
ROOT
ATOM      1  C   UNL     1       5.442   2.886   0.087  1.00  0.00     0.127 C 
ENDROOT
BRANCH   1   2
ATOM      2  C   UNL     1       6.254   3.860   0.799  1.00  0.00     0.303 C 
ATOM      3  O   UNL     1       6.899   4.773   0.281  1.00  0.00    -0.252 OA
BRANCH   2   4
ATOM      4  O   UNL     1       6.311   3.752   2.198  1.00  0.00    -0.481 OA
ATOM      5  H   UNL     1       7.073   4.232   2.651  1.00  0.00     0.296 HD
ENDBRANCH   2   4
ENDBRANCH   1   2
BRANCH   1   6
ATOM      6  C   UNL     1       5.346   1.575   0.764  1.00  0.00     0.047 C 
BRANCH   6   7
ATOM      7  C   UNL     1       6.120   0.466   0.204  1.00  0.00    -0.043 A 
ATOM      8  C   UNL     1       6.560  -0.584   0.996  1.00  0.00     0.008 A 
ATOM      9  C   UNL     1       6.468   0.453  -1.121  1.00  0.00     0.054 A 
ATOM     10  C   UNL     1       7.319  -1.609   0.478  1.00  0.00     0.051 A 
ATOM     11  C   UNL     1       7.229  -0.566  -1.662  1.00  0.00     0.166 A 
ATOM     12  C   UNL     1       7.657  -1.601  -0.865  1.00  0.00     0.165 A 
ATOM     13  O   UNL     1       7.691  -0.784  -2.949  1.00  0.00    -0.454 OA
ATOM     14  O   UNL     1       8.392  -2.461  -1.682  1.00  0.00    -0.454 OA
ATOM     15  C   UNL     1       8.687  -1.817  -2.899  1.00  0.00     0.468 C 
ENDBRANCH   6   7
ENDBRANCH   1   6
TORSDOF 4
ENDMDL
MODEL 2
REMARK VINA RESULT:      -7.6      2.117      2.517
REMARK SMILES O=C(O)CCc1ccc2c(c1)OCO2
REMARK SMILES IDX 4 1 2 2 1 3 3 4 5 6 6 7 7 8 11 9 8 10 10 11 9 12 12 13 14 14
REMARK SMILES IDX 13 15
REMARK H PARENT 3 5
REMARK Flexibility Score: inf
ROOT
ATOM      1  C   UNL     1       4.668   1.851   0.675  1.00  0.00     0.127 C 
ENDROOT
BRANCH   1   2
ATOM      2  C   UNL     1       4.392   1.153   1.921  1.00  0.00     0.303 C 
ATOM      3  O   UNL     1       5.141   0.343   2.470  1.00  0.00    -0.252 OA
BRANCH   2   4
ATOM      4  O   UNL     1       3.169   1.425   2.554  1.00  0.00    -0.481 OA
ATOM      5  H   UNL     1       2.474   1.895   1.996  1.00  0.00     0.296 HD
ENDBRANCH   2   4
ENDBRANCH   1   2
BRANCH   1   6
ATOM      6  C   UNL     1       6.084   2.242   0.507  1.00  0.00     0.047 C 
BRANCH   6   7
ATOM      7  C   UNL     1       6.952   1.336  -0.249  1.00  0.00    -0.043 A 
ATOM      8  C   UNL     1       8.313   1.568  -0.370  1.00  0.00     0.008 A 
ATOM      9  C   UNL     1       6.432   0.246  -0.895  1.00  0.00     0.054 A 
ATOM     10  C   UNL     1       9.124   0.737  -1.111  1.00  0.00     0.051 A 
ATOM     11  C   UNL     1       7.226  -0.603  -1.643  1.00  0.00     0.166 A 
ATOM     12  C   UNL     1       8.574  -0.360  -1.754  1.00  0.00     0.165 A 
ATOM     13  O   UNL     1       6.925  -1.743  -2.368  1.00  0.00    -0.454 OA
ATOM     14  O   UNL     1       9.101  -1.371  -2.559  1.00  0.00    -0.454 OA
ATOM     15  C   UNL     1       8.051  -2.054  -3.203  1.00  0.00     0.468 C 
ENDBRANCH   6   7
ENDBRANCH   1   6
TORSDOF 4
ENDMDL
MODEL 3
REMARK VINA RESULT:      -7.5      1.812      5.264
REMARK SMILES O=C(O)CCc1ccc2c(c1)OCO2
REMARK SMILES IDX 4 1 2 2 1 3 3 4 5 6 6 7 7 8 11 9 8 10 10 11 9 12 12 13 14 14
REMARK SMILES IDX 13 15
REMARK H PARENT 3 5
REMARK Flexibility Score: inf
ROOT
ATOM      1  C   UNL     1       8.239  -0.195  -2.832  1.00  0.00     0.127 C 
ENDROOT
BRANCH   1   2
ATOM      2  C   UNL     1       8.475  -1.617  -3.031  1.00  0.00     0.303 C 
ATOM      3  O   UNL     1       9.560  -2.188  -2.908  1.00  0.00    -0.252 OA
BRANCH   2   4
ATOM      4  O   UNL     1       7.373  -2.408  -3.394  1.00  0.00    -0.481 OA
ATOM      5  H   UNL     1       7.331  -3.328  -2.983  1.00  0.00     0.296 HD
ENDBRANCH   2   4
ENDBRANCH   1   2
BRANCH   1   6
ATOM      6  C   UNL     1       8.690   0.310  -1.518  1.00  0.00     0.047 C 
BRANCH   6   7
ATOM      7  C   UNL     1       7.740   0.245  -0.405  1.00  0.00    -0.043 A 
ATOM      8  C   UNL     1       7.766  -0.795   0.511  1.00  0.00     0.008 A 
ATOM      9  C   UNL     1       6.766   1.198  -0.260  1.00  0.00     0.054 A 
ATOM     10  C   UNL     1       6.850  -0.876   1.537  1.00  0.00     0.051 A 
ATOM     11  C   UNL     1       5.837   1.137   0.761  1.00  0.00     0.166 A 
ATOM     12  C   UNL     1       5.876   0.101   1.663  1.00  0.00     0.165 A 
ATOM     13  O   UNL     1       4.785   1.971   1.097  1.00  0.00    -0.454 OA
ATOM     14  O   UNL     1       4.828   0.310   2.562  1.00  0.00    -0.454 OA
ATOM     15  C   UNL     1       3.953   1.286   2.046  1.00  0.00     0.468 C 
ENDBRANCH   6   7
ENDBRANCH   1   6
TORSDOF 4
ENDMDL
MODEL 4
REMARK VINA RESULT:      -7.5      1.985      2.955
REMARK SMILES O=C(O)CCc1ccc2c(c1)OCO2
REMARK SMILES IDX 4 1 2 2 1 3 3 4 5 6 6 7 7 8 11 9 8 10 10 11 9 12 12 13 14 14
REMARK SMILES IDX 13 15
REMARK H PARENT 3 5
REMARK Flexibility Score: inf
ROOT
ATOM      1  C   UNL     1       6.436   1.298   0.754  1.00  0.00     0.127 C 
ENDROOT
BRANCH   1   2
ATOM      2  C   UNL     1       5.261   1.145   1.597  1.00  0.00     0.303 C 
ATOM      3  O   UNL     1       5.104   0.276   2.458  1.00  0.00    -0.252 OA
BRANCH   2   4
ATOM      4  O   UNL     1       4.214   2.063   1.418  1.00  0.00    -0.481 OA
ATOM      5  H   UNL     1       3.410   1.728   0.910  1.00  0.00     0.296 HD
ENDBRANCH   2   4
ENDBRANCH   1   2
BRANCH   1   6
ATOM      6  C   UNL     1       6.229   0.871  -0.647  1.00  0.00     0.047 C 
BRANCH   6   7
ATOM      7  C   UNL     1       6.979  -0.295  -1.117  1.00  0.00    -0.043 A 
ATOM      8  C   UNL     1       7.257  -0.484  -2.462  1.00  0.00     0.008 A 
ATOM      9  C   UNL     1       7.396  -1.260  -0.238  1.00  0.00     0.054 A 
ATOM     10  C   UNL     1       7.931  -1.599  -2.909  1.00  0.00     0.051 A 
ATOM     11  C   UNL     1       8.074  -2.386  -0.664  1.00  0.00     0.166 A 
ATOM     12  C   UNL     1       8.344  -2.560  -2.000  1.00  0.00     0.165 A 
ATOM     13  O   UNL     1       8.583  -3.470   0.030  1.00  0.00    -0.454 OA
ATOM     14  O   UNL     1       9.028  -3.771  -2.119  1.00  0.00    -0.454 OA
ATOM     15  C   UNL     1       8.911  -4.497  -0.918  1.00  0.00     0.468 C 
ENDBRANCH   6   7
ENDBRANCH   1   6
TORSDOF 4
ENDMDL
MODEL 5
REMARK VINA RESULT:      -7.3      0.991      2.115
REMARK SMILES O=C(O)CCc1ccc2c(c1)OCO2
REMARK SMILES IDX 4 1 2 2 1 3 3 4 5 6 6 7 7 8 11 9 8 10 10 11 9 12 12 13 14 14
REMARK SMILES IDX 13 15
REMARK H PARENT 3 5
REMARK Flexibility Score: inf
ROOT
ATOM      1  C   UNL     1       5.375   2.526   0.308  1.00  0.00     0.127 C 
ENDROOT
BRANCH   1   2
ATOM      2  C   UNL     1       6.116   3.613   0.929  1.00  0.00     0.303 C 
ATOM      3  O   UNL     1       6.121   3.882   2.132  1.00  0.00    -0.252 OA
BRANCH   2   4
ATOM      4  O   UNL     1       6.894   4.425   0.089  1.00  0.00    -0.481 OA
ATOM      5  H   UNL     1       7.844   4.589   0.383  1.00  0.00     0.296 HD
ENDBRANCH   2   4
ENDBRANCH   1   2
BRANCH   1   6
ATOM      6  C   UNL     1       5.564   1.216   0.967  1.00  0.00     0.047 C 
BRANCH   6   7
ATOM      7  C   UNL     1       6.354   0.208   0.257  1.00  0.00    -0.043 A 
ATOM      8  C   UNL     1       6.490   0.233  -1.122  1.00  0.00     0.008 A 
ATOM      9  C   UNL     1       6.955  -0.818   0.938  1.00  0.00     0.054 A 
ATOM     10  C   UNL     1       7.202  -0.735  -1.795  1.00  0.00     0.051 A 
ATOM     11  C   UNL     1       7.675  -1.800   0.284  1.00  0.00     0.166 A 
ATOM     12  C   UNL     1       7.802  -1.762  -1.084  1.00  0.00     0.165 A 
ATOM     13  O   UNL     1       8.354  -2.909   0.756  1.00  0.00    -0.454 OA
ATOM     14  O   UNL     1       8.571  -2.868  -1.448  1.00  0.00    -0.454 OA
ATOM     15  C   UNL     1       8.659  -3.758  -0.360  1.00  0.00     0.468 C 
ENDBRANCH   6   7
ENDBRANCH   1   6
TORSDOF 4
ENDMDL
