@<TRIPOS>MOLECULE
/home/cewinharhar/GITHUB/reincatalyze/data/processed/docking_pred/2023-May-17-1006_maxeplen10_maxtrainstep1000_seadep16_gamma099_lrac9e-4_lrcr1e-3_sub6/57f45ec83c8c38489066d898ddae0638f0802b8b_ligand_6.pdbqt
 15 16 0 0 0
SMALL
GASTEIGER

@<TRIPOS>ATOM
      1  C          5.3720    2.6640    0.2100 C.3     1  UNL1        0.1270
      2  C          6.1420    3.6600    0.9390 C.2     1  UNL1        0.3030
      3  O          6.2910    3.6980    2.1620 O.2     1  UNL1       -0.2520
      4  O          6.7710    4.6640    0.1870 O.3     1  UNL1       -0.4810
      5  H          6.6710    4.6000   -0.8150 H       1  UNL1        0.2960
      6  C          5.3950    1.3200    0.8250 C.3     1  UNL1        0.0470
      7  C          6.2360    0.3010    0.1930 C.2     1  UNL1       -0.0430
      8  C          6.4890    0.3130   -1.1700 C.2     1  UNL1        0.0080
      9  C          6.7690   -0.7230    0.9300 C.2     1  UNL1        0.0540
     10  C          7.2500   -0.6650   -1.7710 C.2     1  UNL1        0.0510
     11  C          7.5360   -1.7150    0.3490 C.2     1  UNL1        0.1660
     12  C          7.7790   -1.6890   -1.0030 C.2     1  UNL1        0.1650
     13  O          8.1650   -2.8240    0.8860 O.2     1  UNL1       -0.4540
     14  O          8.5700   -2.8030   -1.2920 O.2     1  UNL1       -0.4540
     15  C          8.5580   -3.6850   -0.1930 C.3     1  UNL1        0.4680
@<TRIPOS>BOND
     1    10     8    1
     2    10    12    2
     3    14    12    1
     4    14    15    1
     5     8     7    2
     6    12    11    1
     7     5     4    1
     8    15    13    1
     9     4     2    1
    10     7     6    1
    11     7     9    1
    12     1     6    1
    13     1     2    1
    14    11    13    1
    15    11     9    2
    16     2     3    2
