@<TRIPOS>MOLECULE
/home/cewinharhar/GITHUB/reincatalyze/data/processed/docking_pred/2023-May-17-1006_maxeplen10_maxtrainstep1000_seadep16_gamma099_lrac9e-4_lrcr1e-3_sub6/57f45ec83c8c38489066d898ddae0638f0802b8b_ligand_6.pdbqt
 15 16 0 0 0
SMALL
GASTEIGER

@<TRIPOS>ATOM
      1  C          6.4480    1.2180    0.7620 C.3     1  UNL1        0.1270
      2  C          5.2250    1.1560    1.5470 C.2     1  UNL1        0.3030
      3  O          4.9720    0.3170    2.4140 O.2     1  UNL1       -0.2520
      4  O          4.2480    2.1320    1.2970 O.3     1  UNL1       -0.4810
      5  H          4.5810    3.0780    1.1920 H       1  UNL1        0.2960
      6  C          6.2800    0.7990   -0.6460 C.3     1  UNL1        0.0470
      7  C          7.0170   -0.3860   -1.0920 C.2     1  UNL1       -0.0430
      8  C          7.2860   -0.6100   -2.4330 C.2     1  UNL1        0.0080
      9  C          7.4300   -1.3330   -0.1930 C.2     1  UNL1        0.0540
     10  C          7.9460   -1.7410   -2.8580 C.2     1  UNL1        0.0510
     11  C          8.0960   -2.4750   -0.5960 C.2     1  UNL1        0.1660
     12  C          8.3560   -2.6830   -1.9280 C.2     1  UNL1        0.1650
     13  O          8.5980   -3.5470    0.1220 O.2     1  UNL1       -0.4540
     14  O          9.0280   -3.9030   -2.0220 O.2     1  UNL1       -0.4540
     15  C          8.9110   -4.6000   -0.8030 C.3     1  UNL1        0.4680
@<TRIPOS>BOND
     1    10     8    1
     2    10    12    2
     3     8     7    2
     4    14    12    1
     5    14    15    1
     6    12    11    1
     7     7     6    1
     8     7     9    1
     9    15    13    1
    10     6     1    1
    11    11     9    2
    12    11    13    1
    13     1     2    1
    14     5     4    1
    15     4     2    1
    16     2     3    2
