@<TRIPOS>MOLECULE
/home/cewinharhar/GITHUB/reincatalyze/data/processed/docking_pred/2023-May-17-1006_maxeplen10_maxtrainstep1000_seadep16_gamma099_lrac9e-4_lrcr1e-3_sub6/57f45ec83c8c38489066d898ddae0638f0802b8b_ligand_6.pdbqt
 15 16 0 0 0
SMALL
GASTEIGER

@<TRIPOS>ATOM
      1  C          5.4110    2.8730    0.1220 C.3     1  UNL1        0.1270
      2  C          6.2360    3.8520    0.8120 C.2     1  UNL1        0.3030
      3  O          6.8690    4.7630    0.2750 O.2     1  UNL1       -0.2520
      4  O          6.3220    3.7520    2.2090 O.3     1  UNL1       -0.4810
      5  H          7.0320    3.1320    2.5690 H       1  UNL1        0.2960
      6  C          5.3430    1.5600    0.7990 C.3     1  UNL1        0.0470
      7  C          6.1240    0.4610    0.2260 C.2     1  UNL1       -0.0430
      8  C          6.5860   -0.5850    1.0100 C.2     1  UNL1        0.0080
      9  C          6.4550    0.4560   -1.1030 C.2     1  UNL1        0.0540
     10  C          7.3500   -1.6000    0.4790 C.2     1  UNL1        0.0510
     11  C          7.2200   -0.5520   -1.6570 C.2     1  UNL1        0.1660
     12  C          7.6700   -1.5840   -0.8690 C.2     1  UNL1        0.1650
     13  O          7.6680   -0.7610   -2.9500 O.2     1  UNL1       -0.4540
     14  O          8.4050   -2.4330   -1.6970 O.2     1  UNL1       -0.4540
     15  C          8.6770   -1.7820   -2.9160 C.3     1  UNL1        0.4680
@<TRIPOS>BOND
     1    13    15    1
     2    13    11    1
     3    15    14    1
     4    14    12    1
     5    11     9    1
     6    11    12    2
     7     9     7    2
     8    12    10    1
     9     1     6    1
    10     1     2    1
    11     7     6    1
    12     7     8    1
    13     3     2    2
    14    10     8    2
    15     2     4    1
    16     4     5    1
