MODEL 1
REMARK VINA RESULT:      -7.7      0.000      0.000
REMARK SMILES O=C(O)CCc1ccc2c(c1)OCO2
REMARK SMILES IDX 4 1 2 2 1 3 3 4 5 6 6 7 7 8 11 9 8 10 10 11 9 12 12 13 14 14
REMARK SMILES IDX 13 15
REMARK H PARENT 3 5
REMARK Flexibility Score: inf
ROOT
ATOM      1  C   UNL     1       5.411   2.873   0.122  1.00  0.00     0.127 C 
ENDROOT
BRANCH   1   2
ATOM      2  C   UNL     1       6.236   3.852   0.812  1.00  0.00     0.303 C 
ATOM      3  O   UNL     1       6.869   4.763   0.275  1.00  0.00    -0.252 OA
BRANCH   2   4
ATOM      4  O   UNL     1       6.322   3.752   2.209  1.00  0.00    -0.481 OA
ATOM      5  H   UNL     1       7.032   3.132   2.569  1.00  0.00     0.296 HD
ENDBRANCH   2   4
ENDBRANCH   1   2
BRANCH   1   6
ATOM      6  C   UNL     1       5.343   1.560   0.799  1.00  0.00     0.047 C 
BRANCH   6   7
ATOM      7  C   UNL     1       6.124   0.461   0.226  1.00  0.00    -0.043 A 
ATOM      8  C   UNL     1       6.586  -0.585   1.010  1.00  0.00     0.008 A 
ATOM      9  C   UNL     1       6.455   0.456  -1.103  1.00  0.00     0.054 A 
ATOM     10  C   UNL     1       7.350  -1.600   0.479  1.00  0.00     0.051 A 
ATOM     11  C   UNL     1       7.220  -0.552  -1.657  1.00  0.00     0.166 A 
ATOM     12  C   UNL     1       7.670  -1.584  -0.869  1.00  0.00     0.165 A 
ATOM     13  O   UNL     1       7.668  -0.761  -2.950  1.00  0.00    -0.454 OA
ATOM     14  O   UNL     1       8.405  -2.433  -1.697  1.00  0.00    -0.454 OA
ATOM     15  C   UNL     1       8.677  -1.782  -2.916  1.00  0.00     0.468 C 
ENDBRANCH   6   7
ENDBRANCH   1   6
TORSDOF 4
ENDMDL
MODEL 2
REMARK VINA RESULT:      -7.6      2.116      2.500
REMARK SMILES O=C(O)CCc1ccc2c(c1)OCO2
REMARK SMILES IDX 4 1 2 2 1 3 3 4 5 6 6 7 7 8 11 9 8 10 10 11 9 12 12 13 14 14
REMARK SMILES IDX 13 15
REMARK H PARENT 3 5
REMARK Flexibility Score: inf
ROOT
ATOM      1  C   UNL     1       4.712   1.894   0.687  1.00  0.00     0.127 C 
ENDROOT
BRANCH   1   2
ATOM      2  C   UNL     1       4.403   1.175   1.912  1.00  0.00     0.303 C 
ATOM      3  O   UNL     1       5.129   0.340   2.456  1.00  0.00    -0.252 OA
BRANCH   2   4
ATOM      4  O   UNL     1       3.174   1.452   2.531  1.00  0.00    -0.481 OA
ATOM      5  H   UNL     1       3.149   2.265   3.127  1.00  0.00     0.296 HD
ENDBRANCH   2   4
ENDBRANCH   1   2
BRANCH   1   6
ATOM      6  C   UNL     1       6.141   2.245   0.540  1.00  0.00     0.047 C 
BRANCH   6   7
ATOM      7  C   UNL     1       6.986   1.331  -0.232  1.00  0.00    -0.043 A 
ATOM      8  C   UNL     1       8.350   1.540  -0.360  1.00  0.00     0.008 A 
ATOM      9  C   UNL     1       6.442   0.256  -0.884  1.00  0.00     0.054 A 
ATOM     10  C   UNL     1       9.141   0.702  -1.115  1.00  0.00     0.051 A 
ATOM     11  C   UNL     1       7.216  -0.598  -1.647  1.00  0.00     0.166 A 
ATOM     12  C   UNL     1       8.567  -0.379  -1.764  1.00  0.00     0.165 A 
ATOM     13  O   UNL     1       6.889  -1.726  -2.380  1.00  0.00    -0.454 OA
ATOM     14  O   UNL     1       9.069  -1.391  -2.584  1.00  0.00    -0.454 OA
ATOM     15  C   UNL     1       8.002  -2.049  -3.227  1.00  0.00     0.468 C 
ENDBRANCH   6   7
ENDBRANCH   1   6
TORSDOF 4
ENDMDL
MODEL 3
REMARK VINA RESULT:      -7.5      1.996      2.999
REMARK SMILES O=C(O)CCc1ccc2c(c1)OCO2
REMARK SMILES IDX 4 1 2 2 1 3 3 4 5 6 6 7 7 8 11 9 8 10 10 11 9 12 12 13 14 14
REMARK SMILES IDX 13 15
REMARK H PARENT 3 5
REMARK Flexibility Score: inf
ROOT
ATOM      1  C   UNL     1       6.448   1.218   0.762  1.00  0.00     0.127 C 
ENDROOT
BRANCH   1   2
ATOM      2  C   UNL     1       5.225   1.156   1.547  1.00  0.00     0.303 C 
ATOM      3  O   UNL     1       4.972   0.317   2.414  1.00  0.00    -0.252 OA
BRANCH   2   4
ATOM      4  O   UNL     1       4.248   2.132   1.297  1.00  0.00    -0.481 OA
ATOM      5  H   UNL     1       4.581   3.078   1.192  1.00  0.00     0.296 HD
ENDBRANCH   2   4
ENDBRANCH   1   2
BRANCH   1   6
ATOM      6  C   UNL     1       6.280   0.799  -0.646  1.00  0.00     0.047 C 
BRANCH   6   7
ATOM      7  C   UNL     1       7.017  -0.386  -1.092  1.00  0.00    -0.043 A 
ATOM      8  C   UNL     1       7.286  -0.610  -2.433  1.00  0.00     0.008 A 
ATOM      9  C   UNL     1       7.430  -1.333  -0.193  1.00  0.00     0.054 A 
ATOM     10  C   UNL     1       7.946  -1.741  -2.858  1.00  0.00     0.051 A 
ATOM     11  C   UNL     1       8.096  -2.475  -0.596  1.00  0.00     0.166 A 
ATOM     12  C   UNL     1       8.356  -2.683  -1.928  1.00  0.00     0.165 A 
ATOM     13  O   UNL     1       8.598  -3.547   0.122  1.00  0.00    -0.454 OA
ATOM     14  O   UNL     1       9.028  -3.903  -2.022  1.00  0.00    -0.454 OA
ATOM     15  C   UNL     1       8.911  -4.600  -0.803  1.00  0.00     0.468 C 
ENDBRANCH   6   7
ENDBRANCH   1   6
TORSDOF 4
ENDMDL
MODEL 4
REMARK VINA RESULT:      -7.5      1.815      5.269
REMARK SMILES O=C(O)CCc1ccc2c(c1)OCO2
REMARK SMILES IDX 4 1 2 2 1 3 3 4 5 6 6 7 7 8 11 9 8 10 10 11 9 12 12 13 14 14
REMARK SMILES IDX 13 15
REMARK H PARENT 3 5
REMARK Flexibility Score: inf
ROOT
ATOM      1  C   UNL     1       8.228  -0.216  -2.842  1.00  0.00     0.127 C 
ENDROOT
BRANCH   1   2
ATOM      2  C   UNL     1       8.468  -1.636  -3.047  1.00  0.00     0.303 C 
ATOM      3  O   UNL     1       9.557  -2.203  -2.932  1.00  0.00    -0.252 OA
BRANCH   2   4
ATOM      4  O   UNL     1       7.369  -2.431  -3.408  1.00  0.00    -0.481 OA
ATOM      5  H   UNL     1       6.733  -2.675  -2.664  1.00  0.00     0.296 HD
ENDBRANCH   2   4
ENDBRANCH   1   2
BRANCH   1   6
ATOM      6  C   UNL     1       8.688   0.287  -1.530  1.00  0.00     0.047 C 
BRANCH   6   7
ATOM      7  C   UNL     1       7.744   0.229  -0.413  1.00  0.00    -0.043 A 
ATOM      8  C   UNL     1       7.787  -0.795   0.521  1.00  0.00     0.008 A 
ATOM      9  C   UNL     1       6.758   1.171  -0.280  1.00  0.00     0.054 A 
ATOM     10  C   UNL     1       6.877  -0.870   1.552  1.00  0.00     0.051 A 
ATOM     11  C   UNL     1       5.834   1.116   0.747  1.00  0.00     0.166 A 
ATOM     12  C   UNL     1       5.890   0.096   1.666  1.00  0.00     0.165 A 
ATOM     13  O   UNL     1       4.773   1.942   1.073  1.00  0.00    -0.454 OA
ATOM     14  O   UNL     1       4.844   0.306   2.565  1.00  0.00    -0.454 OA
ATOM     15  C   UNL     1       3.955   1.262   2.037  1.00  0.00     0.468 C 
ENDBRANCH   6   7
ENDBRANCH   1   6
TORSDOF 4
ENDMDL
MODEL 5
REMARK VINA RESULT:      -7.4      0.976      2.132
REMARK SMILES O=C(O)CCc1ccc2c(c1)OCO2
REMARK SMILES IDX 4 1 2 2 1 3 3 4 5 6 6 7 7 8 11 9 8 10 10 11 9 12 12 13 14 14
REMARK SMILES IDX 13 15
REMARK H PARENT 3 5
REMARK Flexibility Score: inf
ROOT
ATOM      1  C   UNL     1       5.372   2.664   0.210  1.00  0.00     0.127 C 
ENDROOT
BRANCH   1   2
ATOM      2  C   UNL     1       6.142   3.660   0.939  1.00  0.00     0.303 C 
ATOM      3  O   UNL     1       6.291   3.698   2.162  1.00  0.00    -0.252 OA
BRANCH   2   4
ATOM      4  O   UNL     1       6.771   4.664   0.187  1.00  0.00    -0.481 OA
ATOM      5  H   UNL     1       6.671   4.600  -0.815  1.00  0.00     0.296 HD
ENDBRANCH   2   4
ENDBRANCH   1   2
BRANCH   1   6
ATOM      6  C   UNL     1       5.395   1.320   0.825  1.00  0.00     0.047 C 
BRANCH   6   7
ATOM      7  C   UNL     1       6.236   0.301   0.193  1.00  0.00    -0.043 A 
ATOM      8  C   UNL     1       6.489   0.313  -1.170  1.00  0.00     0.008 A 
ATOM      9  C   UNL     1       6.769  -0.723   0.930  1.00  0.00     0.054 A 
ATOM     10  C   UNL     1       7.250  -0.665  -1.771  1.00  0.00     0.051 A 
ATOM     11  C   UNL     1       7.536  -1.715   0.349  1.00  0.00     0.166 A 
ATOM     12  C   UNL     1       7.779  -1.689  -1.003  1.00  0.00     0.165 A 
ATOM     13  O   UNL     1       8.165  -2.824   0.886  1.00  0.00    -0.454 OA
ATOM     14  O   UNL     1       8.570  -2.803  -1.292  1.00  0.00    -0.454 OA
ATOM     15  C   UNL     1       8.558  -3.685  -0.193  1.00  0.00     0.468 C 
ENDBRANCH   6   7
ENDBRANCH   1   6
TORSDOF 4
ENDMDL
