@<TRIPOS>MOLECULE
/home/cewinharhar/GITHUB/reincatalyze/data/processed/docking_pred/2023-May-17-1006_maxeplen10_maxtrainstep1000_seadep16_gamma099_lrac9e-4_lrcr1e-3_sub6/57f45ec83c8c38489066d898ddae0638f0802b8b_ligand_6.pdbqt
 15 16 0 0 0
SMALL
GASTEIGER

@<TRIPOS>ATOM
      1  C          8.2280   -0.2160   -2.8420 C.3     1  UNL1        0.1270
      2  C          8.4680   -1.6360   -3.0470 C.2     1  UNL1        0.3030
      3  O          9.5570   -2.2030   -2.9320 O.2     1  UNL1       -0.2520
      4  O          7.3690   -2.4310   -3.4080 O.3     1  UNL1       -0.4810
      5  H          6.7330   -2.6750   -2.6640 H       1  UNL1        0.2960
      6  C          8.6880    0.2870   -1.5300 C.3     1  UNL1        0.0470
      7  C          7.7440    0.2290   -0.4130 C.2     1  UNL1       -0.0430
      8  C          7.7870   -0.7950    0.5210 C.2     1  UNL1        0.0080
      9  C          6.7580    1.1710   -0.2800 C.2     1  UNL1        0.0540
     10  C          6.8770   -0.8700    1.5520 C.2     1  UNL1        0.0510
     11  C          5.8340    1.1160    0.7470 C.2     1  UNL1        0.1660
     12  C          5.8900    0.0960    1.6660 C.2     1  UNL1        0.1650
     13  O          4.7730    1.9420    1.0730 O.2     1  UNL1       -0.4540
     14  O          4.8440    0.3060    2.5650 O.2     1  UNL1       -0.4540
     15  C          3.9550    1.2620    2.0370 C.3     1  UNL1        0.4680
@<TRIPOS>BOND
     1     4     2    1
     2     4     5    1
     3     2     3    2
     4     2     1    1
     5     1     6    1
     6     6     7    1
     7     7     9    2
     8     7     8    1
     9     9    11    1
    10     8    10    2
    11    11    13    1
    12    11    12    2
    13    13    15    1
    14    10    12    1
    15    12    14    1
    16    15    14    1
