@<TRIPOS>MOLECULE
/home/cewinharhar/GITHUB/reincatalyze/data/processed/docking_pred/2023-May-17-1006_maxeplen10_maxtrainstep1000_seadep16_gamma099_lrac9e-4_lrcr1e-3_sub6/57f45ec83c8c38489066d898ddae0638f0802b8b_ligand_6.pdbqt
 15 16 0 0 0
SMALL
GASTEIGER

@<TRIPOS>ATOM
      1  C          4.7120    1.8940    0.6870 C.3     1  UNL1        0.1270
      2  C          4.4030    1.1750    1.9120 C.2     1  UNL1        0.3030
      3  O          5.1290    0.3400    2.4560 O.2     1  UNL1       -0.2520
      4  O          3.1740    1.4520    2.5310 O.3     1  UNL1       -0.4810
      5  H          3.1490    2.2650    3.1270 H       1  UNL1        0.2960
      6  C          6.1410    2.2450    0.5400 C.3     1  UNL1        0.0470
      7  C          6.9860    1.3310   -0.2320 C.2     1  UNL1       -0.0430
      8  C          8.3500    1.5400   -0.3600 C.2     1  UNL1        0.0080
      9  C          6.4420    0.2560   -0.8840 C.2     1  UNL1        0.0540
     10  C          9.1410    0.7020   -1.1150 C.2     1  UNL1        0.0510
     11  C          7.2160   -0.5980   -1.6470 C.2     1  UNL1        0.1660
     12  C          8.5670   -0.3790   -1.7640 C.2     1  UNL1        0.1650
     13  O          6.8890   -1.7260   -2.3800 O.2     1  UNL1       -0.4540
     14  O          9.0690   -1.3910   -2.5840 O.2     1  UNL1       -0.4540
     15  C          8.0020   -2.0490   -3.2270 C.3     1  UNL1        0.4680
@<TRIPOS>BOND
     1    15    14    1
     2    15    13    1
     3    14    12    1
     4    13    11    1
     5    12    11    2
     6    12    10    1
     7    11     9    1
     8    10     8    2
     9     9     7    2
    10     8     7    1
    11     7     6    1
    12     6     1    1
    13     1     2    1
    14     2     3    2
    15     2     4    1
    16     4     5    1
