@<TRIPOS>MOLECULE
/home/cewinharhar/GITHUB/reincatalyze/data/processed/docking_pred/2023-May-17-1006_maxeplen10_maxtrainstep1000_seadep16_gamma099_lrac9e-4_lrcr1e-3_sub6/59d8efee26bc15572bc8cf3b0279eede3143e347_ligand_6.pdbqt
 15 16 0 0 0
SMALL
GASTEIGER

@<TRIPOS>ATOM
      1  C          5.4170    2.7630    0.0980 C.3     1  UNL1        0.1270
      2  C          6.1440    3.7360    0.8980 C.2     1  UNL1        0.3030
      3  O          6.2310    3.7330    2.1270 O.2     1  UNL1       -0.2520
      4  O          6.8050    4.7680    0.2130 O.3     1  UNL1       -0.4810
      5  H          6.6900    5.6970    0.5900 H       1  UNL1        0.2960
      6  C          5.3620    1.4130    0.6990 C.3     1  UNL1        0.0470
      7  C          6.2110    0.3750    0.1110 C.2     1  UNL1       -0.0430
      8  C          6.4990    0.3560   -1.2450 C.2     1  UNL1        0.0080
      9  C          6.7170   -0.6370    0.8840 C.2     1  UNL1        0.0540
     10  C          7.2680   -0.6400   -1.8050 C.2     1  UNL1        0.0510
     11  C          7.4920   -1.6460    0.3430 C.2     1  UNL1        0.1660
     12  C          7.7700   -1.6510   -1.0020 C.2     1  UNL1        0.1650
     13  O          8.0980   -2.7480    0.9200 O.2     1  UNL1       -0.4540
     14  O          8.5590   -2.7760   -1.2460 O.2     1  UNL1       -0.4540
     15  C          8.5120   -3.6340   -0.1300 C.3     1  UNL1        0.4680
@<TRIPOS>BOND
     1    10     8    1
     2    10    12    2
     3    14    12    1
     4    14    15    1
     5     8     7    2
     6    12    11    1
     7    15    13    1
     8     1     6    1
     9     1     2    1
    10     7     6    1
    11     7     9    1
    12     4     5    1
    13     4     2    1
    14    11     9    2
    15    11    13    1
    16     2     3    2
