@<TRIPOS>MOLECULE
/home/cewinharhar/GITHUB/reincatalyze/data/processed/docking_pred/2023-May-17-1006_maxeplen10_maxtrainstep1000_seadep16_gamma099_lrac9e-4_lrcr1e-3_sub6/59d8efee26bc15572bc8cf3b0279eede3143e347_ligand_6.pdbqt
 15 16 0 0 0
SMALL
GASTEIGER

@<TRIPOS>ATOM
      1  C          4.7030    1.8810    0.6810 C.3     1  UNL1        0.1270
      2  C          4.3860    1.1730    1.9110 C.2     1  UNL1        0.3030
      3  O          5.1030    0.3340    2.4600 O.2     1  UNL1       -0.2520
      4  O          3.1610    1.4690    2.5280 O.3     1  UNL1       -0.4810
      5  H          2.7790    0.7520    3.1270 H       1  UNL1        0.2960
      6  C          6.1310    2.2360    0.5420 C.3     1  UNL1        0.0470
      7  C          6.9820    1.3290   -0.2320 C.2     1  UNL1       -0.0430
      8  C          8.3430    1.5520   -0.3680 C.2     1  UNL1        0.0080
      9  C          6.4450    0.2490   -0.8810 C.2     1  UNL1        0.0540
     10  C          9.1380    0.7200   -1.1260 C.2     1  UNL1        0.0510
     11  C          7.2230   -0.6000   -1.6460 C.2     1  UNL1        0.1660
     12  C          8.5710   -0.3670   -1.7710 C.2     1  UNL1        0.1650
     13  O          6.9040   -1.7310   -2.3760 O.2     1  UNL1       -0.4540
     14  O          9.0790   -1.3750   -2.5920 O.2     1  UNL1       -0.4540
     15  C          8.0160   -2.0450   -3.2280 C.3     1  UNL1        0.4680
@<TRIPOS>BOND
     1    15    14    1
     2    15    13    1
     3    14    12    1
     4    13    11    1
     5    12    11    2
     6    12    10    1
     7    11     9    1
     8    10     8    2
     9     9     7    2
    10     8     7    1
    11     7     6    1
    12     6     1    1
    13     1     2    1
    14     2     3    2
    15     2     4    1
    16     4     5    1
