@<TRIPOS>MOLECULE
/home/cewinharhar/GITHUB/reincatalyze/data/processed/docking_pred/2023-May-17-1006_maxeplen10_maxtrainstep1000_seadep16_gamma099_lrac9e-4_lrcr1e-3_sub6/59d8efee26bc15572bc8cf3b0279eede3143e347_ligand_6.pdbqt
 15 16 0 0 0
SMALL
GASTEIGER

@<TRIPOS>ATOM
      1  C          5.4270    2.8750    0.1200 C.3     1  UNL1        0.1270
      2  C          6.2490    3.8490    0.8200 C.2     1  UNL1        0.3030
      3  O          6.8730    4.7720    0.2930 O.2     1  UNL1       -0.2520
      4  O          6.3410    3.7300    2.2150 O.3     1  UNL1       -0.4810
      5  H          6.9870    4.3550    2.6740 H       1  UNL1        0.2960
      6  C          5.3490    1.5610    0.7930 C.3     1  UNL1        0.0470
      7  C          6.1310    0.4610    0.2240 C.2     1  UNL1       -0.0430
      8  C          6.6020   -0.5770    1.0130 C.2     1  UNL1        0.0080
      9  C          6.4540    0.4470   -1.1070 C.2     1  UNL1        0.0540
     10  C          7.3680   -1.5930    0.4860 C.2     1  UNL1        0.0510
     11  C          7.2200   -0.5630   -1.6580 C.2     1  UNL1        0.1660
     12  C          7.6800   -1.5860   -0.8640 C.2     1  UNL1        0.1650
     13  O          7.6610   -0.7800   -2.9510 O.2     1  UNL1       -0.4540
     14  O          8.4130   -2.4390   -1.6900 O.2     1  UNL1       -0.4540
     15  C          8.6750   -1.7960   -2.9160 C.3     1  UNL1        0.4680
@<TRIPOS>BOND
     1    13    15    1
     2    13    11    1
     3    15    14    1
     4    14    12    1
     5    11     9    1
     6    11    12    2
     7     9     7    2
     8    12    10    1
     9     1     6    1
    10     1     2    1
    11     7     6    1
    12     7     8    1
    13     3     2    2
    14    10     8    2
    15     2     4    1
    16     4     5    1
