@<TRIPOS>MOLECULE
/home/cewinharhar/GITHUB/reincatalyze/data/processed/docking_pred/2023-May-17-1006_maxeplen10_maxtrainstep1000_seadep16_gamma099_lrac9e-4_lrcr1e-3_sub6/59d8efee26bc15572bc8cf3b0279eede3143e347_ligand_6.pdbqt
 15 16 0 0 0
SMALL
GASTEIGER

@<TRIPOS>ATOM
      1  C          6.4190    1.3750    0.5860 C.3     1  UNL1        0.1270
      2  C          5.2220    1.3800    1.4120 C.2     1  UNL1        0.3030
      3  O          4.2750    2.1600    1.2980 O.2     1  UNL1       -0.2520
      4  O          5.1350    0.4140    2.4280 O.3     1  UNL1       -0.4810
      5  H          4.8220    0.7420    3.3280 H       1  UNL1        0.2960
      6  C          6.2040    0.8500   -0.7790 C.3     1  UNL1        0.0470
      7  C          6.9670   -0.3340   -1.1780 C.2     1  UNL1       -0.0430
      8  C          7.2860   -0.5780   -2.5050 C.2     1  UNL1        0.0080
      9  C          7.3570   -1.2610   -0.2480 C.2     1  UNL1        0.0540
     10  C          7.9720   -1.7100   -2.8860 C.2     1  UNL1        0.0510
     11  C          8.0480   -2.4040   -0.6070 C.2     1  UNL1        0.1660
     12  C          8.3570   -2.6320   -1.9260 C.2     1  UNL1        0.1650
     13  O          8.5340   -3.4580    0.1460 O.2     1  UNL1       -0.4540
     14  O          9.0440   -3.8460   -1.9740 O.2     1  UNL1       -0.4540
     15  C          8.8910   -4.5230   -0.7480 C.3     1  UNL1        0.4680
@<TRIPOS>BOND
     1    10     8    1
     2    10    12    2
     3     8     7    2
     4    14    12    1
     5    14    15    1
     6    12    11    1
     7     7     6    1
     8     7     9    1
     9     6     1    1
    10    15    13    1
    11    11     9    2
    12    11    13    1
    13     1     2    1
    14     3     2    2
    15     2     4    1
    16     4     5    1
