MODEL 1
REMARK VINA RESULT:      -7.7      0.000      0.000
REMARK SMILES O=C(O)CCc1ccc2c(c1)OCO2
REMARK SMILES IDX 4 1 2 2 1 3 3 4 5 6 6 7 7 8 11 9 8 10 10 11 9 12 12 13 14 14
REMARK SMILES IDX 13 15
REMARK H PARENT 3 5
REMARK Flexibility Score: inf
ROOT
ATOM      1  C   UNL     1       5.427   2.875   0.120  1.00  0.00     0.127 C 
ENDROOT
BRANCH   1   2
ATOM      2  C   UNL     1       6.249   3.849   0.820  1.00  0.00     0.303 C 
ATOM      3  O   UNL     1       6.873   4.772   0.293  1.00  0.00    -0.252 OA
BRANCH   2   4
ATOM      4  O   UNL     1       6.341   3.730   2.215  1.00  0.00    -0.481 OA
ATOM      5  H   UNL     1       6.987   4.355   2.674  1.00  0.00     0.296 HD
ENDBRANCH   2   4
ENDBRANCH   1   2
BRANCH   1   6
ATOM      6  C   UNL     1       5.349   1.561   0.793  1.00  0.00     0.047 C 
BRANCH   6   7
ATOM      7  C   UNL     1       6.131   0.461   0.224  1.00  0.00    -0.043 A 
ATOM      8  C   UNL     1       6.602  -0.577   1.013  1.00  0.00     0.008 A 
ATOM      9  C   UNL     1       6.454   0.447  -1.107  1.00  0.00     0.054 A 
ATOM     10  C   UNL     1       7.368  -1.593   0.486  1.00  0.00     0.051 A 
ATOM     11  C   UNL     1       7.220  -0.563  -1.658  1.00  0.00     0.166 A 
ATOM     12  C   UNL     1       7.680  -1.586  -0.864  1.00  0.00     0.165 A 
ATOM     13  O   UNL     1       7.661  -0.780  -2.951  1.00  0.00    -0.454 OA
ATOM     14  O   UNL     1       8.413  -2.439  -1.690  1.00  0.00    -0.454 OA
ATOM     15  C   UNL     1       8.675  -1.796  -2.916  1.00  0.00     0.468 C 
ENDBRANCH   6   7
ENDBRANCH   1   6
TORSDOF 4
ENDMDL
MODEL 2
REMARK VINA RESULT:      -7.6      2.119      2.505
REMARK SMILES O=C(O)CCc1ccc2c(c1)OCO2
REMARK SMILES IDX 4 1 2 2 1 3 3 4 5 6 6 7 7 8 11 9 8 10 10 11 9 12 12 13 14 14
REMARK SMILES IDX 13 15
REMARK H PARENT 3 5
REMARK Flexibility Score: inf
ROOT
ATOM      1  C   UNL     1       4.703   1.881   0.681  1.00  0.00     0.127 C 
ENDROOT
BRANCH   1   2
ATOM      2  C   UNL     1       4.386   1.173   1.911  1.00  0.00     0.303 C 
ATOM      3  O   UNL     1       5.103   0.334   2.460  1.00  0.00    -0.252 OA
BRANCH   2   4
ATOM      4  O   UNL     1       3.161   1.469   2.528  1.00  0.00    -0.481 OA
ATOM      5  H   UNL     1       2.779   0.752   3.127  1.00  0.00     0.296 HD
ENDBRANCH   2   4
ENDBRANCH   1   2
BRANCH   1   6
ATOM      6  C   UNL     1       6.131   2.236   0.542  1.00  0.00     0.047 C 
BRANCH   6   7
ATOM      7  C   UNL     1       6.982   1.329  -0.232  1.00  0.00    -0.043 A 
ATOM      8  C   UNL     1       8.343   1.552  -0.368  1.00  0.00     0.008 A 
ATOM      9  C   UNL     1       6.445   0.249  -0.881  1.00  0.00     0.054 A 
ATOM     10  C   UNL     1       9.138   0.720  -1.126  1.00  0.00     0.051 A 
ATOM     11  C   UNL     1       7.223  -0.600  -1.646  1.00  0.00     0.166 A 
ATOM     12  C   UNL     1       8.571  -0.367  -1.771  1.00  0.00     0.165 A 
ATOM     13  O   UNL     1       6.904  -1.731  -2.376  1.00  0.00    -0.454 OA
ATOM     14  O   UNL     1       9.079  -1.375  -2.592  1.00  0.00    -0.454 OA
ATOM     15  C   UNL     1       8.016  -2.045  -3.228  1.00  0.00     0.468 C 
ENDBRANCH   6   7
ENDBRANCH   1   6
TORSDOF 4
ENDMDL
MODEL 3
REMARK VINA RESULT:      -7.5      0.966      2.129
REMARK SMILES O=C(O)CCc1ccc2c(c1)OCO2
REMARK SMILES IDX 4 1 2 2 1 3 3 4 5 6 6 7 7 8 11 9 8 10 10 11 9 12 12 13 14 14
REMARK SMILES IDX 13 15
REMARK H PARENT 3 5
REMARK Flexibility Score: inf
ROOT
ATOM      1  C   UNL     1       5.417   2.763   0.098  1.00  0.00     0.127 C 
ENDROOT
BRANCH   1   2
ATOM      2  C   UNL     1       6.144   3.736   0.898  1.00  0.00     0.303 C 
ATOM      3  O   UNL     1       6.231   3.733   2.127  1.00  0.00    -0.252 OA
BRANCH   2   4
ATOM      4  O   UNL     1       6.805   4.768   0.213  1.00  0.00    -0.481 OA
ATOM      5  H   UNL     1       6.690   5.697   0.590  1.00  0.00     0.296 HD
ENDBRANCH   2   4
ENDBRANCH   1   2
BRANCH   1   6
ATOM      6  C   UNL     1       5.362   1.413   0.699  1.00  0.00     0.047 C 
BRANCH   6   7
ATOM      7  C   UNL     1       6.211   0.375   0.111  1.00  0.00    -0.043 A 
ATOM      8  C   UNL     1       6.499   0.356  -1.245  1.00  0.00     0.008 A 
ATOM      9  C   UNL     1       6.717  -0.637   0.884  1.00  0.00     0.054 A 
ATOM     10  C   UNL     1       7.268  -0.640  -1.805  1.00  0.00     0.051 A 
ATOM     11  C   UNL     1       7.492  -1.646   0.343  1.00  0.00     0.166 A 
ATOM     12  C   UNL     1       7.770  -1.651  -1.002  1.00  0.00     0.165 A 
ATOM     13  O   UNL     1       8.098  -2.748   0.920  1.00  0.00    -0.454 OA
ATOM     14  O   UNL     1       8.559  -2.776  -1.246  1.00  0.00    -0.454 OA
ATOM     15  C   UNL     1       8.512  -3.634  -0.130  1.00  0.00     0.468 C 
ENDBRANCH   6   7
ENDBRANCH   1   6
TORSDOF 4
ENDMDL
MODEL 4
REMARK VINA RESULT:      -7.5      1.947      2.855
REMARK SMILES O=C(O)CCc1ccc2c(c1)OCO2
REMARK SMILES IDX 4 1 2 2 1 3 3 4 5 6 6 7 7 8 11 9 8 10 10 11 9 12 12 13 14 14
REMARK SMILES IDX 13 15
REMARK H PARENT 3 5
REMARK Flexibility Score: inf
ROOT
ATOM      1  C   UNL     1       6.419   1.375   0.586  1.00  0.00     0.127 C 
ENDROOT
BRANCH   1   2
ATOM      2  C   UNL     1       5.222   1.380   1.412  1.00  0.00     0.303 C 
ATOM      3  O   UNL     1       4.275   2.160   1.298  1.00  0.00    -0.252 OA
BRANCH   2   4
ATOM      4  O   UNL     1       5.135   0.414   2.428  1.00  0.00    -0.481 OA
ATOM      5  H   UNL     1       4.822   0.742   3.328  1.00  0.00     0.296 HD
ENDBRANCH   2   4
ENDBRANCH   1   2
BRANCH   1   6
ATOM      6  C   UNL     1       6.204   0.850  -0.779  1.00  0.00     0.047 C 
BRANCH   6   7
ATOM      7  C   UNL     1       6.967  -0.334  -1.178  1.00  0.00    -0.043 A 
ATOM      8  C   UNL     1       7.286  -0.578  -2.505  1.00  0.00     0.008 A 
ATOM      9  C   UNL     1       7.357  -1.261  -0.248  1.00  0.00     0.054 A 
ATOM     10  C   UNL     1       7.972  -1.710  -2.886  1.00  0.00     0.051 A 
ATOM     11  C   UNL     1       8.048  -2.404  -0.607  1.00  0.00     0.166 A 
ATOM     12  C   UNL     1       8.357  -2.632  -1.926  1.00  0.00     0.165 A 
ATOM     13  O   UNL     1       8.534  -3.458   0.146  1.00  0.00    -0.454 OA
ATOM     14  O   UNL     1       9.044  -3.846  -1.974  1.00  0.00    -0.454 OA
ATOM     15  C   UNL     1       8.891  -4.523  -0.748  1.00  0.00     0.468 C 
ENDBRANCH   6   7
ENDBRANCH   1   6
TORSDOF 4
ENDMDL
MODEL 5
REMARK VINA RESULT:      -7.4      1.786      5.291
REMARK SMILES O=C(O)CCc1ccc2c(c1)OCO2
REMARK SMILES IDX 4 1 2 2 1 3 3 4 5 6 6 7 7 8 11 9 8 10 10 11 9 12 12 13 14 14
REMARK SMILES IDX 13 15
REMARK H PARENT 3 5
REMARK Flexibility Score: inf
ROOT
ATOM      1  C   UNL     1       8.325  -0.322  -2.842  1.00  0.00     0.127 C 
ENDROOT
BRANCH   1   2
ATOM      2  C   UNL     1       8.478  -1.750  -3.072  1.00  0.00     0.303 C 
ATOM      3  O   UNL     1       9.543  -2.370  -3.049  1.00  0.00    -0.252 OA
BRANCH   2   4
ATOM      4  O   UNL     1       7.315  -2.488  -3.342  1.00  0.00    -0.481 OA
ATOM      5  H   UNL     1       6.941  -3.026  -2.576  1.00  0.00     0.296 HD
ENDBRANCH   2   4
ENDBRANCH   1   2
BRANCH   1   6
ATOM      6  C   UNL     1       8.778   0.123  -1.507  1.00  0.00     0.047 C 
BRANCH   6   7
ATOM      7  C   UNL     1       7.804   0.087  -0.414  1.00  0.00    -0.043 A 
ATOM      8  C   UNL     1       7.736  -0.987   0.460  1.00  0.00     0.008 A 
ATOM      9  C   UNL     1       6.900   1.102  -0.248  1.00  0.00     0.054 A 
ATOM     10  C   UNL     1       6.797  -1.039   1.466  1.00  0.00     0.051 A 
ATOM     11  C   UNL     1       5.949   1.071   0.754  1.00  0.00     0.166 A 
ATOM     12  C   UNL     1       5.894   0.001   1.615  1.00  0.00     0.165 A 
ATOM     13  O   UNL     1       4.954   1.967   1.105  1.00  0.00    -0.454 OA
ATOM     14  O   UNL     1       4.847   0.252   2.503  1.00  0.00    -0.454 OA
ATOM     15  C   UNL     1       4.056   1.309   2.012  1.00  0.00     0.468 C 
ENDBRANCH   6   7
ENDBRANCH   1   6
TORSDOF 4
ENDMDL
