@<TRIPOS>MOLECULE
/home/cewinharhar/GITHUB/reincatalyze/data/processed/docking_pred/2023-May-17-1006_maxeplen10_maxtrainstep1000_seadep16_gamma099_lrac9e-4_lrcr1e-3_sub6/59d8efee26bc15572bc8cf3b0279eede3143e347_ligand_6.pdbqt
 15 16 0 0 0
SMALL
GASTEIGER

@<TRIPOS>ATOM
      1  C          8.3250   -0.3220   -2.8420 C.3     1  UNL1        0.1270
      2  C          8.4780   -1.7500   -3.0720 C.2     1  UNL1        0.3030
      3  O          9.5430   -2.3700   -3.0490 O.2     1  UNL1       -0.2520
      4  O          7.3150   -2.4880   -3.3420 O.3     1  UNL1       -0.4810
      5  H          6.9410   -3.0260   -2.5760 H       1  UNL1        0.2960
      6  C          8.7780    0.1230   -1.5070 C.3     1  UNL1        0.0470
      7  C          7.8040    0.0870   -0.4140 C.2     1  UNL1       -0.0430
      8  C          7.7360   -0.9870    0.4600 C.2     1  UNL1        0.0080
      9  C          6.9000    1.1020   -0.2480 C.2     1  UNL1        0.0540
     10  C          6.7970   -1.0390    1.4660 C.2     1  UNL1        0.0510
     11  C          5.9490    1.0710    0.7540 C.2     1  UNL1        0.1660
     12  C          5.8940    0.0010    1.6150 C.2     1  UNL1        0.1650
     13  O          4.9540    1.9670    1.1050 O.2     1  UNL1       -0.4540
     14  O          4.8470    0.2520    2.5030 O.2     1  UNL1       -0.4540
     15  C          4.0560    1.3090    2.0120 C.3     1  UNL1        0.4680
@<TRIPOS>BOND
     1     4     2    1
     2     4     5    1
     3     2     3    2
     4     2     1    1
     5     1     6    1
     6     6     7    1
     7     7     9    2
     8     7     8    1
     9     9    11    1
    10     8    10    2
    11    11    13    1
    12    11    12    2
    13    13    15    1
    14    10    12    1
    15    12    14    1
    16    15    14    1
