MODEL 1
REMARK VINA RESULT:      -7.6      0.000      0.000
REMARK SMILES O=C(O)CCc1ccc2c(c1)OCO2
REMARK SMILES IDX 4 1 2 2 1 3 3 4 5 6 6 7 7 8 11 9 8 10 10 11 9 12 12 13 14 14
REMARK SMILES IDX 13 15
REMARK H PARENT 3 5
REMARK Flexibility Score: inf
ROOT
ATOM      1  C   UNL     1       5.411   2.865   0.134  1.00  0.00     0.127 C 
ENDROOT
BRANCH   1   2
ATOM      2  C   UNL     1       6.241   3.845   0.817  1.00  0.00     0.303 C 
ATOM      3  O   UNL     1       6.871   4.754   0.274  1.00  0.00    -0.252 OA
BRANCH   2   4
ATOM      4  O   UNL     1       6.333   3.750   2.215  1.00  0.00    -0.481 OA
ATOM      5  H   UNL     1       5.930   2.925   2.632  1.00  0.00     0.296 HD
ENDBRANCH   2   4
ENDBRANCH   1   2
BRANCH   1   6
ATOM      6  C   UNL     1       5.344   1.555   0.817  1.00  0.00     0.047 C 
BRANCH   6   7
ATOM      7  C   UNL     1       6.123   0.454   0.248  1.00  0.00    -0.043 A 
ATOM      8  C   UNL     1       6.594  -0.584   1.037  1.00  0.00     0.008 A 
ATOM      9  C   UNL     1       6.443   0.438  -1.084  1.00  0.00     0.054 A 
ATOM     10  C   UNL     1       7.358  -1.602   0.509  1.00  0.00     0.051 A 
ATOM     11  C   UNL     1       7.206  -0.573  -1.635  1.00  0.00     0.166 A 
ATOM     12  C   UNL     1       7.666  -1.596  -0.842  1.00  0.00     0.165 A 
ATOM     13  O   UNL     1       7.644  -0.792  -2.930  1.00  0.00    -0.454 OA
ATOM     14  O   UNL     1       8.396  -2.451  -1.669  1.00  0.00    -0.454 OA
ATOM     15  C   UNL     1       8.657  -1.810  -2.896  1.00  0.00     0.468 C 
ENDBRANCH   6   7
ENDBRANCH   1   6
TORSDOF 4
ENDMDL
MODEL 2
REMARK VINA RESULT:      -7.6      2.132      2.515
REMARK SMILES O=C(O)CCc1ccc2c(c1)OCO2
REMARK SMILES IDX 4 1 2 2 1 3 3 4 5 6 6 7 7 8 11 9 8 10 10 11 9 12 12 13 14 14
REMARK SMILES IDX 13 15
REMARK H PARENT 3 5
REMARK Flexibility Score: inf
ROOT
ATOM      1  C   UNL     1       4.728   1.862   0.717  1.00  0.00     0.127 C 
ENDROOT
BRANCH   1   2
ATOM      2  C   UNL     1       4.416   1.133   1.936  1.00  0.00     0.303 C 
ATOM      3  O   UNL     1       5.140   0.292   2.474  1.00  0.00    -0.252 OA
BRANCH   2   4
ATOM      4  O   UNL     1       3.187   1.408   2.555  1.00  0.00    -0.481 OA
ATOM      5  H   UNL     1       2.653   0.608   2.859  1.00  0.00     0.296 HD
ENDBRANCH   2   4
ENDBRANCH   1   2
BRANCH   1   6
ATOM      6  C   UNL     1       6.158   2.210   0.574  1.00  0.00     0.047 C 
BRANCH   6   7
ATOM      7  C   UNL     1       7.000   1.305  -0.212  1.00  0.00    -0.043 A 
ATOM      8  C   UNL     1       8.361   1.524  -0.356  1.00  0.00     0.008 A 
ATOM      9  C   UNL     1       6.455   0.231  -0.864  1.00  0.00     0.054 A 
ATOM     10  C   UNL     1       9.148   0.695  -1.124  1.00  0.00     0.051 A 
ATOM     11  C   UNL     1       7.224  -0.614  -1.640  1.00  0.00     0.166 A 
ATOM     12  C   UNL     1       8.573  -0.386  -1.773  1.00  0.00     0.165 A 
ATOM     13  O   UNL     1       6.896  -1.740  -2.376  1.00  0.00    -0.454 OA
ATOM     14  O   UNL     1       9.072  -1.390  -2.604  1.00  0.00    -0.454 OA
ATOM     15  C   UNL     1       8.001  -2.052  -3.237  1.00  0.00     0.468 C 
ENDBRANCH   6   7
ENDBRANCH   1   6
TORSDOF 4
ENDMDL
MODEL 3
REMARK VINA RESULT:      -7.5      1.974      2.887
REMARK SMILES O=C(O)CCc1ccc2c(c1)OCO2
REMARK SMILES IDX 4 1 2 2 1 3 3 4 5 6 6 7 7 8 11 9 8 10 10 11 9 12 12 13 14 14
REMARK SMILES IDX 13 15
REMARK H PARENT 3 5
REMARK Flexibility Score: inf
ROOT
ATOM      1  C   UNL     1       6.426   1.317   0.693  1.00  0.00     0.127 C 
ENDROOT
BRANCH   1   2
ATOM      2  C   UNL     1       5.188   1.309   1.458  1.00  0.00     0.303 C 
ATOM      3  O   UNL     1       4.255   2.101   1.320  1.00  0.00    -0.252 OA
BRANCH   2   4
ATOM      4  O   UNL     1       5.043   0.314   2.438  1.00  0.00    -0.481 OA
ATOM      5  H   UNL     1       4.122  -0.086   2.533  1.00  0.00     0.296 HD
ENDBRANCH   2   4
ENDBRANCH   1   2
BRANCH   1   6
ATOM      6  C   UNL     1       6.271   0.858  -0.704  1.00  0.00     0.047 C 
BRANCH   6   7
ATOM      7  C   UNL     1       7.010  -0.340  -1.109  1.00  0.00    -0.043 A 
ATOM      8  C   UNL     1       7.299  -0.597  -2.440  1.00  0.00     0.008 A 
ATOM      9  C   UNL     1       7.405  -1.266  -0.180  1.00  0.00     0.054 A 
ATOM     10  C   UNL     1       7.962  -1.741  -2.826  1.00  0.00     0.051 A 
ATOM     11  C   UNL     1       8.072  -2.420  -0.544  1.00  0.00     0.166 A 
ATOM     12  C   UNL     1       8.353  -2.662  -1.867  1.00  0.00     0.165 A 
ATOM     13  O   UNL     1       8.558  -3.476   0.207  1.00  0.00    -0.454 OA
ATOM     14  O   UNL     1       9.021  -3.886  -1.920  1.00  0.00    -0.454 OA
ATOM     15  C   UNL     1       8.881  -4.552  -0.686  1.00  0.00     0.468 C 
ENDBRANCH   6   7
ENDBRANCH   1   6
TORSDOF 4
ENDMDL
MODEL 4
REMARK VINA RESULT:      -7.4      1.783      5.284
REMARK SMILES O=C(O)CCc1ccc2c(c1)OCO2
REMARK SMILES IDX 4 1 2 2 1 3 3 4 5 6 6 7 7 8 11 9 8 10 10 11 9 12 12 13 14 14
REMARK SMILES IDX 13 15
REMARK H PARENT 3 5
REMARK Flexibility Score: inf
ROOT
ATOM      1  C   UNL     1       8.301  -0.323  -2.869  1.00  0.00     0.127 C 
ENDROOT
BRANCH   1   2
ATOM      2  C   UNL     1       8.467  -1.752  -3.079  1.00  0.00     0.303 C 
ATOM      3  O   UNL     1       9.535  -2.365  -3.035  1.00  0.00    -0.252 OA
BRANCH   2   4
ATOM      4  O   UNL     1       7.312  -2.501  -3.357  1.00  0.00    -0.481 OA
ATOM      5  H   UNL     1       7.460  -3.432  -3.715  1.00  0.00     0.296 HD
ENDBRANCH   2   4
ENDBRANCH   1   2
BRANCH   1   6
ATOM      6  C   UNL     1       8.753   0.145  -1.541  1.00  0.00     0.047 C 
BRANCH   6   7
ATOM      7  C   UNL     1       7.785   0.103  -0.443  1.00  0.00    -0.043 A 
ATOM      8  C   UNL     1       7.733  -0.966   0.438  1.00  0.00     0.008 A 
ATOM      9  C   UNL     1       6.871   1.110  -0.278  1.00  0.00     0.054 A 
ATOM     10  C   UNL     1       6.799  -1.023   1.448  1.00  0.00     0.051 A 
ATOM     11  C   UNL     1       5.925   1.074   0.730  1.00  0.00     0.166 A 
ATOM     12  C   UNL     1       5.886   0.008   1.596  1.00  0.00     0.165 A 
ATOM     13  O   UNL     1       4.923   1.961   1.081  1.00  0.00    -0.454 OA
ATOM     14  O   UNL     1       4.841   0.253   2.489  1.00  0.00    -0.454 OA
ATOM     15  C   UNL     1       4.037   1.299   1.996  1.00  0.00     0.468 C 
ENDBRANCH   6   7
ENDBRANCH   1   6
TORSDOF 4
ENDMDL
MODEL 5
REMARK VINA RESULT:      -7.4      0.992      2.136
REMARK SMILES O=C(O)CCc1ccc2c(c1)OCO2
REMARK SMILES IDX 4 1 2 2 1 3 3 4 5 6 6 7 7 8 11 9 8 10 10 11 9 12 12 13 14 14
REMARK SMILES IDX 13 15
REMARK H PARENT 3 5
REMARK Flexibility Score: inf
ROOT
ATOM      1  C   UNL     1       5.444   2.631   0.097  1.00  0.00     0.127 C 
ENDROOT
BRANCH   1   2
ATOM      2  C   UNL     1       6.116   3.674   0.857  1.00  0.00     0.303 C 
ATOM      3  O   UNL     1       6.114   3.781   2.085  1.00  0.00    -0.252 OA
BRANCH   2   4
ATOM      4  O   UNL     1       6.829   4.641   0.132  1.00  0.00    -0.481 OA
ATOM      5  H   UNL     1       6.344   5.063  -0.645  1.00  0.00     0.296 HD
ENDBRANCH   2   4
ENDBRANCH   1   2
BRANCH   1   6
ATOM      6  C   UNL     1       5.468   1.304   0.747  1.00  0.00     0.047 C 
BRANCH   6   7
ATOM      7  C   UNL     1       6.292   0.262   0.130  1.00  0.00    -0.043 A 
ATOM      8  C   UNL     1       6.516   0.231  -1.238  1.00  0.00     0.008 A 
ATOM      9  C   UNL     1       6.836  -0.741   0.887  1.00  0.00     0.054 A 
ATOM     10  C   UNL     1       7.260  -0.768  -1.824  1.00  0.00     0.051 A 
ATOM     11  C   UNL     1       7.587  -1.753   0.321  1.00  0.00     0.166 A 
ATOM     12  C   UNL     1       7.802  -1.771  -1.036  1.00  0.00     0.165 A 
ATOM     13  O   UNL     1       8.223  -2.848   0.879  1.00  0.00    -0.454 OA
ATOM     14  O   UNL     1       8.582  -2.896  -1.306  1.00  0.00    -0.454 OA
ATOM     15  C   UNL     1       8.590  -3.744  -0.181  1.00  0.00     0.468 C 
ENDBRANCH   6   7
ENDBRANCH   1   6
TORSDOF 4
ENDMDL
