@<TRIPOS>MOLECULE
/home/cewinharhar/GITHUB/reincatalyze/data/processed/docking_pred/2023-May-17-1006_maxeplen10_maxtrainstep1000_seadep16_gamma099_lrac9e-4_lrcr1e-3_sub6/5ba5439e64352188cd964ddb86dd28d806e95272_ligand_6.pdbqt
 15 16 0 0 0
SMALL
GASTEIGER

@<TRIPOS>ATOM
      1  C          5.4440    2.6310    0.0970 C.3     1  UNL1        0.1270
      2  C          6.1160    3.6740    0.8570 C.2     1  UNL1        0.3030
      3  O          6.1140    3.7810    2.0850 O.2     1  UNL1       -0.2520
      4  O          6.8290    4.6410    0.1320 O.3     1  UNL1       -0.4810
      5  H          6.3440    5.0630   -0.6450 H       1  UNL1        0.2960
      6  C          5.4680    1.3040    0.7470 C.3     1  UNL1        0.0470
      7  C          6.2920    0.2620    0.1300 C.2     1  UNL1       -0.0430
      8  C          6.5160    0.2310   -1.2380 C.2     1  UNL1        0.0080
      9  C          6.8360   -0.7410    0.8870 C.2     1  UNL1        0.0540
     10  C          7.2600   -0.7680   -1.8240 C.2     1  UNL1        0.0510
     11  C          7.5870   -1.7530    0.3210 C.2     1  UNL1        0.1660
     12  C          7.8020   -1.7710   -1.0360 C.2     1  UNL1        0.1650
     13  O          8.2230   -2.8480    0.8790 O.2     1  UNL1       -0.4540
     14  O          8.5820   -2.8960   -1.3060 O.2     1  UNL1       -0.4540
     15  C          8.5900   -3.7440   -0.1810 C.3     1  UNL1        0.4680
@<TRIPOS>BOND
     1    10     8    1
     2    10    12    2
     3    14    12    1
     4    14    15    1
     5     8     7    2
     6    12    11    1
     7     5     4    1
     8    15    13    1
     9     1     6    1
    10     1     2    1
    11     7     6    1
    12     7     9    1
    13     4     2    1
    14    11    13    1
    15    11     9    2
    16     2     3    2
