@<TRIPOS>MOLECULE
/home/cewinharhar/GITHUB/reincatalyze/data/processed/docking_pred/2023-May-17-1006_maxeplen10_maxtrainstep1000_seadep16_gamma099_lrac9e-4_lrcr1e-3_sub6/5ba5439e64352188cd964ddb86dd28d806e95272_ligand_6.pdbqt
 15 16 0 0 0
SMALL
GASTEIGER

@<TRIPOS>ATOM
      1  C          6.4260    1.3170    0.6930 C.3     1  UNL1        0.1270
      2  C          5.1880    1.3090    1.4580 C.2     1  UNL1        0.3030
      3  O          4.2550    2.1010    1.3200 O.2     1  UNL1       -0.2520
      4  O          5.0430    0.3140    2.4380 O.3     1  UNL1       -0.4810
      5  H          4.1220   -0.0860    2.5330 H       1  UNL1        0.2960
      6  C          6.2710    0.8580   -0.7040 C.3     1  UNL1        0.0470
      7  C          7.0100   -0.3400   -1.1090 C.2     1  UNL1       -0.0430
      8  C          7.2990   -0.5970   -2.4400 C.2     1  UNL1        0.0080
      9  C          7.4050   -1.2660   -0.1800 C.2     1  UNL1        0.0540
     10  C          7.9620   -1.7410   -2.8260 C.2     1  UNL1        0.0510
     11  C          8.0720   -2.4200   -0.5440 C.2     1  UNL1        0.1660
     12  C          8.3530   -2.6620   -1.8670 C.2     1  UNL1        0.1650
     13  O          8.5580   -3.4760    0.2070 O.2     1  UNL1       -0.4540
     14  O          9.0210   -3.8860   -1.9200 O.2     1  UNL1       -0.4540
     15  C          8.8810   -4.5520   -0.6860 C.3     1  UNL1        0.4680
@<TRIPOS>BOND
     1    10     8    1
     2    10    12    2
     3     8     7    2
     4    14    12    1
     5    14    15    1
     6    12    11    1
     7     7     6    1
     8     7     9    1
     9     6     1    1
    10    15    13    1
    11    11     9    2
    12    11    13    1
    13     1     2    1
    14     3     2    2
    15     2     4    1
    16     4     5    1
