@<TRIPOS>MOLECULE
/home/cewinharhar/GITHUB/reincatalyze/data/processed/docking_pred/2023-May-17-1006_maxeplen10_maxtrainstep1000_seadep16_gamma099_lrac9e-4_lrcr1e-3_sub6/5ba5439e64352188cd964ddb86dd28d806e95272_ligand_6.pdbqt
 15 16 0 0 0
SMALL
GASTEIGER

@<TRIPOS>ATOM
      1  C          8.3010   -0.3230   -2.8690 C.3     1  UNL1        0.1270
      2  C          8.4670   -1.7520   -3.0790 C.2     1  UNL1        0.3030
      3  O          9.5350   -2.3650   -3.0350 O.2     1  UNL1       -0.2520
      4  O          7.3120   -2.5010   -3.3570 O.3     1  UNL1       -0.4810
      5  H          7.4600   -3.4320   -3.7150 H       1  UNL1        0.2960
      6  C          8.7530    0.1450   -1.5410 C.3     1  UNL1        0.0470
      7  C          7.7850    0.1030   -0.4430 C.2     1  UNL1       -0.0430
      8  C          7.7330   -0.9660    0.4380 C.2     1  UNL1        0.0080
      9  C          6.8710    1.1100   -0.2780 C.2     1  UNL1        0.0540
     10  C          6.7990   -1.0230    1.4480 C.2     1  UNL1        0.0510
     11  C          5.9250    1.0740    0.7300 C.2     1  UNL1        0.1660
     12  C          5.8860    0.0080    1.5960 C.2     1  UNL1        0.1650
     13  O          4.9230    1.9610    1.0810 O.2     1  UNL1       -0.4540
     14  O          4.8410    0.2530    2.4890 O.2     1  UNL1       -0.4540
     15  C          4.0370    1.2990    1.9960 C.3     1  UNL1        0.4680
@<TRIPOS>BOND
     1     5     4    1
     2     4     2    1
     3     2     3    2
     4     2     1    1
     5     1     6    1
     6     6     7    1
     7     7     9    2
     8     7     8    1
     9     9    11    1
    10     8    10    2
    11    11    13    1
    12    11    12    2
    13    13    15    1
    14    10    12    1
    15    12    14    1
    16    15    14    1
