@<TRIPOS>MOLECULE
/home/cewinharhar/GITHUB/reincatalyze/data/processed/docking_pred/2023-May-17-1006_maxeplen10_maxtrainstep1000_seadep16_gamma099_lrac9e-4_lrcr1e-3_sub6/5ba5439e64352188cd964ddb86dd28d806e95272_ligand_6.pdbqt
 15 16 0 0 0
SMALL
GASTEIGER

@<TRIPOS>ATOM
      1  C          4.7280    1.8620    0.7170 C.3     1  UNL1        0.1270
      2  C          4.4160    1.1330    1.9360 C.2     1  UNL1        0.3030
      3  O          5.1400    0.2920    2.4740 O.2     1  UNL1       -0.2520
      4  O          3.1870    1.4080    2.5550 O.3     1  UNL1       -0.4810
      5  H          2.6530    0.6080    2.8590 H       1  UNL1        0.2960
      6  C          6.1580    2.2100    0.5740 C.3     1  UNL1        0.0470
      7  C          7.0000    1.3050   -0.2120 C.2     1  UNL1       -0.0430
      8  C          8.3610    1.5240   -0.3560 C.2     1  UNL1        0.0080
      9  C          6.4550    0.2310   -0.8640 C.2     1  UNL1        0.0540
     10  C          9.1480    0.6950   -1.1240 C.2     1  UNL1        0.0510
     11  C          7.2240   -0.6140   -1.6400 C.2     1  UNL1        0.1660
     12  C          8.5730   -0.3860   -1.7730 C.2     1  UNL1        0.1650
     13  O          6.8960   -1.7400   -2.3760 O.2     1  UNL1       -0.4540
     14  O          9.0720   -1.3900   -2.6040 O.2     1  UNL1       -0.4540
     15  C          8.0010   -2.0520   -3.2370 C.3     1  UNL1        0.4680
@<TRIPOS>BOND
     1    15    14    1
     2    15    13    1
     3    14    12    1
     4    13    11    1
     5    12    11    2
     6    12    10    1
     7    11     9    1
     8    10     8    2
     9     9     7    2
    10     8     7    1
    11     7     6    1
    12     6     1    1
    13     1     2    1
    14     2     3    2
    15     2     4    1
    16     4     5    1
