@<TRIPOS>MOLECULE
/home/cewinharhar/GITHUB/reincatalyze/data/processed/docking_pred/2023-May-17-1006_maxeplen10_maxtrainstep1000_seadep16_gamma099_lrac9e-4_lrcr1e-3_sub6/5ba5439e64352188cd964ddb86dd28d806e95272_ligand_6.pdbqt
 15 16 0 0 0
SMALL
GASTEIGER

@<TRIPOS>ATOM
      1  C          5.4110    2.8650    0.1340 C.3     1  UNL1        0.1270
      2  C          6.2410    3.8450    0.8170 C.2     1  UNL1        0.3030
      3  O          6.8710    4.7540    0.2740 O.2     1  UNL1       -0.2520
      4  O          6.3330    3.7500    2.2150 O.3     1  UNL1       -0.4810
      5  H          5.9300    2.9250    2.6320 H       1  UNL1        0.2960
      6  C          5.3440    1.5550    0.8170 C.3     1  UNL1        0.0470
      7  C          6.1230    0.4540    0.2480 C.2     1  UNL1       -0.0430
      8  C          6.5940   -0.5840    1.0370 C.2     1  UNL1        0.0080
      9  C          6.4430    0.4380   -1.0840 C.2     1  UNL1        0.0540
     10  C          7.3580   -1.6020    0.5090 C.2     1  UNL1        0.0510
     11  C          7.2060   -0.5730   -1.6350 C.2     1  UNL1        0.1660
     12  C          7.6660   -1.5960   -0.8420 C.2     1  UNL1        0.1650
     13  O          7.6440   -0.7920   -2.9300 O.2     1  UNL1       -0.4540
     14  O          8.3960   -2.4510   -1.6690 O.2     1  UNL1       -0.4540
     15  C          8.6570   -1.8100   -2.8960 C.3     1  UNL1        0.4680
@<TRIPOS>BOND
     1    13    15    1
     2    13    11    1
     3    15    14    1
     4    14    12    1
     5    11     9    1
     6    11    12    2
     7     9     7    2
     8    12    10    1
     9     1     2    1
    10     1     6    1
    11     7     6    1
    12     7     8    1
    13     3     2    2
    14    10     8    2
    15     2     4    1
    16     4     5    1
