@<TRIPOS>MOLECULE
/home/cewinharhar/GITHUB/reincatalyze/data/processed/docking_pred/2023-May-17-1006_maxeplen10_maxtrainstep1000_seadep16_gamma099_lrac9e-4_lrcr1e-3_sub6/5bd4159c0713ad18fb2d2a846002564f6b7df27c_ligand_6.pdbqt
 15 16 0 0 0
SMALL
GASTEIGER

@<TRIPOS>ATOM
      1  C          5.3960    2.8730    0.1220 C.3     1  UNL1        0.1270
      2  C          6.2260    3.8470    0.8140 C.2     1  UNL1        0.3030
      3  O          6.8380    4.7740    0.2820 O.2     1  UNL1       -0.2520
      4  O          6.3400    3.7210    2.2070 O.3     1  UNL1       -0.4810
      5  H          7.2690    3.5590    2.5650 H       1  UNL1        0.2960
      6  C          5.3160    1.5620    0.8000 C.3     1  UNL1        0.0470
      7  C          6.0880    0.4560    0.2300 C.2     1  UNL1       -0.0430
      8  C          6.5030   -0.6140    1.0070 C.2     1  UNL1        0.0080
      9  C          6.4590    0.4680   -1.0890 C.2     1  UNL1        0.0540
     10  C          7.2610   -1.6370    0.4800 C.2     1  UNL1        0.0510
     11  C          7.2180   -0.5470   -1.6390 C.2     1  UNL1        0.1660
     12  C          7.6220   -1.6030   -0.8570 C.2     1  UNL1        0.1650
     13  O          7.7000   -0.7430   -2.9210 O.2     1  UNL1       -0.4540
     14  O          8.3620   -2.4540   -1.6790 O.2     1  UNL1       -0.4540
     15  C          8.6850   -1.7860   -2.8770 C.3     1  UNL1        0.4680
@<TRIPOS>BOND
     1    13    15    1
     2    13    11    1
     3    15    14    1
     4    14    12    1
     5    11     9    1
     6    11    12    2
     7     9     7    2
     8    12    10    1
     9     1     6    1
    10     1     2    1
    11     7     6    1
    12     7     8    1
    13     3     2    2
    14    10     8    2
    15     2     4    1
    16     4     5    1
