@<TRIPOS>MOLECULE
/home/cewinharhar/GITHUB/reincatalyze/data/processed/docking_pred/2023-May-17-1006_maxeplen10_maxtrainstep1000_seadep16_gamma099_lrac9e-4_lrcr1e-3_sub6/5bd4159c0713ad18fb2d2a846002564f6b7df27c_ligand_6.pdbqt
 15 16 0 0 0
SMALL
GASTEIGER

@<TRIPOS>ATOM
      1  C          5.3960    2.8330    0.3710 C.3     1  UNL1        0.1270
      2  C          6.2440    3.7790    1.0800 C.2     1  UNL1        0.3030
      3  O          6.4570    3.7820    2.2930 O.2     1  UNL1       -0.2520
      4  O          6.8750    4.7750    0.3180 O.3     1  UNL1       -0.4810
      5  H          6.2880    5.2800   -0.3280 H       1  UNL1        0.2960
      6  C          5.3940    1.4750    0.9550 C.3     1  UNL1        0.0470
      7  C          6.2000    0.4490    0.2890 C.2     1  UNL1       -0.0430
      8  C          6.4010    0.4630   -1.0830 C.2     1  UNL1        0.0080
      9  C          6.7500   -0.5820    1.0020 C.2     1  UNL1        0.0540
     10  C          7.1280   -0.5200   -1.7160 C.2     1  UNL1        0.0510
     11  C          7.4840   -1.5800    0.3890 C.2     1  UNL1        0.1660
     12  C          7.6760   -1.5520   -0.9710 C.2     1  UNL1        0.1650
     13  O          8.1220   -2.6970    0.8990 O.2     1  UNL1       -0.4540
     14  O          8.4430   -2.6730   -1.2930 O.2     1  UNL1       -0.4540
     15  C          8.4650   -3.5580   -0.1970 C.3     1  UNL1        0.4680
@<TRIPOS>BOND
     1    10     8    1
     2    10    12    2
     3    14    12    1
     4    14    15    1
     5     8     7    2
     6    12    11    1
     7     5     4    1
     8    15    13    1
     9     7     6    1
    10     7     9    1
    11     4     2    1
    12     1     6    1
    13     1     2    1
    14    11    13    1
    15    11     9    2
    16     2     3    2
