@<TRIPOS>MOLECULE
/home/cewinharhar/GITHUB/reincatalyze/data/processed/docking_pred/2023-May-17-1006_maxeplen10_maxtrainstep1000_seadep16_gamma099_lrac9e-4_lrcr1e-3_sub6/5bd4159c0713ad18fb2d2a846002564f6b7df27c_ligand_6.pdbqt
 15 16 0 0 0
SMALL
GASTEIGER

@<TRIPOS>ATOM
      1  C          6.3770    1.3200    0.6720 C.3     1  UNL1        0.1270
      2  C          5.1850    1.2720    1.5050 C.2     1  UNL1        0.3030
      3  O          4.2350    2.0550    1.4440 O.2     1  UNL1       -0.2520
      4  O          5.1080    0.2470    2.4610 O.3     1  UNL1       -0.4810
      5  H          4.1850    0.0250    2.8020 H       1  UNL1        0.2960
      6  C          6.1590    0.8530   -0.7140 C.3     1  UNL1        0.0470
      7  C          6.9410   -0.2980   -1.1710 C.2     1  UNL1       -0.0430
      8  C          7.2730   -0.4640   -2.5070 C.2     1  UNL1        0.0080
      9  C          7.3360   -1.2700   -0.2910 C.2     1  UNL1        0.0540
     10  C          7.9770   -1.5640   -2.9440 C.2     1  UNL1        0.0510
     11  C          8.0430   -2.3820   -0.7070 C.2     1  UNL1        0.1660
     12  C          8.3660   -2.5330   -2.0340 C.2     1  UNL1        0.1650
     13  O          8.5370   -3.4700   -0.0090 O.2     1  UNL1       -0.4540
     14  O          9.0690   -3.7340   -2.1430 O.2     1  UNL1       -0.4540
     15  C          8.9140   -4.4800   -0.9580 C.3     1  UNL1        0.4680
@<TRIPOS>BOND
     1    10     8    1
     2    10    12    2
     3     8     7    2
     4    14    12    1
     5    14    15    1
     6    12    11    1
     7     7     6    1
     8     7     9    1
     9    15    13    1
    10     6     1    1
    11    11     9    2
    12    11    13    1
    13     1     2    1
    14     3     2    2
    15     2     4    1
    16     4     5    1
