MODEL 1
REMARK VINA RESULT:      -7.6      0.000      0.000
REMARK SMILES O=C(O)CCc1ccc2c(c1)OCO2
REMARK SMILES IDX 4 1 2 2 1 3 3 4 5 6 6 7 7 8 11 9 8 10 10 11 9 12 12 13 14 14
REMARK SMILES IDX 13 15
REMARK H PARENT 3 5
REMARK Flexibility Score: inf
ROOT
ATOM      1  C   UNL     1       5.396   2.873   0.122  1.00  0.00     0.127 C 
ENDROOT
BRANCH   1   2
ATOM      2  C   UNL     1       6.226   3.847   0.814  1.00  0.00     0.303 C 
ATOM      3  O   UNL     1       6.838   4.774   0.282  1.00  0.00    -0.252 OA
BRANCH   2   4
ATOM      4  O   UNL     1       6.340   3.721   2.207  1.00  0.00    -0.481 OA
ATOM      5  H   UNL     1       7.269   3.559   2.565  1.00  0.00     0.296 HD
ENDBRANCH   2   4
ENDBRANCH   1   2
BRANCH   1   6
ATOM      6  C   UNL     1       5.316   1.562   0.800  1.00  0.00     0.047 C 
BRANCH   6   7
ATOM      7  C   UNL     1       6.088   0.456   0.230  1.00  0.00    -0.043 A 
ATOM      8  C   UNL     1       6.503  -0.614   1.007  1.00  0.00     0.008 A 
ATOM      9  C   UNL     1       6.459   0.468  -1.089  1.00  0.00     0.054 A 
ATOM     10  C   UNL     1       7.261  -1.637   0.480  1.00  0.00     0.051 A 
ATOM     11  C   UNL     1       7.218  -0.547  -1.639  1.00  0.00     0.166 A 
ATOM     12  C   UNL     1       7.622  -1.603  -0.857  1.00  0.00     0.165 A 
ATOM     13  O   UNL     1       7.700  -0.743  -2.921  1.00  0.00    -0.454 OA
ATOM     14  O   UNL     1       8.362  -2.454  -1.679  1.00  0.00    -0.454 OA
ATOM     15  C   UNL     1       8.685  -1.786  -2.877  1.00  0.00     0.468 C 
ENDBRANCH   6   7
ENDBRANCH   1   6
TORSDOF 4
ENDMDL
MODEL 2
REMARK VINA RESULT:      -7.6      2.128      2.531
REMARK SMILES O=C(O)CCc1ccc2c(c1)OCO2
REMARK SMILES IDX 4 1 2 2 1 3 3 4 5 6 6 7 7 8 11 9 8 10 10 11 9 12 12 13 14 14
REMARK SMILES IDX 13 15
REMARK H PARENT 3 5
REMARK Flexibility Score: inf
ROOT
ATOM      1  C   UNL     1       4.742   1.891   0.702  1.00  0.00     0.127 C 
ENDROOT
BRANCH   1   2
ATOM      2  C   UNL     1       4.409   1.163   1.917  1.00  0.00     0.303 C 
ATOM      3  O   UNL     1       5.116   0.311   2.459  1.00  0.00    -0.252 OA
BRANCH   2   4
ATOM      4  O   UNL     1       3.178   1.454   2.526  1.00  0.00    -0.481 OA
ATOM      5  H   UNL     1       3.223   1.930   3.414  1.00  0.00     0.296 HD
ENDBRANCH   2   4
ENDBRANCH   1   2
BRANCH   1   6
ATOM      6  C   UNL     1       6.177   2.222   0.575  1.00  0.00     0.047 C 
BRANCH   6   7
ATOM      7  C   UNL     1       7.013   1.318  -0.217  1.00  0.00    -0.043 A 
ATOM      8  C   UNL     1       8.373   1.539  -0.374  1.00  0.00     0.008 A 
ATOM      9  C   UNL     1       6.465   0.241  -0.861  1.00  0.00     0.054 A 
ATOM     10  C   UNL     1       9.154   0.710  -1.148  1.00  0.00     0.051 A 
ATOM     11  C   UNL     1       7.229  -0.606  -1.642  1.00  0.00     0.166 A 
ATOM     12  C   UNL     1       8.575  -0.374  -1.788  1.00  0.00     0.165 A 
ATOM     13  O   UNL     1       6.896  -1.734  -2.371  1.00  0.00    -0.454 OA
ATOM     14  O   UNL     1       9.069  -1.380  -2.621  1.00  0.00    -0.454 OA
ATOM     15  C   UNL     1       7.994  -2.046  -3.242  1.00  0.00     0.468 C 
ENDBRANCH   6   7
ENDBRANCH   1   6
TORSDOF 4
ENDMDL
MODEL 3
REMARK VINA RESULT:      -7.5      1.967      2.868
REMARK SMILES O=C(O)CCc1ccc2c(c1)OCO2
REMARK SMILES IDX 4 1 2 2 1 3 3 4 5 6 6 7 7 8 11 9 8 10 10 11 9 12 12 13 14 14
REMARK SMILES IDX 13 15
REMARK H PARENT 3 5
REMARK Flexibility Score: inf
ROOT
ATOM      1  C   UNL     1       6.377   1.320   0.672  1.00  0.00     0.127 C 
ENDROOT
BRANCH   1   2
ATOM      2  C   UNL     1       5.185   1.272   1.505  1.00  0.00     0.303 C 
ATOM      3  O   UNL     1       4.235   2.055   1.444  1.00  0.00    -0.252 OA
BRANCH   2   4
ATOM      4  O   UNL     1       5.108   0.247   2.461  1.00  0.00    -0.481 OA
ATOM      5  H   UNL     1       4.185   0.025   2.802  1.00  0.00     0.296 HD
ENDBRANCH   2   4
ENDBRANCH   1   2
BRANCH   1   6
ATOM      6  C   UNL     1       6.159   0.853  -0.714  1.00  0.00     0.047 C 
BRANCH   6   7
ATOM      7  C   UNL     1       6.941  -0.298  -1.171  1.00  0.00    -0.043 A 
ATOM      8  C   UNL     1       7.273  -0.464  -2.507  1.00  0.00     0.008 A 
ATOM      9  C   UNL     1       7.336  -1.270  -0.291  1.00  0.00     0.054 A 
ATOM     10  C   UNL     1       7.977  -1.564  -2.944  1.00  0.00     0.051 A 
ATOM     11  C   UNL     1       8.043  -2.382  -0.707  1.00  0.00     0.166 A 
ATOM     12  C   UNL     1       8.366  -2.533  -2.034  1.00  0.00     0.165 A 
ATOM     13  O   UNL     1       8.537  -3.470  -0.009  1.00  0.00    -0.454 OA
ATOM     14  O   UNL     1       9.069  -3.734  -2.143  1.00  0.00    -0.454 OA
ATOM     15  C   UNL     1       8.914  -4.480  -0.958  1.00  0.00     0.468 C 
ENDBRANCH   6   7
ENDBRANCH   1   6
TORSDOF 4
ENDMDL
MODEL 4
REMARK VINA RESULT:      -7.4      1.790      5.286
REMARK SMILES O=C(O)CCc1ccc2c(c1)OCO2
REMARK SMILES IDX 4 1 2 2 1 3 3 4 5 6 6 7 7 8 11 9 8 10 10 11 9 12 12 13 14 14
REMARK SMILES IDX 13 15
REMARK H PARENT 3 5
REMARK Flexibility Score: inf
ROOT
ATOM      1  C   UNL     1       8.319  -0.321  -2.867  1.00  0.00     0.127 C 
ENDROOT
BRANCH   1   2
ATOM      2  C   UNL     1       8.476  -1.750  -3.089  1.00  0.00     0.303 C 
ATOM      3  O   UNL     1       9.542  -2.367  -3.063  1.00  0.00    -0.252 OA
BRANCH   2   4
ATOM      4  O   UNL     1       7.314  -2.493  -3.355  1.00  0.00    -0.481 OA
ATOM      5  H   UNL     1       7.368  -3.483  -3.174  1.00  0.00     0.296 HD
ENDBRANCH   2   4
ENDBRANCH   1   2
BRANCH   1   6
ATOM      6  C   UNL     1       8.773   0.133  -1.536  1.00  0.00     0.047 C 
BRANCH   6   7
ATOM      7  C   UNL     1       7.804   0.088  -0.438  1.00  0.00    -0.043 A 
ATOM      8  C   UNL     1       7.739  -0.994   0.426  1.00  0.00     0.008 A 
ATOM      9  C   UNL     1       6.903   1.103  -0.257  1.00  0.00     0.054 A 
ATOM     10  C   UNL     1       6.805  -1.054   1.437  1.00  0.00     0.051 A 
ATOM     11  C   UNL     1       5.957   1.064   0.750  1.00  0.00     0.166 A 
ATOM     12  C   UNL     1       5.905  -0.014   1.600  1.00  0.00     0.165 A 
ATOM     13  O   UNL     1       4.966   1.959   1.114  1.00  0.00    -0.454 OA
ATOM     14  O   UNL     1       4.863   0.230   2.496  1.00  0.00    -0.454 OA
ATOM     15  C   UNL     1       4.072   1.294   2.020  1.00  0.00     0.468 C 
ENDBRANCH   6   7
ENDBRANCH   1   6
TORSDOF 4
ENDMDL
