@<TRIPOS>MOLECULE
/home/cewinharhar/GITHUB/reincatalyze/data/processed/docking_pred/2023-May-17-1006_maxeplen10_maxtrainstep1000_seadep16_gamma099_lrac9e-4_lrcr1e-3_sub6/5bd4159c0713ad18fb2d2a846002564f6b7df27c_ligand_6.pdbqt
 15 16 0 0 0
SMALL
GASTEIGER

@<TRIPOS>ATOM
      1  C          4.7420    1.8910    0.7020 C.3     1  UNL1        0.1270
      2  C          4.4090    1.1630    1.9170 C.2     1  UNL1        0.3030
      3  O          5.1160    0.3110    2.4590 O.2     1  UNL1       -0.2520
      4  O          3.1780    1.4540    2.5260 O.3     1  UNL1       -0.4810
      5  H          3.2230    1.9300    3.4140 H       1  UNL1        0.2960
      6  C          6.1770    2.2220    0.5750 C.3     1  UNL1        0.0470
      7  C          7.0130    1.3180   -0.2170 C.2     1  UNL1       -0.0430
      8  C          8.3730    1.5390   -0.3740 C.2     1  UNL1        0.0080
      9  C          6.4650    0.2410   -0.8610 C.2     1  UNL1        0.0540
     10  C          9.1540    0.7100   -1.1480 C.2     1  UNL1        0.0510
     11  C          7.2290   -0.6060   -1.6420 C.2     1  UNL1        0.1660
     12  C          8.5750   -0.3740   -1.7880 C.2     1  UNL1        0.1650
     13  O          6.8960   -1.7340   -2.3710 O.2     1  UNL1       -0.4540
     14  O          9.0690   -1.3800   -2.6210 O.2     1  UNL1       -0.4540
     15  C          7.9940   -2.0460   -3.2420 C.3     1  UNL1        0.4680
@<TRIPOS>BOND
     1    15    14    1
     2    15    13    1
     3    14    12    1
     4    13    11    1
     5    12    11    2
     6    12    10    1
     7    11     9    1
     8    10     8    2
     9     9     7    2
    10     8     7    1
    11     7     6    1
    12     6     1    1
    13     1     2    1
    14     2     3    2
    15     2     4    1
    16     4     5    1
