@<TRIPOS>MOLECULE
/home/cewinharhar/GITHUB/reincatalyze/data/processed/docking_pred/2023-May-17-1006_maxeplen10_maxtrainstep1000_seadep16_gamma099_lrac9e-4_lrcr1e-3_sub6/5bd4159c0713ad18fb2d2a846002564f6b7df27c_ligand_6.pdbqt
 15 16 0 0 0
SMALL
GASTEIGER

@<TRIPOS>ATOM
      1  C          8.3190   -0.3210   -2.8670 C.3     1  UNL1        0.1270
      2  C          8.4760   -1.7500   -3.0890 C.2     1  UNL1        0.3030
      3  O          9.5420   -2.3670   -3.0630 O.2     1  UNL1       -0.2520
      4  O          7.3140   -2.4930   -3.3550 O.3     1  UNL1       -0.4810
      5  H          7.3680   -3.4830   -3.1740 H       1  UNL1        0.2960
      6  C          8.7730    0.1330   -1.5360 C.3     1  UNL1        0.0470
      7  C          7.8040    0.0880   -0.4380 C.2     1  UNL1       -0.0430
      8  C          7.7390   -0.9940    0.4260 C.2     1  UNL1        0.0080
      9  C          6.9030    1.1030   -0.2570 C.2     1  UNL1        0.0540
     10  C          6.8050   -1.0540    1.4370 C.2     1  UNL1        0.0510
     11  C          5.9570    1.0640    0.7500 C.2     1  UNL1        0.1660
     12  C          5.9050   -0.0140    1.6000 C.2     1  UNL1        0.1650
     13  O          4.9660    1.9590    1.1140 O.2     1  UNL1       -0.4540
     14  O          4.8630    0.2300    2.4960 O.2     1  UNL1       -0.4540
     15  C          4.0720    1.2940    2.0200 C.3     1  UNL1        0.4680
@<TRIPOS>BOND
     1     4     5    1
     2     4     2    1
     3     2     3    2
     4     2     1    1
     5     1     6    1
     6     6     7    1
     7     7     9    2
     8     7     8    1
     9     9    11    1
    10     8    10    2
    11    11    13    1
    12    11    12    2
    13    13    15    1
    14    10    12    1
    15    12    14    1
    16    15    14    1
