@<TRIPOS>MOLECULE
/home/cewinharhar/GITHUB/reincatalyze/data/processed/docking_pred/2023-May-17-1006_maxeplen10_maxtrainstep1000_seadep16_gamma099_lrac9e-4_lrcr1e-3_sub6/5be73a077ea639c014f12358d863af943f9e92ef_ligand_6.pdbqt
 15 16 0 0 0
SMALL
GASTEIGER

@<TRIPOS>ATOM
      1  C          6.3840    1.2830    0.6320 C.3     1  UNL1        0.1270
      2  C          5.1710    1.3080    1.4330 C.2     1  UNL1        0.3030
      3  O          4.2650    2.1380    1.3360 O.2     1  UNL1       -0.2520
      4  O          5.0160    0.3030    2.4010 O.3     1  UNL1       -0.4810
      5  H          5.7230    0.2640    3.1190 H       1  UNL1        0.2960
      6  C          6.1840    0.7830   -0.7450 C.3     1  UNL1        0.0470
      7  C          6.9560   -0.3910   -1.1580 C.2     1  UNL1       -0.0430
      8  C          7.2690   -0.6210   -2.4890 C.2     1  UNL1        0.0080
      9  C          7.3600   -1.3230   -0.2380 C.2     1  UNL1        0.0540
     10  C          7.9640   -1.7430   -2.8830 C.2     1  UNL1        0.0510
     11  C          8.0580   -2.4560   -0.6110 C.2     1  UNL1        0.1660
     12  C          8.3630   -2.6700   -1.9330 C.2     1  UNL1        0.1650
     13  O          8.5590   -3.5110    0.1310 O.2     1  UNL1       -0.4540
     14  O          9.0610   -3.8770   -1.9960 O.2     1  UNL1       -0.4540
     15  C          8.9200   -4.5660   -0.7740 C.3     1  UNL1        0.4680
@<TRIPOS>BOND
     1    10     8    1
     2    10    12    2
     3     8     7    2
     4    14    12    1
     5    14    15    1
     6    12    11    1
     7     7     6    1
     8     7     9    1
     9    15    13    1
    10     6     1    1
    11    11     9    2
    12    11    13    1
    13     1     2    1
    14     3     2    2
    15     2     4    1
    16     4     5    1
