MODEL 1
REMARK VINA RESULT:      -7.7      0.000      0.000
REMARK SMILES O=C(O)CCc1ccc2c(c1)OCO2
REMARK SMILES IDX 4 1 2 2 1 3 3 4 5 6 6 7 7 8 11 9 8 10 10 11 9 12 12 13 14 14
REMARK SMILES IDX 13 15
REMARK H PARENT 3 5
REMARK Flexibility Score: inf
ROOT
ATOM      1  C   UNL     1       5.421   2.871   0.119  1.00  0.00     0.127 C 
ENDROOT
BRANCH   1   2
ATOM      2  C   UNL     1       6.244   3.855   0.803  1.00  0.00     0.303 C 
ATOM      3  O   UNL     1       6.891   4.752   0.259  1.00  0.00    -0.252 OA
BRANCH   2   4
ATOM      4  O   UNL     1       6.310   3.779   2.203  1.00  0.00    -0.481 OA
ATOM      5  H   UNL     1       6.266   2.854   2.601  1.00  0.00     0.296 HD
ENDBRANCH   2   4
ENDBRANCH   1   2
BRANCH   1   6
ATOM      6  C   UNL     1       5.355   1.562   0.804  1.00  0.00     0.047 C 
BRANCH   6   7
ATOM      7  C   UNL     1       6.137   0.461   0.238  1.00  0.00    -0.043 A 
ATOM      8  C   UNL     1       6.586  -0.588   1.024  1.00  0.00     0.008 A 
ATOM      9  C   UNL     1       6.483   0.458  -1.088  1.00  0.00     0.054 A 
ATOM     10  C   UNL     1       7.352  -1.606   0.500  1.00  0.00     0.051 A 
ATOM     11  C   UNL     1       7.251  -0.553  -1.635  1.00  0.00     0.166 A 
ATOM     12  C   UNL     1       7.687  -1.588  -0.844  1.00  0.00     0.165 A 
ATOM     13  O   UNL     1       7.712  -0.761  -2.923  1.00  0.00    -0.454 OA
ATOM     14  O   UNL     1       8.428  -2.439  -1.666  1.00  0.00    -0.454 OA
ATOM     15  C   UNL     1       8.716  -1.786  -2.880  1.00  0.00     0.468 C 
ENDBRANCH   6   7
ENDBRANCH   1   6
TORSDOF 4
ENDMDL
MODEL 2
REMARK VINA RESULT:      -7.6      2.124      2.513
REMARK SMILES O=C(O)CCc1ccc2c(c1)OCO2
REMARK SMILES IDX 4 1 2 2 1 3 3 4 5 6 6 7 7 8 11 9 8 10 10 11 9 12 12 13 14 14
REMARK SMILES IDX 13 15
REMARK H PARENT 3 5
REMARK Flexibility Score: inf
ROOT
ATOM      1  C   UNL     1       4.711   1.890   0.692  1.00  0.00     0.127 C 
ENDROOT
BRANCH   1   2
ATOM      2  C   UNL     1       4.415   1.166   1.917  1.00  0.00     0.303 C 
ATOM      3  O   UNL     1       5.151   0.339   2.458  1.00  0.00    -0.252 OA
BRANCH   2   4
ATOM      4  O   UNL     1       3.184   1.429   2.540  1.00  0.00    -0.481 OA
ATOM      5  H   UNL     1       2.619   0.626   2.767  1.00  0.00     0.296 HD
ENDBRANCH   2   4
ENDBRANCH   1   2
BRANCH   1   6
ATOM      6  C   UNL     1       6.137   2.250   0.537  1.00  0.00     0.047 C 
BRANCH   6   7
ATOM      7  C   UNL     1       6.985   1.341  -0.236  1.00  0.00    -0.043 A 
ATOM      8  C   UNL     1       8.347   1.562  -0.375  1.00  0.00     0.008 A 
ATOM      9  C   UNL     1       6.447   0.259  -0.880  1.00  0.00     0.054 A 
ATOM     10  C   UNL     1       9.140   0.728  -1.131  1.00  0.00     0.051 A 
ATOM     11  C   UNL     1       7.223  -0.592  -1.644  1.00  0.00     0.166 A 
ATOM     12  C   UNL     1       8.571  -0.361  -1.772  1.00  0.00     0.165 A 
ATOM     13  O   UNL     1       6.902  -1.725  -2.371  1.00  0.00    -0.454 OA
ATOM     14  O   UNL     1       9.077  -1.372  -2.591  1.00  0.00    -0.454 OA
ATOM     15  C   UNL     1       8.012  -2.042  -3.223  1.00  0.00     0.468 C 
ENDBRANCH   6   7
ENDBRANCH   1   6
TORSDOF 4
ENDMDL
MODEL 3
REMARK VINA RESULT:      -7.5      1.971      2.895
REMARK SMILES O=C(O)CCc1ccc2c(c1)OCO2
REMARK SMILES IDX 4 1 2 2 1 3 3 4 5 6 6 7 7 8 11 9 8 10 10 11 9 12 12 13 14 14
REMARK SMILES IDX 13 15
REMARK H PARENT 3 5
REMARK Flexibility Score: inf
ROOT
ATOM      1  C   UNL     1       6.384   1.283   0.632  1.00  0.00     0.127 C 
ENDROOT
BRANCH   1   2
ATOM      2  C   UNL     1       5.171   1.308   1.433  1.00  0.00     0.303 C 
ATOM      3  O   UNL     1       4.265   2.138   1.336  1.00  0.00    -0.252 OA
BRANCH   2   4
ATOM      4  O   UNL     1       5.016   0.303   2.401  1.00  0.00    -0.481 OA
ATOM      5  H   UNL     1       5.723   0.264   3.119  1.00  0.00     0.296 HD
ENDBRANCH   2   4
ENDBRANCH   1   2
BRANCH   1   6
ATOM      6  C   UNL     1       6.184   0.783  -0.745  1.00  0.00     0.047 C 
BRANCH   6   7
ATOM      7  C   UNL     1       6.956  -0.391  -1.158  1.00  0.00    -0.043 A 
ATOM      8  C   UNL     1       7.269  -0.621  -2.489  1.00  0.00     0.008 A 
ATOM      9  C   UNL     1       7.360  -1.323  -0.238  1.00  0.00     0.054 A 
ATOM     10  C   UNL     1       7.964  -1.743  -2.883  1.00  0.00     0.051 A 
ATOM     11  C   UNL     1       8.058  -2.456  -0.611  1.00  0.00     0.166 A 
ATOM     12  C   UNL     1       8.363  -2.670  -1.933  1.00  0.00     0.165 A 
ATOM     13  O   UNL     1       8.559  -3.511   0.131  1.00  0.00    -0.454 OA
ATOM     14  O   UNL     1       9.061  -3.877  -1.996  1.00  0.00    -0.454 OA
ATOM     15  C   UNL     1       8.920  -4.566  -0.774  1.00  0.00     0.468 C 
ENDBRANCH   6   7
ENDBRANCH   1   6
TORSDOF 4
ENDMDL
MODEL 4
REMARK VINA RESULT:      -7.4      1.789      5.284
REMARK SMILES O=C(O)CCc1ccc2c(c1)OCO2
REMARK SMILES IDX 4 1 2 2 1 3 3 4 5 6 6 7 7 8 11 9 8 10 10 11 9 12 12 13 14 14
REMARK SMILES IDX 13 15
REMARK H PARENT 3 5
REMARK Flexibility Score: inf
ROOT
ATOM      1  C   UNL     1       8.307  -0.318  -2.862  1.00  0.00     0.127 C 
ENDROOT
BRANCH   1   2
ATOM      2  C   UNL     1       8.472  -1.748  -3.071  1.00  0.00     0.303 C 
ATOM      3  O   UNL     1       9.541  -2.360  -3.029  1.00  0.00    -0.252 OA
BRANCH   2   4
ATOM      4  O   UNL     1       7.317  -2.497  -3.345  1.00  0.00    -0.481 OA
ATOM      5  H   UNL     1       6.854  -2.909  -2.549  1.00  0.00     0.296 HD
ENDBRANCH   2   4
ENDBRANCH   1   2
BRANCH   1   6
ATOM      6  C   UNL     1       8.757   0.150  -1.534  1.00  0.00     0.047 C 
BRANCH   6   7
ATOM      7  C   UNL     1       7.789   0.107  -0.436  1.00  0.00    -0.043 A 
ATOM      8  C   UNL     1       7.740  -0.962   0.445  1.00  0.00     0.008 A 
ATOM      9  C   UNL     1       6.872   1.111  -0.271  1.00  0.00     0.054 A 
ATOM     10  C   UNL     1       6.807  -1.021   1.456  1.00  0.00     0.051 A 
ATOM     11  C   UNL     1       5.927   1.073   0.736  1.00  0.00     0.166 A 
ATOM     12  C   UNL     1       5.891   0.008   1.603  1.00  0.00     0.165 A 
ATOM     13  O   UNL     1       4.922   1.958   1.087  1.00  0.00    -0.454 OA
ATOM     14  O   UNL     1       4.845   0.250   2.495  1.00  0.00    -0.454 OA
ATOM     15  C   UNL     1       4.038   1.293   2.002  1.00  0.00     0.468 C 
ENDBRANCH   6   7
ENDBRANCH   1   6
TORSDOF 4
ENDMDL
MODEL 5
REMARK VINA RESULT:      -7.4      0.960      2.101
REMARK SMILES O=C(O)CCc1ccc2c(c1)OCO2
REMARK SMILES IDX 4 1 2 2 1 3 3 4 5 6 6 7 7 8 11 9 8 10 10 11 9 12 12 13 14 14
REMARK SMILES IDX 13 15
REMARK H PARENT 3 5
REMARK Flexibility Score: inf
ROOT
ATOM      1  C   UNL     1       5.517   2.662   0.171  1.00  0.00     0.127 C 
ENDROOT
BRANCH   1   2
ATOM      2  C   UNL     1       6.234   3.692   0.906  1.00  0.00     0.303 C 
ATOM      3  O   UNL     1       6.382   3.729   2.129  1.00  0.00    -0.252 OA
BRANCH   2   4
ATOM      4  O   UNL     1       6.808   4.734   0.161  1.00  0.00    -0.481 OA
ATOM      5  H   UNL     1       6.709   4.672  -0.840  1.00  0.00     0.296 HD
ENDBRANCH   2   4
ENDBRANCH   1   2
BRANCH   1   6
ATOM      6  C   UNL     1       5.567   1.327   0.805  1.00  0.00     0.047 C 
BRANCH   6   7
ATOM      7  C   UNL     1       6.352   0.288   0.135  1.00  0.00    -0.043 A 
ATOM      8  C   UNL     1       6.471   0.247  -1.246  1.00  0.00     0.008 A 
ATOM      9  C   UNL     1       6.963  -0.703   0.856  1.00  0.00     0.054 A 
ATOM     10  C   UNL     1       7.178  -0.751  -1.880  1.00  0.00     0.051 A 
ATOM     11  C   UNL     1       7.678  -1.714   0.242  1.00  0.00     0.166 A 
ATOM     12  C   UNL     1       7.789  -1.741  -1.127  1.00  0.00     0.165 A 
ATOM     13  O   UNL     1       8.366  -2.798   0.759  1.00  0.00    -0.454 OA
ATOM     14  O   UNL     1       8.557  -2.861  -1.447  1.00  0.00    -0.454 OA
ATOM     15  C   UNL     1       8.660  -3.699  -0.319  1.00  0.00     0.468 C 
ENDBRANCH   6   7
ENDBRANCH   1   6
TORSDOF 4
ENDMDL
