@<TRIPOS>MOLECULE
/home/cewinharhar/GITHUB/reincatalyze/data/processed/docking_pred/2023-May-17-1006_maxeplen10_maxtrainstep1000_seadep16_gamma099_lrac9e-4_lrcr1e-3_sub6/5be73a077ea639c014f12358d863af943f9e92ef_ligand_6.pdbqt
 15 16 0 0 0
SMALL
GASTEIGER

@<TRIPOS>ATOM
      1  C          5.5170    2.6620    0.1710 C.3     1  UNL1        0.1270
      2  C          6.2340    3.6920    0.9060 C.2     1  UNL1        0.3030
      3  O          6.3820    3.7290    2.1290 O.2     1  UNL1       -0.2520
      4  O          6.8080    4.7340    0.1610 O.3     1  UNL1       -0.4810
      5  H          6.7090    4.6720   -0.8400 H       1  UNL1        0.2960
      6  C          5.5670    1.3270    0.8050 C.3     1  UNL1        0.0470
      7  C          6.3520    0.2880    0.1350 C.2     1  UNL1       -0.0430
      8  C          6.4710    0.2470   -1.2460 C.2     1  UNL1        0.0080
      9  C          6.9630   -0.7030    0.8560 C.2     1  UNL1        0.0540
     10  C          7.1780   -0.7510   -1.8800 C.2     1  UNL1        0.0510
     11  C          7.6780   -1.7140    0.2420 C.2     1  UNL1        0.1660
     12  C          7.7890   -1.7410   -1.1270 C.2     1  UNL1        0.1650
     13  O          8.3660   -2.7980    0.7590 O.2     1  UNL1       -0.4540
     14  O          8.5570   -2.8610   -1.4470 O.2     1  UNL1       -0.4540
     15  C          8.6600   -3.6990   -0.3190 C.3     1  UNL1        0.4680
@<TRIPOS>BOND
     1    10     8    1
     2    10    12    2
     3    14    12    1
     4    14    15    1
     5     8     7    2
     6    12    11    1
     7     5     4    1
     8    15    13    1
     9     7     6    1
    10     7     9    1
    11     4     2    1
    12     1     6    1
    13     1     2    1
    14    11    13    1
    15    11     9    2
    16     2     3    2
