@<TRIPOS>MOLECULE
/home/cewinharhar/GITHUB/reincatalyze/data/processed/docking_pred/2023-May-17-1006_maxeplen10_maxtrainstep1000_seadep16_gamma099_lrac9e-4_lrcr1e-3_sub6/5be73a077ea639c014f12358d863af943f9e92ef_ligand_6.pdbqt
 15 16 0 0 0
SMALL
GASTEIGER

@<TRIPOS>ATOM
      1  C          5.4210    2.8710    0.1190 C.3     1  UNL1        0.1270
      2  C          6.2440    3.8550    0.8030 C.2     1  UNL1        0.3030
      3  O          6.8910    4.7520    0.2590 O.2     1  UNL1       -0.2520
      4  O          6.3100    3.7790    2.2030 O.3     1  UNL1       -0.4810
      5  H          6.2660    2.8540    2.6010 H       1  UNL1        0.2960
      6  C          5.3550    1.5620    0.8040 C.3     1  UNL1        0.0470
      7  C          6.1370    0.4610    0.2380 C.2     1  UNL1       -0.0430
      8  C          6.5860   -0.5880    1.0240 C.2     1  UNL1        0.0080
      9  C          6.4830    0.4580   -1.0880 C.2     1  UNL1        0.0540
     10  C          7.3520   -1.6060    0.5000 C.2     1  UNL1        0.0510
     11  C          7.2510   -0.5530   -1.6350 C.2     1  UNL1        0.1660
     12  C          7.6870   -1.5880   -0.8440 C.2     1  UNL1        0.1650
     13  O          7.7120   -0.7610   -2.9230 O.2     1  UNL1       -0.4540
     14  O          8.4280   -2.4390   -1.6660 O.2     1  UNL1       -0.4540
     15  C          8.7160   -1.7860   -2.8800 C.3     1  UNL1        0.4680
@<TRIPOS>BOND
     1    13    15    1
     2    13    11    1
     3    15    14    1
     4    14    12    1
     5    11     9    1
     6    11    12    2
     7     9     7    2
     8    12    10    1
     9     1     2    1
    10     1     6    1
    11     7     6    1
    12     7     8    1
    13     3     2    2
    14    10     8    2
    15     2     4    1
    16     4     5    1
