@<TRIPOS>MOLECULE
/home/cewinharhar/GITHUB/reincatalyze/data/processed/docking_pred/2023-May-17-1006_maxeplen10_maxtrainstep1000_seadep16_gamma099_lrac9e-4_lrcr1e-3_sub6/5c54d156b22251270ecdcbd3d684e6dc7dd5ede7_ligand_6.pdbqt
 15 16 0 0 0
SMALL
GASTEIGER

@<TRIPOS>ATOM
      1  C          8.3060   -0.3220   -2.8240 C.3     1  UNL1        0.1270
      2  C          8.4700   -1.7480   -3.0580 C.2     1  UNL1        0.3030
      3  O          9.5380   -2.3620   -3.0280 O.2     1  UNL1       -0.2520
      4  O          7.3130   -2.4910   -3.3430 O.3     1  UNL1       -0.4810
      5  H          6.5760   -2.4480   -2.6560 H       1  UNL1        0.2960
      6  C          8.7620    0.1230   -1.4900 C.3     1  UNL1        0.0470
      7  C          7.7890    0.0910   -0.3960 C.2     1  UNL1       -0.0430
      8  C          7.7400   -0.9680    0.4990 C.2     1  UNL1        0.0080
      9  C          6.8690    1.0940   -0.2470 C.2     1  UNL1        0.0540
     10  C          6.8020   -1.0170    1.5060 C.2     1  UNL1        0.0510
     11  C          5.9190    1.0660    0.7560 C.2     1  UNL1        0.1660
     12  C          5.8820    0.0110    1.6360 C.2     1  UNL1        0.1650
     13  O          4.9100    1.9520    1.0910 O.2     1  UNL1       -0.4540
     14  O          4.8320    0.2610    2.5210 O.2     1  UNL1       -0.4540
     15  C          4.0240    1.2970    2.0110 C.3     1  UNL1        0.4680
@<TRIPOS>BOND
     1     4     2    1
     2     4     5    1
     3     2     3    2
     4     2     1    1
     5     1     6    1
     6     6     7    1
     7     7     9    2
     8     7     8    1
     9     9    11    1
    10     8    10    2
    11    11    13    1
    12    11    12    2
    13    13    15    1
    14    10    12    1
    15    12    14    1
    16    15    14    1
