@<TRIPOS>MOLECULE
/home/cewinharhar/GITHUB/reincatalyze/data/processed/docking_pred/2023-May-17-1006_maxeplen10_maxtrainstep1000_seadep16_gamma099_lrac9e-4_lrcr1e-3_sub6/5c54d156b22251270ecdcbd3d684e6dc7dd5ede7_ligand_6.pdbqt
 15 16 0 0 0
SMALL
GASTEIGER

@<TRIPOS>ATOM
      1  C          4.6890    1.8780    0.6700 C.3     1  UNL1        0.1270
      2  C          4.3920    1.1790    1.9100 C.2     1  UNL1        0.3030
      3  O          5.1250    0.3580    2.4640 O.2     1  UNL1       -0.2520
      4  O          3.1660    1.4640    2.5330 O.3     1  UNL1       -0.4810
      5  H          3.1170    2.3320    3.0430 H       1  UNL1        0.2960
      6  C          6.1110    2.2520    0.5170 C.3     1  UNL1        0.0470
      7  C          6.9700    1.3500   -0.2540 C.2     1  UNL1       -0.0430
      8  C          8.3270    1.5900   -0.4000 C.2     1  UNL1        0.0080
      9  C          6.4440    0.2560   -0.8880 C.2     1  UNL1        0.0540
     10  C          9.1290    0.7630   -1.1550 C.2     1  UNL1        0.0510
     11  C          7.2300   -0.5890   -1.6500 C.2     1  UNL1        0.1660
     12  C          8.5740   -0.3390   -1.7860 C.2     1  UNL1        0.1650
     13  O          6.9220   -1.7320   -2.3670 O.2     1  UNL1       -0.4540
     14  O          9.0910   -1.3470   -2.6000 O.2     1  UNL1       -0.4540
     15  C          8.0330   -2.0380   -3.2230 C.3     1  UNL1        0.4680
@<TRIPOS>BOND
     1    15    14    1
     2    15    13    1
     3    14    12    1
     4    13    11    1
     5    12    11    2
     6    12    10    1
     7    11     9    1
     8    10     8    2
     9     9     7    2
    10     8     7    1
    11     7     6    1
    12     6     1    1
    13     1     2    1
    14     2     3    2
    15     2     4    1
    16     4     5    1
