@<TRIPOS>MOLECULE
/home/cewinharhar/GITHUB/reincatalyze/data/processed/docking_pred/2023-May-17-1006_maxeplen10_maxtrainstep1000_seadep16_gamma099_lrac9e-4_lrcr1e-3_sub6/5c54d156b22251270ecdcbd3d684e6dc7dd5ede7_ligand_6.pdbqt
 15 16 0 0 0
SMALL
GASTEIGER

@<TRIPOS>ATOM
      1  C          5.6380    2.6130    0.1010 C.3     1  UNL1        0.1270
      2  C          6.2150    3.6820    0.9000 C.2     1  UNL1        0.3030
      3  O          6.2330    3.7280    2.1320 O.2     1  UNL1       -0.2520
      4  O          6.8030    4.7550    0.2120 O.3     1  UNL1       -0.4810
      5  H          7.3770    4.5140   -0.5820 H       1  UNL1        0.2960
      6  C          5.6740    1.2870    0.7560 C.3     1  UNL1        0.0470
      7  C          6.4430    0.2280    0.0980 C.2     1  UNL1       -0.0430
      8  C          6.5800    0.1820   -1.2800 C.2     1  UNL1        0.0080
      9  C          7.0190   -0.7760    0.8300 C.2     1  UNL1        0.0540
     10  C          7.2720   -0.8340   -1.9020 C.2     1  UNL1        0.0510
     11  C          7.7180   -1.8050    0.2280 C.2     1  UNL1        0.1660
     12  C          7.8480   -1.8370   -1.1400 C.2     1  UNL1        0.1650
     13  O          8.3720   -2.9040    0.7560 O.2     1  UNL1       -0.4540
     14  O          8.5930   -2.9760   -1.4470 O.2     1  UNL1       -0.4540
     15  C          8.6590   -3.8140   -0.3160 C.3     1  UNL1        0.4680
@<TRIPOS>BOND
     1    10     8    1
     2    10    12    2
     3    14    12    1
     4    14    15    1
     5     8     7    2
     6    12    11    1
     7     5     4    1
     8    15    13    1
     9     7     6    1
    10     7     9    1
    11     1     6    1
    12     1     2    1
    13     4     2    1
    14    11    13    1
    15    11     9    2
    16     2     3    2
