MODEL 1
REMARK VINA RESULT:      -7.7      0.000      0.000
REMARK SMILES O=C(O)CCc1ccc2c(c1)OCO2
REMARK SMILES IDX 4 1 2 2 1 3 3 4 5 6 6 7 7 8 11 9 8 10 10 11 9 12 12 13 14 14
REMARK SMILES IDX 13 15
REMARK H PARENT 3 5
REMARK Flexibility Score: inf
ROOT
ATOM      1  C   UNL     1       5.410   2.872   0.125  1.00  0.00     0.127 C 
ENDROOT
BRANCH   1   2
ATOM      2  C   UNL     1       6.233   3.854   0.814  1.00  0.00     0.303 C 
ATOM      3  O   UNL     1       6.857   4.770   0.277  1.00  0.00    -0.252 OA
BRANCH   2   4
ATOM      4  O   UNL     1       6.324   3.751   2.211  1.00  0.00    -0.481 OA
ATOM      5  H   UNL     1       6.675   2.876   2.571  1.00  0.00     0.296 HD
ENDBRANCH   2   4
ENDBRANCH   1   2
BRANCH   1   6
ATOM      6  C   UNL     1       5.341   1.562   0.807  1.00  0.00     0.047 C 
BRANCH   6   7
ATOM      7  C   UNL     1       6.127   0.463   0.243  1.00  0.00    -0.043 A 
ATOM      8  C   UNL     1       6.599  -0.572   1.036  1.00  0.00     0.008 A 
ATOM      9  C   UNL     1       6.453   0.445  -1.087  1.00  0.00     0.054 A 
ATOM     10  C   UNL     1       7.368  -1.588   0.514  1.00  0.00     0.051 A 
ATOM     11  C   UNL     1       7.223  -0.564  -1.633  1.00  0.00     0.166 A 
ATOM     12  C   UNL     1       7.683  -1.583  -0.835  1.00  0.00     0.165 A 
ATOM     13  O   UNL     1       7.668  -0.784  -2.925  1.00  0.00    -0.454 OA
ATOM     14  O   UNL     1       8.421  -2.437  -1.657  1.00  0.00    -0.454 OA
ATOM     15  C   UNL     1       8.684  -1.797  -2.884  1.00  0.00     0.468 C 
ENDBRANCH   6   7
ENDBRANCH   1   6
TORSDOF 4
ENDMDL
MODEL 2
REMARK VINA RESULT:      -7.6      2.119      2.512
REMARK SMILES O=C(O)CCc1ccc2c(c1)OCO2
REMARK SMILES IDX 4 1 2 2 1 3 3 4 5 6 6 7 7 8 11 9 8 10 10 11 9 12 12 13 14 14
REMARK SMILES IDX 13 15
REMARK H PARENT 3 5
REMARK Flexibility Score: inf
ROOT
ATOM      1  C   UNL     1       4.689   1.878   0.670  1.00  0.00     0.127 C 
ENDROOT
BRANCH   1   2
ATOM      2  C   UNL     1       4.392   1.179   1.910  1.00  0.00     0.303 C 
ATOM      3  O   UNL     1       5.125   0.358   2.464  1.00  0.00    -0.252 OA
BRANCH   2   4
ATOM      4  O   UNL     1       3.166   1.464   2.533  1.00  0.00    -0.481 OA
ATOM      5  H   UNL     1       3.117   2.332   3.043  1.00  0.00     0.296 HD
ENDBRANCH   2   4
ENDBRANCH   1   2
BRANCH   1   6
ATOM      6  C   UNL     1       6.111   2.252   0.517  1.00  0.00     0.047 C 
BRANCH   6   7
ATOM      7  C   UNL     1       6.970   1.350  -0.254  1.00  0.00    -0.043 A 
ATOM      8  C   UNL     1       8.327   1.590  -0.400  1.00  0.00     0.008 A 
ATOM      9  C   UNL     1       6.444   0.256  -0.888  1.00  0.00     0.054 A 
ATOM     10  C   UNL     1       9.129   0.763  -1.155  1.00  0.00     0.051 A 
ATOM     11  C   UNL     1       7.230  -0.589  -1.650  1.00  0.00     0.166 A 
ATOM     12  C   UNL     1       8.574  -0.339  -1.786  1.00  0.00     0.165 A 
ATOM     13  O   UNL     1       6.922  -1.732  -2.367  1.00  0.00    -0.454 OA
ATOM     14  O   UNL     1       9.091  -1.347  -2.600  1.00  0.00    -0.454 OA
ATOM     15  C   UNL     1       8.033  -2.038  -3.223  1.00  0.00     0.468 C 
ENDBRANCH   6   7
ENDBRANCH   1   6
TORSDOF 4
ENDMDL
MODEL 3
REMARK VINA RESULT:      -7.5      1.968      2.895
REMARK SMILES O=C(O)CCc1ccc2c(c1)OCO2
REMARK SMILES IDX 4 1 2 2 1 3 3 4 5 6 6 7 7 8 11 9 8 10 10 11 9 12 12 13 14 14
REMARK SMILES IDX 13 15
REMARK H PARENT 3 5
REMARK Flexibility Score: inf
ROOT
ATOM      1  C   UNL     1       6.381   1.303   0.620  1.00  0.00     0.127 C 
ENDROOT
BRANCH   1   2
ATOM      2  C   UNL     1       5.186   1.298   1.450  1.00  0.00     0.303 C 
ATOM      3  O   UNL     1       4.267   2.116   1.389  1.00  0.00    -0.252 OA
BRANCH   2   4
ATOM      4  O   UNL     1       5.067   0.273   2.401  1.00  0.00    -0.481 OA
ATOM      5  H   UNL     1       5.328  -0.652   2.095  1.00  0.00     0.296 HD
ENDBRANCH   2   4
ENDBRANCH   1   2
BRANCH   1   6
ATOM      6  C   UNL     1       6.166   0.777  -0.745  1.00  0.00     0.047 C 
BRANCH   6   7
ATOM      7  C   UNL     1       6.950  -0.392  -1.151  1.00  0.00    -0.043 A 
ATOM      8  C   UNL     1       7.288  -0.612  -2.477  1.00  0.00     0.008 A 
ATOM      9  C   UNL     1       7.341  -1.327  -0.229  1.00  0.00     0.054 A 
ATOM     10  C   UNL     1       7.993  -1.730  -2.865  1.00  0.00     0.051 A 
ATOM     11  C   UNL     1       8.050  -2.455  -0.596  1.00  0.00     0.166 A 
ATOM     12  C   UNL     1       8.379  -2.660  -1.914  1.00  0.00     0.165 A 
ATOM     13  O   UNL     1       8.541  -3.513   0.149  1.00  0.00    -0.454 OA
ATOM     14  O   UNL     1       9.082  -3.865  -1.971  1.00  0.00    -0.454 OA
ATOM     15  C   UNL     1       8.922  -4.561  -0.756  1.00  0.00     0.468 C 
ENDBRANCH   6   7
ENDBRANCH   1   6
TORSDOF 4
ENDMDL
MODEL 4
REMARK VINA RESULT:      -7.5      1.795      5.288
REMARK SMILES O=C(O)CCc1ccc2c(c1)OCO2
REMARK SMILES IDX 4 1 2 2 1 3 3 4 5 6 6 7 7 8 11 9 8 10 10 11 9 12 12 13 14 14
REMARK SMILES IDX 13 15
REMARK H PARENT 3 5
REMARK Flexibility Score: inf
ROOT
ATOM      1  C   UNL     1       8.306  -0.322  -2.824  1.00  0.00     0.127 C 
ENDROOT
BRANCH   1   2
ATOM      2  C   UNL     1       8.470  -1.748  -3.058  1.00  0.00     0.303 C 
ATOM      3  O   UNL     1       9.538  -2.362  -3.028  1.00  0.00    -0.252 OA
BRANCH   2   4
ATOM      4  O   UNL     1       7.313  -2.491  -3.343  1.00  0.00    -0.481 OA
ATOM      5  H   UNL     1       6.576  -2.448  -2.656  1.00  0.00     0.296 HD
ENDBRANCH   2   4
ENDBRANCH   1   2
BRANCH   1   6
ATOM      6  C   UNL     1       8.762   0.123  -1.490  1.00  0.00     0.047 C 
BRANCH   6   7
ATOM      7  C   UNL     1       7.789   0.091  -0.396  1.00  0.00    -0.043 A 
ATOM      8  C   UNL     1       7.740  -0.968   0.499  1.00  0.00     0.008 A 
ATOM      9  C   UNL     1       6.869   1.094  -0.247  1.00  0.00     0.054 A 
ATOM     10  C   UNL     1       6.802  -1.017   1.506  1.00  0.00     0.051 A 
ATOM     11  C   UNL     1       5.919   1.066   0.756  1.00  0.00     0.166 A 
ATOM     12  C   UNL     1       5.882   0.011   1.636  1.00  0.00     0.165 A 
ATOM     13  O   UNL     1       4.910   1.952   1.091  1.00  0.00    -0.454 OA
ATOM     14  O   UNL     1       4.832   0.261   2.521  1.00  0.00    -0.454 OA
ATOM     15  C   UNL     1       4.024   1.297   2.011  1.00  0.00     0.468 C 
ENDBRANCH   6   7
ENDBRANCH   1   6
TORSDOF 4
ENDMDL
MODEL 5
REMARK VINA RESULT:      -7.4      1.004      2.130
REMARK SMILES O=C(O)CCc1ccc2c(c1)OCO2
REMARK SMILES IDX 4 1 2 2 1 3 3 4 5 6 6 7 7 8 11 9 8 10 10 11 9 12 12 13 14 14
REMARK SMILES IDX 13 15
REMARK H PARENT 3 5
REMARK Flexibility Score: inf
ROOT
ATOM      1  C   UNL     1       5.638   2.613   0.101  1.00  0.00     0.127 C 
ENDROOT
BRANCH   1   2
ATOM      2  C   UNL     1       6.215   3.682   0.900  1.00  0.00     0.303 C 
ATOM      3  O   UNL     1       6.233   3.728   2.132  1.00  0.00    -0.252 OA
BRANCH   2   4
ATOM      4  O   UNL     1       6.803   4.755   0.212  1.00  0.00    -0.481 OA
ATOM      5  H   UNL     1       7.377   4.514  -0.582  1.00  0.00     0.296 HD
ENDBRANCH   2   4
ENDBRANCH   1   2
BRANCH   1   6
ATOM      6  C   UNL     1       5.674   1.287   0.756  1.00  0.00     0.047 C 
BRANCH   6   7
ATOM      7  C   UNL     1       6.443   0.228   0.098  1.00  0.00    -0.043 A 
ATOM      8  C   UNL     1       6.580   0.182  -1.280  1.00  0.00     0.008 A 
ATOM      9  C   UNL     1       7.019  -0.776   0.830  1.00  0.00     0.054 A 
ATOM     10  C   UNL     1       7.272  -0.834  -1.902  1.00  0.00     0.051 A 
ATOM     11  C   UNL     1       7.718  -1.805   0.228  1.00  0.00     0.166 A 
ATOM     12  C   UNL     1       7.848  -1.837  -1.140  1.00  0.00     0.165 A 
ATOM     13  O   UNL     1       8.372  -2.904   0.756  1.00  0.00    -0.454 OA
ATOM     14  O   UNL     1       8.593  -2.976  -1.447  1.00  0.00    -0.454 OA
ATOM     15  C   UNL     1       8.659  -3.814  -0.316  1.00  0.00     0.468 C 
ENDBRANCH   6   7
ENDBRANCH   1   6
TORSDOF 4
ENDMDL
