@<TRIPOS>MOLECULE
/home/cewinharhar/GITHUB/reincatalyze/data/processed/docking_pred/2023-May-17-1006_maxeplen10_maxtrainstep1000_seadep16_gamma099_lrac9e-4_lrcr1e-3_sub6/5c54d156b22251270ecdcbd3d684e6dc7dd5ede7_ligand_6.pdbqt
 15 16 0 0 0
SMALL
GASTEIGER

@<TRIPOS>ATOM
      1  C          6.3810    1.3030    0.6200 C.3     1  UNL1        0.1270
      2  C          5.1860    1.2980    1.4500 C.2     1  UNL1        0.3030
      3  O          4.2670    2.1160    1.3890 O.2     1  UNL1       -0.2520
      4  O          5.0670    0.2730    2.4010 O.3     1  UNL1       -0.4810
      5  H          5.3280   -0.6520    2.0950 H       1  UNL1        0.2960
      6  C          6.1660    0.7770   -0.7450 C.3     1  UNL1        0.0470
      7  C          6.9500   -0.3920   -1.1510 C.2     1  UNL1       -0.0430
      8  C          7.2880   -0.6120   -2.4770 C.2     1  UNL1        0.0080
      9  C          7.3410   -1.3270   -0.2290 C.2     1  UNL1        0.0540
     10  C          7.9930   -1.7300   -2.8650 C.2     1  UNL1        0.0510
     11  C          8.0500   -2.4550   -0.5960 C.2     1  UNL1        0.1660
     12  C          8.3790   -2.6600   -1.9140 C.2     1  UNL1        0.1650
     13  O          8.5410   -3.5130    0.1490 O.2     1  UNL1       -0.4540
     14  O          9.0820   -3.8650   -1.9710 O.2     1  UNL1       -0.4540
     15  C          8.9220   -4.5610   -0.7560 C.3     1  UNL1        0.4680
@<TRIPOS>BOND
     1    10     8    1
     2    10    12    2
     3     8     7    2
     4    14    12    1
     5    14    15    1
     6    12    11    1
     7     7     6    1
     8     7     9    1
     9    15    13    1
    10     6     1    1
    11    11     9    2
    12    11    13    1
    13     1     2    1
    14     3     2    2
    15     2     4    1
    16     5     4    1
