@<TRIPOS>MOLECULE
/home/cewinharhar/GITHUB/reincatalyze/data/processed/docking_pred/2023-May-17-1006_maxeplen10_maxtrainstep1000_seadep16_gamma099_lrac9e-4_lrcr1e-3_sub6/5c54d156b22251270ecdcbd3d684e6dc7dd5ede7_ligand_6.pdbqt
 15 16 0 0 0
SMALL
GASTEIGER

@<TRIPOS>ATOM
      1  C          5.4100    2.8720    0.1250 C.3     1  UNL1        0.1270
      2  C          6.2330    3.8540    0.8140 C.2     1  UNL1        0.3030
      3  O          6.8570    4.7700    0.2770 O.2     1  UNL1       -0.2520
      4  O          6.3240    3.7510    2.2110 O.3     1  UNL1       -0.4810
      5  H          6.6750    2.8760    2.5710 H       1  UNL1        0.2960
      6  C          5.3410    1.5620    0.8070 C.3     1  UNL1        0.0470
      7  C          6.1270    0.4630    0.2430 C.2     1  UNL1       -0.0430
      8  C          6.5990   -0.5720    1.0360 C.2     1  UNL1        0.0080
      9  C          6.4530    0.4450   -1.0870 C.2     1  UNL1        0.0540
     10  C          7.3680   -1.5880    0.5140 C.2     1  UNL1        0.0510
     11  C          7.2230   -0.5640   -1.6330 C.2     1  UNL1        0.1660
     12  C          7.6830   -1.5830   -0.8350 C.2     1  UNL1        0.1650
     13  O          7.6680   -0.7840   -2.9250 O.2     1  UNL1       -0.4540
     14  O          8.4210   -2.4370   -1.6570 O.2     1  UNL1       -0.4540
     15  C          8.6840   -1.7970   -2.8840 C.3     1  UNL1        0.4680
@<TRIPOS>BOND
     1    13    15    1
     2    13    11    1
     3    15    14    1
     4    14    12    1
     5    11     9    1
     6    11    12    2
     7     9     7    2
     8    12    10    1
     9     1     6    1
    10     1     2    1
    11     7     6    1
    12     7     8    1
    13     3     2    2
    14    10     8    2
    15     2     4    1
    16     4     5    1
