@<TRIPOS>MOLECULE
/home/cewinharhar/GITHUB/reincatalyze/data/processed/docking_pred/2023-May-17-1006_maxeplen10_maxtrainstep1000_seadep16_gamma099_lrac9e-4_lrcr1e-3_sub6/5e677739909452415bd62a3bb65a8cc9d063ea2f_ligand_6.pdbqt
 15 16 0 0 0
SMALL
GASTEIGER

@<TRIPOS>ATOM
      1  C          6.0050    0.5830    0.2110 C.3     1  UNL1        0.1270
      2  C          5.1740    1.1130    1.2810 C.2     1  UNL1        0.3030
      3  O          4.5820    2.1930    1.2610 O.2     1  UNL1       -0.2520
      4  O          5.0320    0.3280    2.4360 O.3     1  UNL1       -0.4810
      5  H          4.2330   -0.2870    2.4610 H       1  UNL1        0.2960
      6  C          7.1830    1.4200   -0.1040 C.3     1  UNL1        0.0470
      7  C          8.2830    1.4320    0.8630 C.2     1  UNL1       -0.0430
      8  C          8.3080    2.3290    1.9210 C.2     1  UNL1        0.0080
      9  C          9.3450    0.5780    0.7270 C.2     1  UNL1        0.0540
     10  C          9.3590    2.3660    2.8100 C.2     1  UNL1        0.0510
     11  C         10.4100    0.5970    1.6080 C.2     1  UNL1        0.1660
     12  C         10.4210    1.4910    2.6520 C.2     1  UNL1        0.1650
     13  O         11.5680   -0.1580    1.6650 O.2     1  UNL1       -0.4540
     14  O         11.6060    1.2740    3.3550 O.2     1  UNL1       -0.4540
     15  C         12.4730    0.4760    2.5820 C.3     1  UNL1        0.4680
@<TRIPOS>BOND
     1     6     1    1
     2     6     7    1
     3     1     2    1
     4     9     7    2
     5     9    11    1
     6     7     8    1
     7     3     2    2
     8     2     4    1
     9    11    13    1
    10    11    12    2
    11    13    15    1
    12     8    10    2
    13     4     5    1
    14    15    14    1
    15    12    10    1
    16    12    14    1
