@<TRIPOS>MOLECULE
/home/cewinharhar/GITHUB/reincatalyze/data/processed/docking_pred/2023-May-17-1006_maxeplen10_maxtrainstep1000_seadep16_gamma099_lrac9e-4_lrcr1e-3_sub6/5e677739909452415bd62a3bb65a8cc9d063ea2f_ligand_6.pdbqt
 15 16 0 0 0
SMALL
GASTEIGER

@<TRIPOS>ATOM
      1  C          7.5000   -1.6010   -0.9550 C.3     1  UNL1        0.1270
      2  C          7.9950   -1.9500    0.3680 C.2     1  UNL1        0.3030
      3  O          9.1080   -1.6660    0.8140 O.2     1  UNL1       -0.2520
      4  O          7.1330   -2.6710    1.2090 O.3     1  UNL1       -0.4810
      5  H          7.0000   -2.2970    2.1360 H       1  UNL1        0.2960
      6  C          7.8090   -0.2150   -1.3650 C.3     1  UNL1        0.0470
      7  C          7.1870    0.8710   -0.6050 C.2     1  UNL1       -0.0430
      8  C          5.8200    1.0990   -0.6520 C.2     1  UNL1        0.0080
      9  C          7.9490    1.7240    0.1490 C.2     1  UNL1        0.0540
     10  C          5.2390    2.1420    0.0340 C.2     1  UNL1        0.0510
     11  C          7.3870    2.7770    0.8460 C.2     1  UNL1        0.1660
     12  C          6.0310    2.9890    0.7910 C.2     1  UNL1        0.1650
     13  O          7.9510    3.7460    1.6570 O.2     1  UNL1       -0.4540
     14  O          5.7660    4.1080    1.5830 O.2     1  UNL1       -0.4540
     15  C          6.9730    4.7750    1.8740 C.3     1  UNL1        0.4680
@<TRIPOS>BOND
     1     6     1    1
     2     6     7    1
     3     1     2    1
     4     8     7    2
     5     8    10    1
     6     7     9    1
     7    10    12    2
     8     9    11    2
     9     2     3    2
    10     2     4    1
    11    12    11    1
    12    12    14    1
    13    11    13    1
    14     4     5    1
    15    14    15    1
    16    13    15    1
