@<TRIPOS>MOLECULE
/home/cewinharhar/GITHUB/reincatalyze/data/processed/docking_pred/2023-May-17-1006_maxeplen10_maxtrainstep1000_seadep16_gamma099_lrac9e-4_lrcr1e-3_sub6/5e677739909452415bd62a3bb65a8cc9d063ea2f_ligand_6.pdbqt
 15 16 0 0 0
SMALL
GASTEIGER

@<TRIPOS>ATOM
      1  C          5.3450    2.8680    0.0350 C.3     1  UNL1        0.1270
      2  C          6.1830    3.8270    0.7370 C.2     1  UNL1        0.3030
      3  O          6.8430    4.7240    0.2100 O.2     1  UNL1       -0.2520
      4  O          6.2480    3.7240    2.1360 O.3     1  UNL1       -0.4810
      5  H          6.6000    2.8530    2.5020 H       1  UNL1        0.2960
      6  C          5.2480    1.5530    0.7040 C.3     1  UNL1        0.0470
      7  C          6.0390    0.4510    0.1500 C.2     1  UNL1       -0.0430
      8  C          6.4280   -0.6260    0.9310 C.2     1  UNL1        0.0080
      9  C          6.4530    0.4740   -1.1560 C.2     1  UNL1        0.0540
     10  C          7.2020   -1.6440    0.4210 C.2     1  UNL1        0.0510
     11  C          7.2290   -0.5370   -1.6890 C.2     1  UNL1        0.1660
     12  C          7.6070   -1.5990   -0.9030 C.2     1  UNL1        0.1650
     13  O          7.7530   -0.7220   -2.9570 O.2     1  UNL1       -0.4540
     14  O          8.3730   -2.4430   -1.7080 O.2     1  UNL1       -0.4540
     15  C          8.7360   -1.7660   -2.8890 C.3     1  UNL1        0.4680
@<TRIPOS>BOND
     1    13    15    1
     2    13    11    1
     3    15    14    1
     4    14    12    1
     5    11     9    1
     6    11    12    2
     7     9     7    2
     8    12    10    1
     9     1     6    1
    10     1     2    1
    11     7     6    1
    12     7     8    1
    13     3     2    2
    14    10     8    2
    15     2     4    1
    16     4     5    1
