@<TRIPOS>MOLECULE
/home/cewinharhar/GITHUB/reincatalyze/data/processed/docking_pred/2023-May-17-1006_maxeplen10_maxtrainstep1000_seadep16_gamma099_lrac9e-4_lrcr1e-3_sub6/5e677739909452415bd62a3bb65a8cc9d063ea2f_ligand_6.pdbqt
 15 16 0 0 0
SMALL
GASTEIGER

@<TRIPOS>ATOM
      1  C          8.1920   -0.5550   -2.1920 C.3     1  UNL1        0.1270
      2  C          8.4190   -1.8070   -2.8960 C.2     1  UNL1        0.3030
      3  O          9.5130   -2.3510   -3.0580 O.2     1  UNL1       -0.2520
      4  O          7.2980   -2.4530   -3.4400 O.3     1  UNL1       -0.4810
      5  H          7.4850   -3.1740   -4.1200 H       1  UNL1        0.2960
      6  C          6.8790   -0.4750   -1.5170 C.3     1  UNL1        0.0470
      7  C          6.6360    0.6730   -0.6420 C.2     1  UNL1       -0.0430
      8  C          5.4910    1.4460   -0.7610 C.2     1  UNL1        0.0080
      9  C          7.5580    1.0420    0.3010 C.2     1  UNL1        0.0540
     10  C          5.2780    2.5480    0.0380 C.2     1  UNL1        0.0510
     11  C          7.3660    2.1430    1.1140 C.2     1  UNL1        0.1660
     12  C          6.2260    2.8990    0.9850 C.2     1  UNL1        0.1650
     13  O          8.1460    2.6930    2.1160 O.2     1  UNL1       -0.4540
     14  O          6.3150    3.9270    1.9260 O.2     1  UNL1       -0.4540
     15  C          7.6330    4.0000    2.4190 C.3     1  UNL1        0.4680
@<TRIPOS>BOND
     1     5     4    1
     2     4     2    1
     3     3     2    2
     4     2     1    1
     5     1     6    1
     6     6     7    1
     7     8     7    2
     8     8    10    1
     9     7     9    1
    10    10    12    2
    11     9    11    2
    12    12    11    1
    13    12    14    1
    14    11    13    1
    15    14    15    1
    16    13    15    1
