@<TRIPOS>MOLECULE
/home/cewinharhar/GITHUB/reincatalyze/data/processed/docking_pred/2023-May-17-1006_maxeplen10_maxtrainstep1000_seadep16_gamma099_lrac9e-4_lrcr1e-3_sub6/5e677739909452415bd62a3bb65a8cc9d063ea2f_ligand_6.pdbqt
 15 16 0 0 0
SMALL
GASTEIGER

@<TRIPOS>ATOM
      1  C          4.7480    1.9140    0.7890 C.3     1  UNL1        0.1270
      2  C          4.3740    1.1440    1.9650 C.2     1  UNL1        0.3030
      3  O          5.0470    0.2490    2.4810 O.2     1  UNL1       -0.2520
      4  O          3.1410    1.4430    2.5660 O.3     1  UNL1       -0.4810
      5  H          3.1820    1.9190    3.4540 H       1  UNL1        0.2960
      6  C          6.1890    2.2360    0.7160 C.3     1  UNL1        0.0470
      7  C          7.0430    1.3450   -0.0730 C.2     1  UNL1       -0.0430
      8  C          8.4140    1.5320   -0.1460 C.2     1  UNL1        0.0080
      9  C          6.5010    0.3160   -0.7970 C.2     1  UNL1        0.0540
     10  C          9.2140    0.7170   -0.9160 C.2     1  UNL1        0.0510
     11  C          7.2840   -0.5140   -1.5770 C.2     1  UNL1        0.1660
     12  C          8.6420   -0.3170   -1.6380 C.2     1  UNL1        0.1650
     13  O          6.9610   -1.5960   -2.3770 O.2     1  UNL1       -0.4540
     14  O          9.1530   -1.2960   -2.4920 O.2     1  UNL1       -0.4540
     15  C          8.0960   -1.8990   -3.2020 C.3     1  UNL1        0.4680
@<TRIPOS>BOND
     1    15    14    1
     2    15    13    1
     3    14    12    1
     4    13    11    1
     5    12    11    2
     6    12    10    1
     7    11     9    1
     8    10     8    2
     9     9     7    2
    10     8     7    1
    11     7     6    1
    12     6     1    1
    13     1     2    1
    14     2     3    2
    15     2     4    1
    16     4     5    1
