MODEL 1
REMARK VINA RESULT:      -7.7      0.000      0.000
REMARK SMILES O=C(O)CCc1ccc2c(c1)OCO2
REMARK SMILES IDX 4 1 2 2 1 3 3 4 5 6 6 7 7 8 11 9 8 10 10 11 9 12 12 13 14 14
REMARK SMILES IDX 13 15
REMARK H PARENT 3 5
REMARK Flexibility Score: inf
ROOT
ATOM      1  C   UNL     1       8.192  -0.555  -2.192  1.00  0.00     0.127 C 
ENDROOT
BRANCH   1   2
ATOM      2  C   UNL     1       8.419  -1.807  -2.896  1.00  0.00     0.303 C 
ATOM      3  O   UNL     1       9.513  -2.351  -3.058  1.00  0.00    -0.252 OA
BRANCH   2   4
ATOM      4  O   UNL     1       7.298  -2.453  -3.440  1.00  0.00    -0.481 OA
ATOM      5  H   UNL     1       7.485  -3.174  -4.120  1.00  0.00     0.296 HD
ENDBRANCH   2   4
ENDBRANCH   1   2
BRANCH   1   6
ATOM      6  C   UNL     1       6.879  -0.475  -1.517  1.00  0.00     0.047 C 
BRANCH   6   7
ATOM      7  C   UNL     1       6.636   0.673  -0.642  1.00  0.00    -0.043 A 
ATOM      8  C   UNL     1       5.491   1.446  -0.761  1.00  0.00     0.008 A 
ATOM      9  C   UNL     1       7.558   1.042   0.301  1.00  0.00     0.054 A 
ATOM     10  C   UNL     1       5.278   2.548   0.038  1.00  0.00     0.051 A 
ATOM     11  C   UNL     1       7.366   2.143   1.114  1.00  0.00     0.166 A 
ATOM     12  C   UNL     1       6.226   2.899   0.985  1.00  0.00     0.165 A 
ATOM     13  O   UNL     1       8.146   2.693   2.116  1.00  0.00    -0.454 OA
ATOM     14  O   UNL     1       6.315   3.927   1.926  1.00  0.00    -0.454 OA
ATOM     15  C   UNL     1       7.633   4.000   2.419  1.00  0.00     0.468 C 
ENDBRANCH   6   7
ENDBRANCH   1   6
TORSDOF 4
ENDMDL
MODEL 2
REMARK VINA RESULT:      -7.5      1.908      5.642
REMARK SMILES O=C(O)CCc1ccc2c(c1)OCO2
REMARK SMILES IDX 4 1 2 2 1 3 3 4 5 6 6 7 7 8 11 9 8 10 10 11 9 12 12 13 14 14
REMARK SMILES IDX 13 15
REMARK H PARENT 3 5
REMARK Flexibility Score: inf
ROOT
ATOM      1  C   UNL     1       4.748   1.914   0.789  1.00  0.00     0.127 C 
ENDROOT
BRANCH   1   2
ATOM      2  C   UNL     1       4.374   1.144   1.965  1.00  0.00     0.303 C 
ATOM      3  O   UNL     1       5.047   0.249   2.481  1.00  0.00    -0.252 OA
BRANCH   2   4
ATOM      4  O   UNL     1       3.141   1.443   2.566  1.00  0.00    -0.481 OA
ATOM      5  H   UNL     1       3.182   1.919   3.454  1.00  0.00     0.296 HD
ENDBRANCH   2   4
ENDBRANCH   1   2
BRANCH   1   6
ATOM      6  C   UNL     1       6.189   2.236   0.716  1.00  0.00     0.047 C 
BRANCH   6   7
ATOM      7  C   UNL     1       7.043   1.345  -0.073  1.00  0.00    -0.043 A 
ATOM      8  C   UNL     1       8.414   1.532  -0.146  1.00  0.00     0.008 A 
ATOM      9  C   UNL     1       6.501   0.316  -0.797  1.00  0.00     0.054 A 
ATOM     10  C   UNL     1       9.214   0.717  -0.916  1.00  0.00     0.051 A 
ATOM     11  C   UNL     1       7.284  -0.514  -1.577  1.00  0.00     0.166 A 
ATOM     12  C   UNL     1       8.642  -0.317  -1.638  1.00  0.00     0.165 A 
ATOM     13  O   UNL     1       6.961  -1.596  -2.377  1.00  0.00    -0.454 OA
ATOM     14  O   UNL     1       9.153  -1.296  -2.492  1.00  0.00    -0.454 OA
ATOM     15  C   UNL     1       8.096  -1.899  -3.202  1.00  0.00     0.468 C 
ENDBRANCH   6   7
ENDBRANCH   1   6
TORSDOF 4
ENDMDL
MODEL 3
REMARK VINA RESULT:      -7.3      1.418      5.718
REMARK SMILES O=C(O)CCc1ccc2c(c1)OCO2
REMARK SMILES IDX 4 1 2 2 1 3 3 4 5 6 6 7 7 8 11 9 8 10 10 11 9 12 12 13 14 14
REMARK SMILES IDX 13 15
REMARK H PARENT 3 5
REMARK Flexibility Score: inf
ROOT
ATOM      1  C   UNL     1       5.345   2.868   0.035  1.00  0.00     0.127 C 
ENDROOT
BRANCH   1   2
ATOM      2  C   UNL     1       6.183   3.827   0.737  1.00  0.00     0.303 C 
ATOM      3  O   UNL     1       6.843   4.724   0.210  1.00  0.00    -0.252 OA
BRANCH   2   4
ATOM      4  O   UNL     1       6.248   3.724   2.136  1.00  0.00    -0.481 OA
ATOM      5  H   UNL     1       6.600   2.853   2.502  1.00  0.00     0.296 HD
ENDBRANCH   2   4
ENDBRANCH   1   2
BRANCH   1   6
ATOM      6  C   UNL     1       5.248   1.553   0.704  1.00  0.00     0.047 C 
BRANCH   6   7
ATOM      7  C   UNL     1       6.039   0.451   0.150  1.00  0.00    -0.043 A 
ATOM      8  C   UNL     1       6.428  -0.626   0.931  1.00  0.00     0.008 A 
ATOM      9  C   UNL     1       6.453   0.474  -1.156  1.00  0.00     0.054 A 
ATOM     10  C   UNL     1       7.202  -1.644   0.421  1.00  0.00     0.051 A 
ATOM     11  C   UNL     1       7.229  -0.537  -1.689  1.00  0.00     0.166 A 
ATOM     12  C   UNL     1       7.607  -1.599  -0.903  1.00  0.00     0.165 A 
ATOM     13  O   UNL     1       7.753  -0.722  -2.957  1.00  0.00    -0.454 OA
ATOM     14  O   UNL     1       8.373  -2.443  -1.708  1.00  0.00    -0.454 OA
ATOM     15  C   UNL     1       8.736  -1.766  -2.889  1.00  0.00     0.468 C 
ENDBRANCH   6   7
ENDBRANCH   1   6
TORSDOF 4
ENDMDL
MODEL 4
REMARK VINA RESULT:      -7.1      1.933      2.024
REMARK SMILES O=C(O)CCc1ccc2c(c1)OCO2
REMARK SMILES IDX 4 1 2 2 1 3 3 4 5 6 6 7 7 8 11 9 8 10 10 11 9 12 12 13 14 14
REMARK SMILES IDX 13 15
REMARK H PARENT 3 5
REMARK Flexibility Score: inf
ROOT
ATOM      1  C   UNL     1       7.500  -1.601  -0.955  1.00  0.00     0.127 C 
ENDROOT
BRANCH   1   2
ATOM      2  C   UNL     1       7.995  -1.950   0.368  1.00  0.00     0.303 C 
ATOM      3  O   UNL     1       9.108  -1.666   0.814  1.00  0.00    -0.252 OA
BRANCH   2   4
ATOM      4  O   UNL     1       7.133  -2.671   1.209  1.00  0.00    -0.481 OA
ATOM      5  H   UNL     1       7.000  -2.297   2.136  1.00  0.00     0.296 HD
ENDBRANCH   2   4
ENDBRANCH   1   2
BRANCH   1   6
ATOM      6  C   UNL     1       7.809  -0.215  -1.365  1.00  0.00     0.047 C 
BRANCH   6   7
ATOM      7  C   UNL     1       7.187   0.871  -0.605  1.00  0.00    -0.043 A 
ATOM      8  C   UNL     1       5.820   1.099  -0.652  1.00  0.00     0.008 A 
ATOM      9  C   UNL     1       7.949   1.724   0.149  1.00  0.00     0.054 A 
ATOM     10  C   UNL     1       5.239   2.142   0.034  1.00  0.00     0.051 A 
ATOM     11  C   UNL     1       7.387   2.777   0.846  1.00  0.00     0.166 A 
ATOM     12  C   UNL     1       6.031   2.989   0.791  1.00  0.00     0.165 A 
ATOM     13  O   UNL     1       7.951   3.746   1.657  1.00  0.00    -0.454 OA
ATOM     14  O   UNL     1       5.766   4.108   1.583  1.00  0.00    -0.454 OA
ATOM     15  C   UNL     1       6.973   4.775   1.874  1.00  0.00     0.468 C 
ENDBRANCH   6   7
ENDBRANCH   1   6
TORSDOF 4
ENDMDL
MODEL 5
REMARK VINA RESULT:      -7.1      3.263      4.940
REMARK SMILES O=C(O)CCc1ccc2c(c1)OCO2
REMARK SMILES IDX 4 1 2 2 1 3 3 4 5 6 6 7 7 8 11 9 8 10 10 11 9 12 12 13 14 14
REMARK SMILES IDX 13 15
REMARK H PARENT 3 5
REMARK Flexibility Score: inf
ROOT
ATOM      1  C   UNL     1       6.005   0.583   0.211  1.00  0.00     0.127 C 
ENDROOT
BRANCH   1   2
ATOM      2  C   UNL     1       5.174   1.113   1.281  1.00  0.00     0.303 C 
ATOM      3  O   UNL     1       4.582   2.193   1.261  1.00  0.00    -0.252 OA
BRANCH   2   4
ATOM      4  O   UNL     1       5.032   0.328   2.436  1.00  0.00    -0.481 OA
ATOM      5  H   UNL     1       4.233  -0.287   2.461  1.00  0.00     0.296 HD
ENDBRANCH   2   4
ENDBRANCH   1   2
BRANCH   1   6
ATOM      6  C   UNL     1       7.183   1.420  -0.104  1.00  0.00     0.047 C 
BRANCH   6   7
ATOM      7  C   UNL     1       8.283   1.432   0.863  1.00  0.00    -0.043 A 
ATOM      8  C   UNL     1       8.308   2.329   1.921  1.00  0.00     0.008 A 
ATOM      9  C   UNL     1       9.345   0.578   0.727  1.00  0.00     0.054 A 
ATOM     10  C   UNL     1       9.359   2.366   2.810  1.00  0.00     0.051 A 
ATOM     11  C   UNL     1      10.410   0.597   1.608  1.00  0.00     0.166 A 
ATOM     12  C   UNL     1      10.421   1.491   2.652  1.00  0.00     0.165 A 
ATOM     13  O   UNL     1      11.568  -0.158   1.665  1.00  0.00    -0.454 OA
ATOM     14  O   UNL     1      11.606   1.274   3.355  1.00  0.00    -0.454 OA
ATOM     15  C   UNL     1      12.473   0.476   2.582  1.00  0.00     0.468 C 
ENDBRANCH   6   7
ENDBRANCH   1   6
TORSDOF 4
ENDMDL
