@<TRIPOS>MOLECULE
/home/cewinharhar/GITHUB/reincatalyze/data/processed/docking_pred/2023-May-17-1006_maxeplen10_maxtrainstep1000_seadep16_gamma099_lrac9e-4_lrcr1e-3_sub6/5f00cdda1ab61f28c1ea6d7129614616e9231d70_ligand_6.pdbqt
 15 16 0 0 0
SMALL
GASTEIGER

@<TRIPOS>ATOM
      1  C          4.7010    1.8760    0.6800 C.3     1  UNL1        0.1270
      2  C          4.3870    1.1690    1.9110 C.2     1  UNL1        0.3030
      3  O          5.1030    0.3290    2.4590 O.2     1  UNL1       -0.2520
      4  O          3.1630    1.4660    2.5310 O.3     1  UNL1       -0.4810
      5  H          2.5500    2.0900    2.0300 H       1  UNL1        0.2960
      6  C          6.1270    2.2390    0.5430 C.3     1  UNL1        0.0470
      7  C          6.9850    1.3380   -0.2300 C.2     1  UNL1       -0.0430
      8  C          8.3410    1.5830   -0.3850 C.2     1  UNL1        0.0080
      9  C          6.4600    0.2400   -0.8580 C.2     1  UNL1        0.0540
     10  C          9.1410    0.7560   -1.1410 C.2     1  UNL1        0.0510
     11  C          7.2450   -0.6040   -1.6210 C.2     1  UNL1        0.1660
     12  C          8.5870   -0.3500   -1.7650 C.2     1  UNL1        0.1650
     13  O          6.9370   -1.7510   -2.3330 O.2     1  UNL1       -0.4540
     14  O          9.1040   -1.3590   -2.5790 O.2     1  UNL1       -0.4540
     15  C          8.0450   -2.0560   -3.1940 C.3     1  UNL1        0.4680
@<TRIPOS>BOND
     1    15    14    1
     2    15    13    1
     3    14    12    1
     4    13    11    1
     5    12    11    2
     6    12    10    1
     7    11     9    1
     8    10     8    2
     9     9     7    2
    10     8     7    1
    11     7     6    1
    12     6     1    1
    13     1     2    1
    14     2     3    2
    15     2     4    1
    16     5     4    1
