@<TRIPOS>MOLECULE
/home/cewinharhar/GITHUB/reincatalyze/data/processed/docking_pred/2023-May-17-1006_maxeplen10_maxtrainstep1000_seadep16_gamma099_lrac9e-4_lrcr1e-3_sub6/5f00cdda1ab61f28c1ea6d7129614616e9231d70_ligand_6.pdbqt
 15 16 0 0 0
SMALL
GASTEIGER

@<TRIPOS>ATOM
      1  C          5.4640    2.5970    0.3600 C.3     1  UNL1        0.1270
      2  C          6.2040    3.6530    1.0340 C.2     1  UNL1        0.3030
      3  O          6.3900    3.7360    2.2490 O.2     1  UNL1       -0.2520
      4  O          6.7540    4.6660    0.2330 O.3     1  UNL1       -0.4810
      5  H          6.4080    4.7240   -0.7120 H       1  UNL1        0.2960
      6  C          5.5970    1.2700    0.9990 C.3     1  UNL1        0.0470
      7  C          6.3670    0.2490    0.2850 C.2     1  UNL1       -0.0430
      8  C          6.4610    0.2480   -1.0980 C.2     1  UNL1        0.0080
      9  C          6.9880   -0.7630    0.9670 C.2     1  UNL1        0.0540
     10  C          7.1550   -0.7320   -1.7730 C.2     1  UNL1        0.0510
     11  C          7.6910   -1.7560    0.3110 C.2     1  UNL1        0.1660
     12  C          7.7760   -1.7450   -1.0600 C.2     1  UNL1        0.1650
     13  O          8.3850   -2.8560    0.7850 O.2     1  UNL1       -0.4540
     14  O          8.5360   -2.8570   -1.4250 O.2     1  UNL1       -0.4540
     15  C          8.6580   -3.7260   -0.3240 C.3     1  UNL1        0.4680
@<TRIPOS>BOND
     1    10     8    1
     2    10    12    2
     3    14    12    1
     4    14    15    1
     5     8     7    2
     6    12    11    1
     7     5     4    1
     8    15    13    1
     9     4     2    1
    10     7     9    1
    11     7     6    1
    12    11    13    1
    13    11     9    2
    14     1     6    1
    15     1     2    1
    16     2     3    2
