@<TRIPOS>MOLECULE
/home/cewinharhar/GITHUB/reincatalyze/data/processed/docking_pred/2023-May-17-1006_maxeplen10_maxtrainstep1000_seadep16_gamma099_lrac9e-4_lrcr1e-3_sub6/5f00cdda1ab61f28c1ea6d7129614616e9231d70_ligand_6.pdbqt
 15 16 0 0 0
SMALL
GASTEIGER

@<TRIPOS>ATOM
      1  C          8.3050   -0.3250   -2.8660 C.3     1  UNL1        0.1270
      2  C          8.4700   -1.7550   -3.0740 C.2     1  UNL1        0.3030
      3  O          9.5380   -2.3670   -3.0290 O.2     1  UNL1       -0.2520
      4  O          7.3150   -2.5040   -3.3490 O.3     1  UNL1       -0.4810
      5  H          6.8720   -2.9450   -2.5580 H       1  UNL1        0.2960
      6  C          8.7550    0.1450   -1.5390 C.3     1  UNL1        0.0470
      7  C          7.7870    0.1020   -0.4410 C.2     1  UNL1       -0.0430
      8  C          7.7360   -0.9680    0.4390 C.2     1  UNL1        0.0080
      9  C          6.8720    1.1070   -0.2740 C.2     1  UNL1        0.0540
     10  C          6.8030   -1.0270    1.4500 C.2     1  UNL1        0.0510
     11  C          5.9270    1.0700    0.7330 C.2     1  UNL1        0.1660
     12  C          5.8890    0.0040    1.5990 C.2     1  UNL1        0.1650
     13  O          4.9240    1.9560    1.0850 O.2     1  UNL1       -0.4540
     14  O          4.8440    0.2460    2.4920 O.2     1  UNL1       -0.4540
     15  C          4.0380    1.2920    2.0000 C.3     1  UNL1        0.4680
@<TRIPOS>BOND
     1     4     2    1
     2     4     5    1
     3     2     3    2
     4     2     1    1
     5     1     6    1
     6     6     7    1
     7     7     9    2
     8     7     8    1
     9     9    11    1
    10     8    10    2
    11    11    13    1
    12    11    12    2
    13    13    15    1
    14    10    12    1
    15    12    14    1
    16    15    14    1
