@<TRIPOS>MOLECULE
/home/cewinharhar/GITHUB/reincatalyze/data/processed/docking_pred/2023-May-17-1006_maxeplen10_maxtrainstep1000_seadep16_gamma099_lrac9e-4_lrcr1e-3_sub6/5f00cdda1ab61f28c1ea6d7129614616e9231d70_ligand_6.pdbqt
 15 16 0 0 0
SMALL
GASTEIGER

@<TRIPOS>ATOM
      1  C          6.4420    1.2310    0.6980 C.3     1  UNL1        0.1270
      2  C          5.2390    1.1810    1.5150 C.2     1  UNL1        0.3030
      3  O          5.0060    0.3540    2.3980 O.2     1  UNL1       -0.2520
      4  O          4.2580    2.1560    1.2770 O.3     1  UNL1       -0.4810
      5  H          3.5480    2.2560    1.9870 H       1  UNL1        0.2960
      6  C          6.2430    0.7680   -0.6920 C.3     1  UNL1        0.0470
      7  C          6.9960   -0.4110   -1.1270 C.2     1  UNL1       -0.0430
      8  C          7.2810   -0.6350   -2.4650 C.2     1  UNL1        0.0080
      9  C          7.4090   -1.3510   -0.2210 C.2     1  UNL1        0.0540
     10  C          7.9570   -1.7610   -2.8790 C.2     1  UNL1        0.0510
     11  C          8.0890   -2.4880   -0.6130 C.2     1  UNL1        0.1660
     12  C          8.3650   -2.6970   -1.9430 C.2     1  UNL1        0.1650
     13  O          8.5940   -3.5530    0.1120 O.2     1  UNL1       -0.4540
     14  O          9.0500   -3.9110   -2.0260 O.2     1  UNL1       -0.4540
     15  C          8.9270   -4.6050   -0.8070 C.3     1  UNL1        0.4680
@<TRIPOS>BOND
     1    10     8    1
     2    10    12    2
     3     8     7    2
     4    14    12    1
     5    14    15    1
     6    12    11    1
     7     7     6    1
     8     7     9    1
     9    15    13    1
    10     6     1    1
    11    11     9    2
    12    11    13    1
    13     1     2    1
    14     4     2    1
    15     4     5    1
    16     2     3    2
