@<TRIPOS>MOLECULE
/home/cewinharhar/GITHUB/reincatalyze/data/processed/docking_pred/2023-May-17-1006_maxeplen10_maxtrainstep1000_seadep16_gamma099_lrac9e-4_lrcr1e-3_sub6/5f00cdda1ab61f28c1ea6d7129614616e9231d70_ligand_6.pdbqt
 15 16 0 0 0
SMALL
GASTEIGER

@<TRIPOS>ATOM
      1  C          5.4170    2.8710    0.1210 C.3     1  UNL1        0.1270
      2  C          6.2440    3.8550    0.8020 C.2     1  UNL1        0.3030
      3  O          6.8850    4.7540    0.2550 O.2     1  UNL1       -0.2520
      4  O          6.3190    3.7760    2.2020 O.3     1  UNL1       -0.4810
      5  H          5.7910    4.4650    2.7150 H       1  UNL1        0.2960
      6  C          5.3530    1.5630    0.8090 C.3     1  UNL1        0.0470
      7  C          6.1360    0.4620    0.2440 C.2     1  UNL1       -0.0430
      8  C          6.5900   -0.5840    1.0330 C.2     1  UNL1        0.0080
      9  C          6.4780    0.4540   -1.0820 C.2     1  UNL1        0.0540
     10  C          7.3570   -1.6010    0.5110 C.2     1  UNL1        0.0510
     11  C          7.2470   -0.5570   -1.6280 C.2     1  UNL1        0.1660
     12  C          7.6880   -1.5880   -0.8340 C.2     1  UNL1        0.1650
     13  O          7.7050   -0.7690   -2.9160 O.2     1  UNL1       -0.4540
     14  O          8.4280   -2.4400   -1.6550 O.2     1  UNL1       -0.4540
     15  C          8.7120   -1.7910   -2.8730 C.3     1  UNL1        0.4680
@<TRIPOS>BOND
     1    13    15    1
     2    13    11    1
     3    15    14    1
     4    14    12    1
     5    11     9    1
     6    11    12    2
     7     9     7    2
     8    12    10    1
     9     1     2    1
    10     1     6    1
    11     7     6    1
    12     7     8    1
    13     3     2    2
    14    10     8    2
    15     2     4    1
    16     4     5    1
