MODEL 1
REMARK VINA RESULT:      -7.7      0.000      0.000
REMARK SMILES O=C(O)CCc1ccc2c(c1)OCO2
REMARK SMILES IDX 4 1 2 2 1 3 3 4 5 6 6 7 7 8 11 9 8 10 10 11 9 12 12 13 14 14
REMARK SMILES IDX 13 15
REMARK H PARENT 3 5
REMARK Flexibility Score: inf
ROOT
ATOM      1  C   UNL     1       5.417   2.871   0.121  1.00  0.00     0.127 C 
ENDROOT
BRANCH   1   2
ATOM      2  C   UNL     1       6.244   3.855   0.802  1.00  0.00     0.303 C 
ATOM      3  O   UNL     1       6.885   4.754   0.255  1.00  0.00    -0.252 OA
BRANCH   2   4
ATOM      4  O   UNL     1       6.319   3.776   2.202  1.00  0.00    -0.481 OA
ATOM      5  H   UNL     1       5.791   4.465   2.715  1.00  0.00     0.296 HD
ENDBRANCH   2   4
ENDBRANCH   1   2
BRANCH   1   6
ATOM      6  C   UNL     1       5.353   1.563   0.809  1.00  0.00     0.047 C 
BRANCH   6   7
ATOM      7  C   UNL     1       6.136   0.462   0.244  1.00  0.00    -0.043 A 
ATOM      8  C   UNL     1       6.590  -0.584   1.033  1.00  0.00     0.008 A 
ATOM      9  C   UNL     1       6.478   0.454  -1.082  1.00  0.00     0.054 A 
ATOM     10  C   UNL     1       7.357  -1.601   0.511  1.00  0.00     0.051 A 
ATOM     11  C   UNL     1       7.247  -0.557  -1.628  1.00  0.00     0.166 A 
ATOM     12  C   UNL     1       7.688  -1.588  -0.834  1.00  0.00     0.165 A 
ATOM     13  O   UNL     1       7.705  -0.769  -2.916  1.00  0.00    -0.454 OA
ATOM     14  O   UNL     1       8.428  -2.440  -1.655  1.00  0.00    -0.454 OA
ATOM     15  C   UNL     1       8.712  -1.791  -2.873  1.00  0.00     0.468 C 
ENDBRANCH   6   7
ENDBRANCH   1   6
TORSDOF 4
ENDMDL
MODEL 2
REMARK VINA RESULT:      -7.6      2.129      2.523
REMARK SMILES O=C(O)CCc1ccc2c(c1)OCO2
REMARK SMILES IDX 4 1 2 2 1 3 3 4 5 6 6 7 7 8 11 9 8 10 10 11 9 12 12 13 14 14
REMARK SMILES IDX 13 15
REMARK H PARENT 3 5
REMARK Flexibility Score: inf
ROOT
ATOM      1  C   UNL     1       4.701   1.876   0.680  1.00  0.00     0.127 C 
ENDROOT
BRANCH   1   2
ATOM      2  C   UNL     1       4.387   1.169   1.911  1.00  0.00     0.303 C 
ATOM      3  O   UNL     1       5.103   0.329   2.459  1.00  0.00    -0.252 OA
BRANCH   2   4
ATOM      4  O   UNL     1       3.163   1.466   2.531  1.00  0.00    -0.481 OA
ATOM      5  H   UNL     1       2.550   2.090   2.030  1.00  0.00     0.296 HD
ENDBRANCH   2   4
ENDBRANCH   1   2
BRANCH   1   6
ATOM      6  C   UNL     1       6.127   2.239   0.543  1.00  0.00     0.047 C 
BRANCH   6   7
ATOM      7  C   UNL     1       6.985   1.338  -0.230  1.00  0.00    -0.043 A 
ATOM      8  C   UNL     1       8.341   1.583  -0.385  1.00  0.00     0.008 A 
ATOM      9  C   UNL     1       6.460   0.240  -0.858  1.00  0.00     0.054 A 
ATOM     10  C   UNL     1       9.141   0.756  -1.141  1.00  0.00     0.051 A 
ATOM     11  C   UNL     1       7.245  -0.604  -1.621  1.00  0.00     0.166 A 
ATOM     12  C   UNL     1       8.587  -0.350  -1.765  1.00  0.00     0.165 A 
ATOM     13  O   UNL     1       6.937  -1.751  -2.333  1.00  0.00    -0.454 OA
ATOM     14  O   UNL     1       9.104  -1.359  -2.579  1.00  0.00    -0.454 OA
ATOM     15  C   UNL     1       8.045  -2.056  -3.194  1.00  0.00     0.468 C 
ENDBRANCH   6   7
ENDBRANCH   1   6
TORSDOF 4
ENDMDL
MODEL 3
REMARK VINA RESULT:      -7.5      1.987      2.994
REMARK SMILES O=C(O)CCc1ccc2c(c1)OCO2
REMARK SMILES IDX 4 1 2 2 1 3 3 4 5 6 6 7 7 8 11 9 8 10 10 11 9 12 12 13 14 14
REMARK SMILES IDX 13 15
REMARK H PARENT 3 5
REMARK Flexibility Score: inf
ROOT
ATOM      1  C   UNL     1       6.442   1.231   0.698  1.00  0.00     0.127 C 
ENDROOT
BRANCH   1   2
ATOM      2  C   UNL     1       5.239   1.181   1.515  1.00  0.00     0.303 C 
ATOM      3  O   UNL     1       5.006   0.354   2.398  1.00  0.00    -0.252 OA
BRANCH   2   4
ATOM      4  O   UNL     1       4.258   2.156   1.277  1.00  0.00    -0.481 OA
ATOM      5  H   UNL     1       3.548   2.256   1.987  1.00  0.00     0.296 HD
ENDBRANCH   2   4
ENDBRANCH   1   2
BRANCH   1   6
ATOM      6  C   UNL     1       6.243   0.768  -0.692  1.00  0.00     0.047 C 
BRANCH   6   7
ATOM      7  C   UNL     1       6.996  -0.411  -1.127  1.00  0.00    -0.043 A 
ATOM      8  C   UNL     1       7.281  -0.635  -2.465  1.00  0.00     0.008 A 
ATOM      9  C   UNL     1       7.409  -1.351  -0.221  1.00  0.00     0.054 A 
ATOM     10  C   UNL     1       7.957  -1.761  -2.879  1.00  0.00     0.051 A 
ATOM     11  C   UNL     1       8.089  -2.488  -0.613  1.00  0.00     0.166 A 
ATOM     12  C   UNL     1       8.365  -2.697  -1.943  1.00  0.00     0.165 A 
ATOM     13  O   UNL     1       8.594  -3.553   0.112  1.00  0.00    -0.454 OA
ATOM     14  O   UNL     1       9.050  -3.911  -2.026  1.00  0.00    -0.454 OA
ATOM     15  C   UNL     1       8.927  -4.605  -0.807  1.00  0.00     0.468 C 
ENDBRANCH   6   7
ENDBRANCH   1   6
TORSDOF 4
ENDMDL
MODEL 4
REMARK VINA RESULT:      -7.4      1.788      5.284
REMARK SMILES O=C(O)CCc1ccc2c(c1)OCO2
REMARK SMILES IDX 4 1 2 2 1 3 3 4 5 6 6 7 7 8 11 9 8 10 10 11 9 12 12 13 14 14
REMARK SMILES IDX 13 15
REMARK H PARENT 3 5
REMARK Flexibility Score: inf
ROOT
ATOM      1  C   UNL     1       8.305  -0.325  -2.866  1.00  0.00     0.127 C 
ENDROOT
BRANCH   1   2
ATOM      2  C   UNL     1       8.470  -1.755  -3.074  1.00  0.00     0.303 C 
ATOM      3  O   UNL     1       9.538  -2.367  -3.029  1.00  0.00    -0.252 OA
BRANCH   2   4
ATOM      4  O   UNL     1       7.315  -2.504  -3.349  1.00  0.00    -0.481 OA
ATOM      5  H   UNL     1       6.872  -2.945  -2.558  1.00  0.00     0.296 HD
ENDBRANCH   2   4
ENDBRANCH   1   2
BRANCH   1   6
ATOM      6  C   UNL     1       8.755   0.145  -1.539  1.00  0.00     0.047 C 
BRANCH   6   7
ATOM      7  C   UNL     1       7.787   0.102  -0.441  1.00  0.00    -0.043 A 
ATOM      8  C   UNL     1       7.736  -0.968   0.439  1.00  0.00     0.008 A 
ATOM      9  C   UNL     1       6.872   1.107  -0.274  1.00  0.00     0.054 A 
ATOM     10  C   UNL     1       6.803  -1.027   1.450  1.00  0.00     0.051 A 
ATOM     11  C   UNL     1       5.927   1.070   0.733  1.00  0.00     0.166 A 
ATOM     12  C   UNL     1       5.889   0.004   1.599  1.00  0.00     0.165 A 
ATOM     13  O   UNL     1       4.924   1.956   1.085  1.00  0.00    -0.454 OA
ATOM     14  O   UNL     1       4.844   0.246   2.492  1.00  0.00    -0.454 OA
ATOM     15  C   UNL     1       4.038   1.292   2.000  1.00  0.00     0.468 C 
ENDBRANCH   6   7
ENDBRANCH   1   6
TORSDOF 4
ENDMDL
MODEL 5
REMARK VINA RESULT:      -7.4      0.973      2.110
REMARK SMILES O=C(O)CCc1ccc2c(c1)OCO2
REMARK SMILES IDX 4 1 2 2 1 3 3 4 5 6 6 7 7 8 11 9 8 10 10 11 9 12 12 13 14 14
REMARK SMILES IDX 13 15
REMARK H PARENT 3 5
REMARK Flexibility Score: inf
ROOT
ATOM      1  C   UNL     1       5.464   2.597   0.360  1.00  0.00     0.127 C 
ENDROOT
BRANCH   1   2
ATOM      2  C   UNL     1       6.204   3.653   1.034  1.00  0.00     0.303 C 
ATOM      3  O   UNL     1       6.390   3.736   2.249  1.00  0.00    -0.252 OA
BRANCH   2   4
ATOM      4  O   UNL     1       6.754   4.666   0.233  1.00  0.00    -0.481 OA
ATOM      5  H   UNL     1       6.408   4.724  -0.712  1.00  0.00     0.296 HD
ENDBRANCH   2   4
ENDBRANCH   1   2
BRANCH   1   6
ATOM      6  C   UNL     1       5.597   1.270   0.999  1.00  0.00     0.047 C 
BRANCH   6   7
ATOM      7  C   UNL     1       6.367   0.249   0.285  1.00  0.00    -0.043 A 
ATOM      8  C   UNL     1       6.461   0.248  -1.098  1.00  0.00     0.008 A 
ATOM      9  C   UNL     1       6.988  -0.763   0.967  1.00  0.00     0.054 A 
ATOM     10  C   UNL     1       7.155  -0.732  -1.773  1.00  0.00     0.051 A 
ATOM     11  C   UNL     1       7.691  -1.756   0.311  1.00  0.00     0.166 A 
ATOM     12  C   UNL     1       7.776  -1.745  -1.060  1.00  0.00     0.165 A 
ATOM     13  O   UNL     1       8.385  -2.856   0.785  1.00  0.00    -0.454 OA
ATOM     14  O   UNL     1       8.536  -2.857  -1.425  1.00  0.00    -0.454 OA
ATOM     15  C   UNL     1       8.658  -3.726  -0.324  1.00  0.00     0.468 C 
ENDBRANCH   6   7
ENDBRANCH   1   6
TORSDOF 4
ENDMDL
