@<TRIPOS>MOLECULE
/home/cewinharhar/GITHUB/reincatalyze/data/processed/docking_pred/2023-May-17-1006_maxeplen10_maxtrainstep1000_seadep16_gamma099_lrac9e-4_lrcr1e-3_sub6/5f7ce1df4e505eeb6c5bd28a98530cf3f623dbf2_ligand_6.pdbqt
 15 16 0 0 0
SMALL
GASTEIGER

@<TRIPOS>ATOM
      1  C          4.6920    1.8480    0.6880 C.3     1  UNL1        0.1270
      2  C          4.3980    1.1430    1.9250 C.2     1  UNL1        0.3030
      3  O          5.1310    0.3170    2.4720 O.2     1  UNL1       -0.2520
      4  O          3.1740    1.4260    2.5530 O.3     1  UNL1       -0.4810
      5  H          2.4920    1.9180    1.9970 H       1  UNL1        0.2960
      6  C          6.1140    2.2230    0.5340 C.3     1  UNL1        0.0470
      7  C          6.9730    1.3220   -0.2370 C.2     1  UNL1       -0.0430
      8  C          8.3340    1.5540   -0.3680 C.2     1  UNL1        0.0080
      9  C          6.4460    0.2390   -0.8880 C.2     1  UNL1        0.0540
     10  C          9.1360    0.7270   -1.1220 C.2     1  UNL1        0.0510
     11  C          7.2320   -0.6050   -1.6500 C.2     1  UNL1        0.1660
     12  C          8.5790   -0.3640   -1.7700 C.2     1  UNL1        0.1650
     13  O          6.9230   -1.7380   -2.3810 O.2     1  UNL1       -0.4540
     14  O          9.0970   -1.3680   -2.5890 O.2     1  UNL1       -0.4540
     15  C          8.0400   -2.0450   -3.2290 C.3     1  UNL1        0.4680
@<TRIPOS>BOND
     1    15    14    1
     2    15    13    1
     3    14    12    1
     4    13    11    1
     5    12    11    2
     6    12    10    1
     7    11     9    1
     8    10     8    2
     9     9     7    2
    10     8     7    1
    11     7     6    1
    12     6     1    1
    13     1     2    1
    14     2     3    2
    15     2     4    1
    16     5     4    1
