@<TRIPOS>MOLECULE
/home/cewinharhar/GITHUB/reincatalyze/data/processed/docking_pred/2023-May-17-1006_maxeplen10_maxtrainstep1000_seadep16_gamma099_lrac9e-4_lrcr1e-3_sub6/5f7ce1df4e505eeb6c5bd28a98530cf3f623dbf2_ligand_6.pdbqt
 15 16 0 0 0
SMALL
GASTEIGER

@<TRIPOS>ATOM
      1  C          6.4280    1.3060    0.7540 C.3     1  UNL1        0.1270
      2  C          5.1820    1.3120    1.5040 C.2     1  UNL1        0.3030
      3  O          4.2650    2.1230    1.3650 O.2     1  UNL1       -0.2520
      4  O          5.0060    0.3090    2.4710 O.3     1  UNL1       -0.4810
      5  H          4.0560    0.1230    2.7520 H       1  UNL1        0.2960
      6  C          6.2730    0.9140   -0.6630 C.3     1  UNL1        0.0470
      7  C          7.0090   -0.2650   -1.1240 C.2     1  UNL1       -0.0430
      8  C          7.2730   -0.4750   -2.4690 C.2     1  UNL1        0.0080
      9  C          7.4260   -1.2220   -0.2360 C.2     1  UNL1        0.0540
     10  C          7.9330   -1.6020   -2.9070 C.2     1  UNL1        0.0510
     11  C          8.0900   -2.3600   -0.6530 C.2     1  UNL1        0.1660
     12  C          8.3460   -2.5540   -1.9890 C.2     1  UNL1        0.1650
     13  O          8.5960   -3.4380    0.0510 O.2     1  UNL1       -0.4540
     14  O          9.0190   -3.7720   -2.0980 O.2     1  UNL1       -0.4540
     15  C          8.9060   -4.4810   -0.8850 C.3     1  UNL1        0.4680
@<TRIPOS>BOND
     1    10     8    1
     2    10    12    2
     3     8     7    2
     4    14    12    1
     5    14    15    1
     6    12    11    1
     7     7     6    1
     8     7     9    1
     9    15    13    1
    10     6     1    1
    11    11     9    2
    12    11    13    1
    13     1     2    1
    14     3     2    2
    15     2     4    1
    16     4     5    1
