MODEL 1
REMARK VINA RESULT:      -7.7      0.000      0.000
REMARK SMILES O=C(O)CCc1ccc2c(c1)OCO2
REMARK SMILES IDX 4 1 2 2 1 3 3 4 5 6 6 7 7 8 11 9 8 10 10 11 9 12 12 13 14 14
REMARK SMILES IDX 13 15
REMARK H PARENT 3 5
REMARK Flexibility Score: inf
ROOT
ATOM      1  C   UNL     1       5.423   2.870   0.114  1.00  0.00     0.127 C 
ENDROOT
BRANCH   1   2
ATOM      2  C   UNL     1       6.251   3.852   0.797  1.00  0.00     0.303 C 
ATOM      3  O   UNL     1       6.919   4.732   0.250  1.00  0.00    -0.252 OA
BRANCH   2   4
ATOM      4  O   UNL     1       6.294   3.795   2.199  1.00  0.00    -0.481 OA
ATOM      5  H   UNL     1       5.858   4.561   2.689  1.00  0.00     0.296 HD
ENDBRANCH   2   4
ENDBRANCH   1   2
BRANCH   1   6
ATOM      6  C   UNL     1       5.358   1.561   0.797  1.00  0.00     0.047 C 
BRANCH   6   7
ATOM      7  C   UNL     1       6.131   0.458   0.222  1.00  0.00    -0.043 A 
ATOM      8  C   UNL     1       6.561  -0.608   0.998  1.00  0.00     0.008 A 
ATOM      9  C   UNL     1       6.486   0.466  -1.101  1.00  0.00     0.054 A 
ATOM     10  C   UNL     1       7.318  -1.628   0.467  1.00  0.00     0.051 A 
ATOM     11  C   UNL     1       7.245  -0.547  -1.656  1.00  0.00     0.166 A 
ATOM     12  C   UNL     1       7.663  -1.597  -0.875  1.00  0.00     0.165 A 
ATOM     13  O   UNL     1       7.713  -0.744  -2.943  1.00  0.00    -0.454 OA
ATOM     14  O   UNL     1       8.399  -2.447  -1.702  1.00  0.00    -0.454 OA
ATOM     15  C   UNL     1       8.704  -1.782  -2.907  1.00  0.00     0.468 C 
ENDBRANCH   6   7
ENDBRANCH   1   6
TORSDOF 4
ENDMDL
MODEL 2
REMARK VINA RESULT:      -7.6      2.131      2.523
REMARK SMILES O=C(O)CCc1ccc2c(c1)OCO2
REMARK SMILES IDX 4 1 2 2 1 3 3 4 5 6 6 7 7 8 11 9 8 10 10 11 9 12 12 13 14 14
REMARK SMILES IDX 13 15
REMARK H PARENT 3 5
REMARK Flexibility Score: inf
ROOT
ATOM      1  C   UNL     1       4.692   1.848   0.688  1.00  0.00     0.127 C 
ENDROOT
BRANCH   1   2
ATOM      2  C   UNL     1       4.398   1.143   1.925  1.00  0.00     0.303 C 
ATOM      3  O   UNL     1       5.131   0.317   2.472  1.00  0.00    -0.252 OA
BRANCH   2   4
ATOM      4  O   UNL     1       3.174   1.426   2.553  1.00  0.00    -0.481 OA
ATOM      5  H   UNL     1       2.492   1.918   1.997  1.00  0.00     0.296 HD
ENDBRANCH   2   4
ENDBRANCH   1   2
BRANCH   1   6
ATOM      6  C   UNL     1       6.114   2.223   0.534  1.00  0.00     0.047 C 
BRANCH   6   7
ATOM      7  C   UNL     1       6.973   1.322  -0.237  1.00  0.00    -0.043 A 
ATOM      8  C   UNL     1       8.334   1.554  -0.368  1.00  0.00     0.008 A 
ATOM      9  C   UNL     1       6.446   0.239  -0.888  1.00  0.00     0.054 A 
ATOM     10  C   UNL     1       9.136   0.727  -1.122  1.00  0.00     0.051 A 
ATOM     11  C   UNL     1       7.232  -0.605  -1.650  1.00  0.00     0.166 A 
ATOM     12  C   UNL     1       8.579  -0.364  -1.770  1.00  0.00     0.165 A 
ATOM     13  O   UNL     1       6.923  -1.738  -2.381  1.00  0.00    -0.454 OA
ATOM     14  O   UNL     1       9.097  -1.368  -2.589  1.00  0.00    -0.454 OA
ATOM     15  C   UNL     1       8.040  -2.045  -3.229  1.00  0.00     0.468 C 
ENDBRANCH   6   7
ENDBRANCH   1   6
TORSDOF 4
ENDMDL
MODEL 3
REMARK VINA RESULT:      -7.5      1.814      5.285
REMARK SMILES O=C(O)CCc1ccc2c(c1)OCO2
REMARK SMILES IDX 4 1 2 2 1 3 3 4 5 6 6 7 7 8 11 9 8 10 10 11 9 12 12 13 14 14
REMARK SMILES IDX 13 15
REMARK H PARENT 3 5
REMARK Flexibility Score: inf
ROOT
ATOM      1  C   UNL     1       8.304  -0.320  -2.832  1.00  0.00     0.127 C 
ENDROOT
BRANCH   1   2
ATOM      2  C   UNL     1       8.470  -1.746  -3.065  1.00  0.00     0.303 C 
ATOM      3  O   UNL     1       9.538  -2.359  -3.031  1.00  0.00    -0.252 OA
BRANCH   2   4
ATOM      4  O   UNL     1       7.315  -2.490  -3.353  1.00  0.00    -0.481 OA
ATOM      5  H   UNL     1       7.274  -2.911  -4.268  1.00  0.00     0.296 HD
ENDBRANCH   2   4
ENDBRANCH   1   2
BRANCH   1   6
ATOM      6  C   UNL     1       8.764   0.128  -1.500  1.00  0.00     0.047 C 
BRANCH   6   7
ATOM      7  C   UNL     1       7.797   0.090  -0.401  1.00  0.00    -0.043 A 
ATOM      8  C   UNL     1       7.765  -0.961   0.502  1.00  0.00     0.008 A 
ATOM      9  C   UNL     1       6.863   1.082  -0.257  1.00  0.00     0.054 A 
ATOM     10  C   UNL     1       6.833  -1.016   1.513  1.00  0.00     0.051 A 
ATOM     11  C   UNL     1       5.918   1.049   0.751  1.00  0.00     0.166 A 
ATOM     12  C   UNL     1       5.899   0.001   1.640  1.00  0.00     0.165 A 
ATOM     13  O   UNL     1       4.898   1.923   1.084  1.00  0.00    -0.454 OA
ATOM     14  O   UNL     1       4.850   0.243   2.527  1.00  0.00    -0.454 OA
ATOM     15  C   UNL     1       4.025   1.263   2.013  1.00  0.00     0.468 C 
ENDBRANCH   6   7
ENDBRANCH   1   6
TORSDOF 4
ENDMDL
MODEL 4
REMARK VINA RESULT:      -7.5      1.964      2.861
REMARK SMILES O=C(O)CCc1ccc2c(c1)OCO2
REMARK SMILES IDX 4 1 2 2 1 3 3 4 5 6 6 7 7 8 11 9 8 10 10 11 9 12 12 13 14 14
REMARK SMILES IDX 13 15
REMARK H PARENT 3 5
REMARK Flexibility Score: inf
ROOT
ATOM      1  C   UNL     1       6.428   1.306   0.754  1.00  0.00     0.127 C 
ENDROOT
BRANCH   1   2
ATOM      2  C   UNL     1       5.182   1.312   1.504  1.00  0.00     0.303 C 
ATOM      3  O   UNL     1       4.265   2.123   1.365  1.00  0.00    -0.252 OA
BRANCH   2   4
ATOM      4  O   UNL     1       5.006   0.309   2.471  1.00  0.00    -0.481 OA
ATOM      5  H   UNL     1       4.056   0.123   2.752  1.00  0.00     0.296 HD
ENDBRANCH   2   4
ENDBRANCH   1   2
BRANCH   1   6
ATOM      6  C   UNL     1       6.273   0.914  -0.663  1.00  0.00     0.047 C 
BRANCH   6   7
ATOM      7  C   UNL     1       7.009  -0.265  -1.124  1.00  0.00    -0.043 A 
ATOM      8  C   UNL     1       7.273  -0.475  -2.469  1.00  0.00     0.008 A 
ATOM      9  C   UNL     1       7.426  -1.222  -0.236  1.00  0.00     0.054 A 
ATOM     10  C   UNL     1       7.933  -1.602  -2.907  1.00  0.00     0.051 A 
ATOM     11  C   UNL     1       8.090  -2.360  -0.653  1.00  0.00     0.166 A 
ATOM     12  C   UNL     1       8.346  -2.554  -1.989  1.00  0.00     0.165 A 
ATOM     13  O   UNL     1       8.596  -3.438   0.051  1.00  0.00    -0.454 OA
ATOM     14  O   UNL     1       9.019  -3.772  -2.098  1.00  0.00    -0.454 OA
ATOM     15  C   UNL     1       8.906  -4.481  -0.885  1.00  0.00     0.468 C 
ENDBRANCH   6   7
ENDBRANCH   1   6
TORSDOF 4
ENDMDL
MODEL 5
REMARK VINA RESULT:      -7.5      0.982      2.142
REMARK SMILES O=C(O)CCc1ccc2c(c1)OCO2
REMARK SMILES IDX 4 1 2 2 1 3 3 4 5 6 6 7 7 8 11 9 8 10 10 11 9 12 12 13 14 14
REMARK SMILES IDX 13 15
REMARK H PARENT 3 5
REMARK Flexibility Score: inf
ROOT
ATOM      1  C   UNL     1       5.404   2.811   0.073  1.00  0.00     0.127 C 
ENDROOT
BRANCH   1   2
ATOM      2  C   UNL     1       6.109   3.820   0.847  1.00  0.00     0.303 C 
ATOM      3  O   UNL     1       6.086   3.928   2.075  1.00  0.00    -0.252 OA
BRANCH   2   4
ATOM      4  O   UNL     1       6.882   4.753   0.139  1.00  0.00    -0.481 OA
ATOM      5  H   UNL     1       6.457   5.150  -0.685  1.00  0.00     0.296 HD
ENDBRANCH   2   4
ENDBRANCH   1   2
BRANCH   1   6
ATOM      6  C   UNL     1       5.370   1.479   0.712  1.00  0.00     0.047 C 
BRANCH   6   7
ATOM      7  C   UNL     1       6.225   0.433   0.144  1.00  0.00    -0.043 A 
ATOM      8  C   UNL     1       6.552   0.417  -1.203  1.00  0.00     0.008 A 
ATOM      9  C   UNL     1       6.697  -0.587   0.926  1.00  0.00     0.054 A 
ATOM     10  C   UNL     1       7.325  -0.585  -1.746  1.00  0.00     0.051 A 
ATOM     11  C   UNL     1       7.475  -1.603   0.404  1.00  0.00     0.166 A 
ATOM     12  C   UNL     1       7.792  -1.605  -0.933  1.00  0.00     0.165 A 
ATOM     13  O   UNL     1       8.052  -2.714   0.994  1.00  0.00    -0.454 OA
ATOM     14  O   UNL     1       8.575  -2.738  -1.159  1.00  0.00    -0.454 OA
ATOM     15  C   UNL     1       8.487  -3.601  -0.048  1.00  0.00     0.468 C 
ENDBRANCH   6   7
ENDBRANCH   1   6
TORSDOF 4
ENDMDL
