@<TRIPOS>MOLECULE
/home/cewinharhar/GITHUB/reincatalyze/data/processed/docking_pred/2023-May-17-1006_maxeplen10_maxtrainstep1000_seadep16_gamma099_lrac9e-4_lrcr1e-3_sub6/5f7ce1df4e505eeb6c5bd28a98530cf3f623dbf2_ligand_6.pdbqt
 15 16 0 0 0
SMALL
GASTEIGER

@<TRIPOS>ATOM
      1  C          5.4040    2.8110    0.0730 C.3     1  UNL1        0.1270
      2  C          6.1090    3.8200    0.8470 C.2     1  UNL1        0.3030
      3  O          6.0860    3.9280    2.0750 O.2     1  UNL1       -0.2520
      4  O          6.8820    4.7530    0.1390 O.3     1  UNL1       -0.4810
      5  H          6.4570    5.1500   -0.6850 H       1  UNL1        0.2960
      6  C          5.3700    1.4790    0.7120 C.3     1  UNL1        0.0470
      7  C          6.2250    0.4330    0.1440 C.2     1  UNL1       -0.0430
      8  C          6.5520    0.4170   -1.2030 C.2     1  UNL1        0.0080
      9  C          6.6970   -0.5870    0.9260 C.2     1  UNL1        0.0540
     10  C          7.3250   -0.5850   -1.7460 C.2     1  UNL1        0.0510
     11  C          7.4750   -1.6030    0.4040 C.2     1  UNL1        0.1660
     12  C          7.7920   -1.6050   -0.9330 C.2     1  UNL1        0.1650
     13  O          8.0520   -2.7140    0.9940 O.2     1  UNL1       -0.4540
     14  O          8.5750   -2.7380   -1.1590 O.2     1  UNL1       -0.4540
     15  C          8.4870   -3.6010   -0.0480 C.3     1  UNL1        0.4680
@<TRIPOS>BOND
     1    10     8    1
     2    10    12    2
     3     8     7    2
     4    14    12    1
     5    14    15    1
     6    12    11    1
     7     5     4    1
     8    15    13    1
     9     1     6    1
    10     1     2    1
    11     4     2    1
    12     7     6    1
    13     7     9    1
    14    11     9    2
    15    11    13    1
    16     2     3    2
