@<TRIPOS>MOLECULE
/home/cewinharhar/GITHUB/reincatalyze/data/processed/docking_pred/2023-May-17-1006_maxeplen10_maxtrainstep1000_seadep16_gamma099_lrac9e-4_lrcr1e-3_sub6/5f7ce1df4e505eeb6c5bd28a98530cf3f623dbf2_ligand_6.pdbqt
 15 16 0 0 0
SMALL
GASTEIGER

@<TRIPOS>ATOM
      1  C          8.3040   -0.3200   -2.8320 C.3     1  UNL1        0.1270
      2  C          8.4700   -1.7460   -3.0650 C.2     1  UNL1        0.3030
      3  O          9.5380   -2.3590   -3.0310 O.2     1  UNL1       -0.2520
      4  O          7.3150   -2.4900   -3.3530 O.3     1  UNL1       -0.4810
      5  H          7.2740   -2.9110   -4.2680 H       1  UNL1        0.2960
      6  C          8.7640    0.1280   -1.5000 C.3     1  UNL1        0.0470
      7  C          7.7970    0.0900   -0.4010 C.2     1  UNL1       -0.0430
      8  C          7.7650   -0.9610    0.5020 C.2     1  UNL1        0.0080
      9  C          6.8630    1.0820   -0.2570 C.2     1  UNL1        0.0540
     10  C          6.8330   -1.0160    1.5130 C.2     1  UNL1        0.0510
     11  C          5.9180    1.0490    0.7510 C.2     1  UNL1        0.1660
     12  C          5.8990    0.0010    1.6400 C.2     1  UNL1        0.1650
     13  O          4.8980    1.9230    1.0840 O.2     1  UNL1       -0.4540
     14  O          4.8500    0.2430    2.5270 O.2     1  UNL1       -0.4540
     15  C          4.0250    1.2630    2.0130 C.3     1  UNL1        0.4680
@<TRIPOS>BOND
     1     5     4    1
     2     4     2    1
     3     2     3    2
     4     2     1    1
     5     1     6    1
     6     6     7    1
     7     7     9    2
     8     7     8    1
     9     9    11    1
    10     8    10    2
    11    11    13    1
    12    11    12    2
    13    13    15    1
    14    10    12    1
    15    12    14    1
    16    15    14    1
