MODEL 1
REMARK VINA RESULT:      -7.7      0.000      0.000
REMARK SMILES O=C(O)CCc1ccc2c(c1)OCO2
REMARK SMILES IDX 4 1 2 2 1 3 3 4 5 6 6 7 7 8 11 9 8 10 10 11 9 12 12 13 14 14
REMARK SMILES IDX 13 15
REMARK H PARENT 3 5
REMARK Flexibility Score: inf
ROOT
ATOM      1  C   UNL     1       5.379   2.888   0.087  1.00  0.00     0.127 C 
ENDROOT
BRANCH   1   2
ATOM      2  C   UNL     1       6.213   3.861   0.776  1.00  0.00     0.303 C 
ATOM      3  O   UNL     1       6.865   4.756   0.236  1.00  0.00    -0.252 OA
BRANCH   2   4
ATOM      4  O   UNL     1       6.283   3.773   2.175  1.00  0.00    -0.481 OA
ATOM      5  H   UNL     1       7.188   3.553   2.562  1.00  0.00     0.296 HD
ENDBRANCH   2   4
ENDBRANCH   1   2
BRANCH   1   6
ATOM      6  C   UNL     1       5.293   1.580   0.771  1.00  0.00     0.047 C 
BRANCH   6   7
ATOM      7  C   UNL     1       6.084   0.476   0.223  1.00  0.00    -0.043 A 
ATOM      8  C   UNL     1       6.550  -0.551   1.029  1.00  0.00     0.008 A 
ATOM      9  C   UNL     1       6.422   0.448  -1.104  1.00  0.00     0.054 A 
ATOM     10  C   UNL     1       7.324  -1.571   0.522  1.00  0.00     0.051 A 
ATOM     11  C   UNL     1       7.198  -0.565  -1.635  1.00  0.00     0.166 A 
ATOM     12  C   UNL     1       7.651  -1.578  -0.825  1.00  0.00     0.165 A 
ATOM     13  O   UNL     1       7.654  -0.796  -2.921  1.00  0.00    -0.454 OA
ATOM     14  O   UNL     1       8.396  -2.438  -1.633  1.00  0.00    -0.454 OA
ATOM     15  C   UNL     1       8.670  -1.808  -2.863  1.00  0.00     0.468 C 
ENDBRANCH   6   7
ENDBRANCH   1   6
TORSDOF 4
ENDMDL
MODEL 2
REMARK VINA RESULT:      -7.6      2.130      2.516
REMARK SMILES O=C(O)CCc1ccc2c(c1)OCO2
REMARK SMILES IDX 4 1 2 2 1 3 3 4 5 6 6 7 7 8 11 9 8 10 10 11 9 12 12 13 14 14
REMARK SMILES IDX 13 15
REMARK H PARENT 3 5
REMARK Flexibility Score: inf
ROOT
ATOM      1  C   UNL     1       4.717   1.883   0.695  1.00  0.00     0.127 C 
ENDROOT
BRANCH   1   2
ATOM      2  C   UNL     1       4.400   1.164   1.919  1.00  0.00     0.303 C 
ATOM      3  O   UNL     1       5.118   0.323   2.463  1.00  0.00    -0.252 OA
BRANCH   2   4
ATOM      4  O   UNL     1       3.171   1.450   2.535  1.00  0.00    -0.481 OA
ATOM      5  H   UNL     1       2.535   2.031   2.011  1.00  0.00     0.296 HD
ENDBRANCH   2   4
ENDBRANCH   1   2
BRANCH   1   6
ATOM      6  C   UNL     1       6.147   2.232   0.557  1.00  0.00     0.047 C 
BRANCH   6   7
ATOM      7  C   UNL     1       6.992   1.326  -0.225  1.00  0.00    -0.043 A 
ATOM      8  C   UNL     1       8.353   1.548  -0.368  1.00  0.00     0.008 A 
ATOM      9  C   UNL     1       6.451   0.248  -0.873  1.00  0.00     0.054 A 
ATOM     10  C   UNL     1       9.142   0.718  -1.132  1.00  0.00     0.051 A 
ATOM     11  C   UNL     1       7.223  -0.599  -1.644  1.00  0.00     0.166 A 
ATOM     12  C   UNL     1       8.571  -0.368  -1.777  1.00  0.00     0.165 A 
ATOM     13  O   UNL     1       6.899  -1.728  -2.376  1.00  0.00    -0.454 OA
ATOM     14  O   UNL     1       9.074  -1.374  -2.603  1.00  0.00    -0.454 OA
ATOM     15  C   UNL     1       8.006  -2.041  -3.235  1.00  0.00     0.468 C 
ENDBRANCH   6   7
ENDBRANCH   1   6
TORSDOF 4
ENDMDL
MODEL 3
REMARK VINA RESULT:      -7.5      1.969      2.893
REMARK SMILES O=C(O)CCc1ccc2c(c1)OCO2
REMARK SMILES IDX 4 1 2 2 1 3 3 4 5 6 6 7 7 8 11 9 8 10 10 11 9 12 12 13 14 14
REMARK SMILES IDX 13 15
REMARK H PARENT 3 5
REMARK Flexibility Score: inf
ROOT
ATOM      1  C   UNL     1       6.396   1.280   0.645  1.00  0.00     0.127 C 
ENDROOT
BRANCH   1   2
ATOM      2  C   UNL     1       5.169   1.328   1.425  1.00  0.00     0.303 C 
ATOM      3  O   UNL     1       4.265   2.155   1.289  1.00  0.00    -0.252 OA
BRANCH   2   4
ATOM      4  O   UNL     1       4.997   0.350   2.417  1.00  0.00    -0.481 OA
ATOM      5  H   UNL     1       5.482   0.507   3.286  1.00  0.00     0.296 HD
ENDBRANCH   2   4
ENDBRANCH   1   2
BRANCH   1   6
ATOM      6  C   UNL     1       6.208   0.799  -0.740  1.00  0.00     0.047 C 
BRANCH   6   7
ATOM      7  C   UNL     1       6.969  -0.381  -1.157  1.00  0.00    -0.043 A 
ATOM      8  C   UNL     1       7.269  -0.617  -2.490  1.00  0.00     0.008 A 
ATOM      9  C   UNL     1       7.376  -1.312  -0.238  1.00  0.00     0.054 A 
ATOM     10  C   UNL     1       7.953  -1.744  -2.886  1.00  0.00     0.051 A 
ATOM     11  C   UNL     1       8.064  -2.450  -0.613  1.00  0.00     0.166 A 
ATOM     12  C   UNL     1       8.355  -2.670  -1.937  1.00  0.00     0.165 A 
ATOM     13  O   UNL     1       8.565  -3.506   0.128  1.00  0.00    -0.454 OA
ATOM     14  O   UNL     1       9.045  -3.882  -2.002  1.00  0.00    -0.454 OA
ATOM     15  C   UNL     1       8.911  -4.566  -0.778  1.00  0.00     0.468 C 
ENDBRANCH   6   7
ENDBRANCH   1   6
TORSDOF 4
ENDMDL
MODEL 4
REMARK VINA RESULT:      -7.5      1.797      5.255
REMARK SMILES O=C(O)CCc1ccc2c(c1)OCO2
REMARK SMILES IDX 4 1 2 2 1 3 3 4 5 6 6 7 7 8 11 9 8 10 10 11 9 12 12 13 14 14
REMARK SMILES IDX 13 15
REMARK H PARENT 3 5
REMARK Flexibility Score: inf
ROOT
ATOM      1  C   UNL     1       8.259  -0.186  -2.846  1.00  0.00     0.127 C 
ENDROOT
BRANCH   1   2
ATOM      2  C   UNL     1       8.498  -1.607  -3.048  1.00  0.00     0.303 C 
ATOM      3  O   UNL     1       9.586  -2.174  -2.931  1.00  0.00    -0.252 OA
BRANCH   2   4
ATOM      4  O   UNL     1       7.398  -2.401  -3.407  1.00  0.00    -0.481 OA
ATOM      5  H   UNL     1       7.269  -3.249  -2.876  1.00  0.00     0.296 HD
ENDBRANCH   2   4
ENDBRANCH   1   2
BRANCH   1   6
ATOM      6  C   UNL     1       8.705   0.316  -1.529  1.00  0.00     0.047 C 
BRANCH   6   7
ATOM      7  C   UNL     1       7.751   0.246  -0.419  1.00  0.00    -0.043 A 
ATOM      8  C   UNL     1       7.763  -0.809   0.480  1.00  0.00     0.008 A 
ATOM      9  C   UNL     1       6.789   1.208  -0.261  1.00  0.00     0.054 A 
ATOM     10  C   UNL     1       6.844  -0.895   1.503  1.00  0.00     0.051 A 
ATOM     11  C   UNL     1       5.858   1.142   0.758  1.00  0.00     0.166 A 
ATOM     12  C   UNL     1       5.882   0.092   1.643  1.00  0.00     0.165 A 
ATOM     13  O   UNL     1       4.815   1.984   1.105  1.00  0.00    -0.454 OA
ATOM     14  O   UNL     1       4.835   0.299   2.543  1.00  0.00    -0.454 OA
ATOM     15  C   UNL     1       3.974   1.294   2.042  1.00  0.00     0.468 C 
ENDBRANCH   6   7
ENDBRANCH   1   6
TORSDOF 4
ENDMDL
