@<TRIPOS>MOLECULE
/home/cewinharhar/GITHUB/reincatalyze/data/processed/docking_pred/2023-May-17-1006_maxeplen10_maxtrainstep1000_seadep16_gamma099_lrac9e-4_lrcr1e-3_sub6/6047b5c71b47d2a809e14c46b0582b8ae3076bc9_ligand_6.pdbqt
 15 16 0 0 0
SMALL
GASTEIGER

@<TRIPOS>ATOM
      1  C          8.3180   -0.3250   -2.8530 C.3     1  UNL1        0.1270
      2  C          8.4750   -1.7540   -3.0770 C.2     1  UNL1        0.3030
      3  O          9.5420   -2.3710   -3.0470 O.2     1  UNL1       -0.2520
      4  O          7.3150   -2.4950   -3.3510 O.3     1  UNL1       -0.4810
      5  H          7.2410   -2.8780   -4.2810 H       1  UNL1        0.2960
      6  C          8.7690    0.1270   -1.5200 C.3     1  UNL1        0.0470
      7  C          7.7950    0.0890   -0.4270 C.2     1  UNL1       -0.0430
      8  C          7.7310   -0.9830    0.4500 C.2     1  UNL1        0.0080
      9  C          6.8880    1.1020   -0.2620 C.2     1  UNL1        0.0540
     10  C          6.7930   -1.0370    1.4560 C.2     1  UNL1        0.0510
     11  C          5.9380    1.0700    0.7410 C.2     1  UNL1        0.1660
     12  C          5.8870    0.0010    1.6040 C.2     1  UNL1        0.1650
     13  O          4.9400    1.9630    1.0910 O.2     1  UNL1       -0.4540
     14  O          4.8390    0.2500    2.4920 O.2     1  UNL1       -0.4540
     15  C          4.0450    1.3040    2.0000 C.3     1  UNL1        0.4680
@<TRIPOS>BOND
     1     5     4    1
     2     4     2    1
     3     2     3    2
     4     2     1    1
     5     1     6    1
     6     6     7    1
     7     7     9    2
     8     7     8    1
     9     9    11    1
    10     8    10    2
    11    11    13    1
    12    11    12    2
    13    13    15    1
    14    10    12    1
    15    12    14    1
    16    15    14    1
