@<TRIPOS>MOLECULE
/home/cewinharhar/GITHUB/reincatalyze/data/processed/docking_pred/2023-May-17-1006_maxeplen10_maxtrainstep1000_seadep16_gamma099_lrac9e-4_lrcr1e-3_sub6/6047b5c71b47d2a809e14c46b0582b8ae3076bc9_ligand_6.pdbqt
 15 16 0 0 0
SMALL
GASTEIGER

@<TRIPOS>ATOM
      1  C          6.3960    1.2800    0.6450 C.3     1  UNL1        0.1270
      2  C          5.1690    1.3280    1.4250 C.2     1  UNL1        0.3030
      3  O          4.2650    2.1550    1.2890 O.2     1  UNL1       -0.2520
      4  O          4.9970    0.3500    2.4170 O.3     1  UNL1       -0.4810
      5  H          5.4820    0.5070    3.2860 H       1  UNL1        0.2960
      6  C          6.2080    0.7990   -0.7400 C.3     1  UNL1        0.0470
      7  C          6.9690   -0.3810   -1.1570 C.2     1  UNL1       -0.0430
      8  C          7.2690   -0.6170   -2.4900 C.2     1  UNL1        0.0080
      9  C          7.3760   -1.3120   -0.2380 C.2     1  UNL1        0.0540
     10  C          7.9530   -1.7440   -2.8860 C.2     1  UNL1        0.0510
     11  C          8.0640   -2.4500   -0.6130 C.2     1  UNL1        0.1660
     12  C          8.3550   -2.6700   -1.9370 C.2     1  UNL1        0.1650
     13  O          8.5650   -3.5060    0.1280 O.2     1  UNL1       -0.4540
     14  O          9.0450   -3.8820   -2.0020 O.2     1  UNL1       -0.4540
     15  C          8.9110   -4.5660   -0.7780 C.3     1  UNL1        0.4680
@<TRIPOS>BOND
     1    10     8    1
     2    10    12    2
     3     8     7    2
     4    14    12    1
     5    14    15    1
     6    12    11    1
     7     7     6    1
     8     7     9    1
     9    15    13    1
    10     6     1    1
    11    11     9    2
    12    11    13    1
    13     1     2    1
    14     3     2    2
    15     2     4    1
    16     4     5    1
