@<TRIPOS>MOLECULE
/home/cewinharhar/GITHUB/reincatalyze/data/processed/docking_pred/2023-May-17-1006_maxeplen10_maxtrainstep1000_seadep16_gamma099_lrac9e-4_lrcr1e-3_sub6/6047b5c71b47d2a809e14c46b0582b8ae3076bc9_ligand_6.pdbqt
 15 16 0 0 0
SMALL
GASTEIGER

@<TRIPOS>ATOM
      1  C          4.7170    1.8830    0.6950 C.3     1  UNL1        0.1270
      2  C          4.4000    1.1640    1.9190 C.2     1  UNL1        0.3030
      3  O          5.1180    0.3230    2.4630 O.2     1  UNL1       -0.2520
      4  O          3.1710    1.4500    2.5350 O.3     1  UNL1       -0.4810
      5  H          2.5350    2.0310    2.0110 H       1  UNL1        0.2960
      6  C          6.1470    2.2320    0.5570 C.3     1  UNL1        0.0470
      7  C          6.9920    1.3260   -0.2250 C.2     1  UNL1       -0.0430
      8  C          8.3530    1.5480   -0.3680 C.2     1  UNL1        0.0080
      9  C          6.4510    0.2480   -0.8730 C.2     1  UNL1        0.0540
     10  C          9.1420    0.7180   -1.1320 C.2     1  UNL1        0.0510
     11  C          7.2230   -0.5990   -1.6440 C.2     1  UNL1        0.1660
     12  C          8.5710   -0.3680   -1.7770 C.2     1  UNL1        0.1650
     13  O          6.8990   -1.7280   -2.3760 O.2     1  UNL1       -0.4540
     14  O          9.0740   -1.3740   -2.6030 O.2     1  UNL1       -0.4540
     15  C          8.0060   -2.0410   -3.2350 C.3     1  UNL1        0.4680
@<TRIPOS>BOND
     1    15    14    1
     2    15    13    1
     3    14    12    1
     4    13    11    1
     5    12    11    2
     6    12    10    1
     7    11     9    1
     8    10     8    2
     9     9     7    2
    10     8     7    1
    11     7     6    1
    12     6     1    1
    13     1     2    1
    14     2     3    2
    15     2     4    1
    16     5     4    1
