@<TRIPOS>MOLECULE
/home/cewinharhar/GITHUB/reincatalyze/data/processed/docking_pred/2023-May-17-1006_maxeplen10_maxtrainstep1000_seadep16_gamma099_lrac9e-4_lrcr1e-3_sub6/6047b5c71b47d2a809e14c46b0582b8ae3076bc9_ligand_6.pdbqt
 15 16 0 0 0
SMALL
GASTEIGER

@<TRIPOS>ATOM
      1  C          5.3790    2.8880    0.0870 C.3     1  UNL1        0.1270
      2  C          6.2130    3.8610    0.7760 C.2     1  UNL1        0.3030
      3  O          6.8650    4.7560    0.2360 O.2     1  UNL1       -0.2520
      4  O          6.2830    3.7730    2.1750 O.3     1  UNL1       -0.4810
      5  H          7.1880    3.5530    2.5620 H       1  UNL1        0.2960
      6  C          5.2930    1.5800    0.7710 C.3     1  UNL1        0.0470
      7  C          6.0840    0.4760    0.2230 C.2     1  UNL1       -0.0430
      8  C          6.5500   -0.5510    1.0290 C.2     1  UNL1        0.0080
      9  C          6.4220    0.4480   -1.1040 C.2     1  UNL1        0.0540
     10  C          7.3240   -1.5710    0.5220 C.2     1  UNL1        0.0510
     11  C          7.1980   -0.5650   -1.6350 C.2     1  UNL1        0.1660
     12  C          7.6510   -1.5780   -0.8250 C.2     1  UNL1        0.1650
     13  O          7.6540   -0.7960   -2.9210 O.2     1  UNL1       -0.4540
     14  O          8.3960   -2.4380   -1.6330 O.2     1  UNL1       -0.4540
     15  C          8.6700   -1.8080   -2.8630 C.3     1  UNL1        0.4680
@<TRIPOS>BOND
     1    13    15    1
     2    13    11    1
     3    15    14    1
     4    11     9    1
     5    11    12    2
     6    14    12    1
     7     9     7    2
     8    12    10    1
     9     1     6    1
    10     1     2    1
    11     7     6    1
    12     7     8    1
    13     3     2    2
    14    10     8    2
    15     2     4    1
    16     4     5    1
