@<TRIPOS>MOLECULE
/home/cewinharhar/GITHUB/reincatalyze/data/processed/docking_pred/2023-May-17-1006_maxeplen10_maxtrainstep1000_seadep16_gamma099_lrac9e-4_lrcr1e-3_sub6/6047b5c71b47d2a809e14c46b0582b8ae3076bc9_ligand_6.pdbqt
 15 16 0 0 0
SMALL
GASTEIGER

@<TRIPOS>ATOM
      1  C          8.2590   -0.1860   -2.8460 C.3     1  UNL1        0.1270
      2  C          8.4980   -1.6070   -3.0480 C.2     1  UNL1        0.3030
      3  O          9.5860   -2.1740   -2.9310 O.2     1  UNL1       -0.2520
      4  O          7.3980   -2.4010   -3.4070 O.3     1  UNL1       -0.4810
      5  H          7.2690   -3.2490   -2.8760 H       1  UNL1        0.2960
      6  C          8.7050    0.3160   -1.5290 C.3     1  UNL1        0.0470
      7  C          7.7510    0.2460   -0.4190 C.2     1  UNL1       -0.0430
      8  C          7.7630   -0.8090    0.4800 C.2     1  UNL1        0.0080
      9  C          6.7890    1.2080   -0.2610 C.2     1  UNL1        0.0540
     10  C          6.8440   -0.8950    1.5030 C.2     1  UNL1        0.0510
     11  C          5.8580    1.1420    0.7580 C.2     1  UNL1        0.1660
     12  C          5.8820    0.0920    1.6430 C.2     1  UNL1        0.1650
     13  O          4.8150    1.9840    1.1050 O.2     1  UNL1       -0.4540
     14  O          4.8350    0.2990    2.5430 O.2     1  UNL1       -0.4540
     15  C          3.9740    1.2940    2.0420 C.3     1  UNL1        0.4680
@<TRIPOS>BOND
     1     4     2    1
     2     4     5    1
     3     2     3    2
     4     2     1    1
     5     1     6    1
     6     6     7    1
     7     7     9    2
     8     7     8    1
     9     9    11    1
    10     8    10    2
    11    11    13    1
    12    11    12    2
    13    13    15    1
    14    10    12    1
    15    12    14    1
    16    15    14    1
