MODEL 1
REMARK VINA RESULT:      -7.6      0.000      0.000
REMARK SMILES O=C(O)CCc1ccc2c(c1)OCO2
REMARK SMILES IDX 4 1 2 2 1 3 3 4 5 6 6 7 7 8 11 9 8 10 10 11 9 12 12 13 14 14
REMARK SMILES IDX 13 15
REMARK H PARENT 3 5
REMARK Flexibility Score: inf
ROOT
ATOM      1  C   UNL     1       5.426   2.872   0.113  1.00  0.00     0.127 C 
ENDROOT
BRANCH   1   2
ATOM      2  C   UNL     1       6.259   3.858   0.784  1.00  0.00     0.303 C 
ATOM      3  O   UNL     1       6.912   4.743   0.228  1.00  0.00    -0.252 OA
BRANCH   2   4
ATOM      4  O   UNL     1       6.324   3.800   2.185  1.00  0.00    -0.481 OA
ATOM      5  H   UNL     1       6.880   4.511   2.635  1.00  0.00     0.296 HD
ENDBRANCH   2   4
ENDBRANCH   1   2
BRANCH   1   6
ATOM      6  C   UNL     1       5.368   1.566   0.804  1.00  0.00     0.047 C 
BRANCH   6   7
ATOM      7  C   UNL     1       6.140   0.462   0.232  1.00  0.00    -0.043 A 
ATOM      8  C   UNL     1       6.585  -0.593   1.014  1.00  0.00     0.008 A 
ATOM      9  C   UNL     1       6.481   0.459  -1.094  1.00  0.00     0.054 A 
ATOM     10  C   UNL     1       7.342  -1.614   0.485  1.00  0.00     0.051 A 
ATOM     11  C   UNL     1       7.240  -0.555  -1.648  1.00  0.00     0.166 A 
ATOM     12  C   UNL     1       7.673  -1.595  -0.861  1.00  0.00     0.165 A 
ATOM     13  O   UNL     1       7.695  -0.763  -2.938  1.00  0.00    -0.454 OA
ATOM     14  O   UNL     1       8.404  -2.449  -1.688  1.00  0.00    -0.454 OA
ATOM     15  C   UNL     1       8.693  -1.795  -2.902  1.00  0.00     0.468 C 
ENDBRANCH   6   7
ENDBRANCH   1   6
TORSDOF 4
ENDMDL
MODEL 2
REMARK VINA RESULT:      -7.6      2.136      2.525
REMARK SMILES O=C(O)CCc1ccc2c(c1)OCO2
REMARK SMILES IDX 4 1 2 2 1 3 3 4 5 6 6 7 7 8 11 9 8 10 10 11 9 12 12 13 14 14
REMARK SMILES IDX 13 15
REMARK H PARENT 3 5
REMARK Flexibility Score: inf
ROOT
ATOM      1  C   UNL     1       4.725   1.878   0.697  1.00  0.00     0.127 C 
ENDROOT
BRANCH   1   2
ATOM      2  C   UNL     1       4.406   1.160   1.921  1.00  0.00     0.303 C 
ATOM      3  O   UNL     1       5.123   0.319   2.467  1.00  0.00    -0.252 OA
BRANCH   2   4
ATOM      4  O   UNL     1       3.177   1.447   2.535  1.00  0.00    -0.481 OA
ATOM      5  H   UNL     1       3.153   2.268   3.120  1.00  0.00     0.296 HD
ENDBRANCH   2   4
ENDBRANCH   1   2
BRANCH   1   6
ATOM      6  C   UNL     1       6.156   2.224   0.560  1.00  0.00     0.047 C 
BRANCH   6   7
ATOM      7  C   UNL     1       6.999   1.320  -0.225  1.00  0.00    -0.043 A 
ATOM      8  C   UNL     1       8.359   1.547  -0.377  1.00  0.00     0.008 A 
ATOM      9  C   UNL     1       6.458   0.239  -0.868  1.00  0.00     0.054 A 
ATOM     10  C   UNL     1       9.146   0.718  -1.145  1.00  0.00     0.051 A 
ATOM     11  C   UNL     1       7.229  -0.607  -1.643  1.00  0.00     0.166 A 
ATOM     12  C   UNL     1       8.575  -0.370  -1.784  1.00  0.00     0.165 A 
ATOM     13  O   UNL     1       6.904  -1.738  -2.370  1.00  0.00    -0.454 OA
ATOM     14  O   UNL     1       9.076  -1.377  -2.611  1.00  0.00    -0.454 OA
ATOM     15  C   UNL     1       8.007  -2.049  -3.235  1.00  0.00     0.468 C 
ENDBRANCH   6   7
ENDBRANCH   1   6
TORSDOF 4
ENDMDL
MODEL 3
REMARK VINA RESULT:      -7.5      1.998      2.985
REMARK SMILES O=C(O)CCc1ccc2c(c1)OCO2
REMARK SMILES IDX 4 1 2 2 1 3 3 4 5 6 6 7 7 8 11 9 8 10 10 11 9 12 12 13 14 14
REMARK SMILES IDX 13 15
REMARK H PARENT 3 5
REMARK Flexibility Score: inf
ROOT
ATOM      1  C   UNL     1       6.436   1.279   0.735  1.00  0.00     0.127 C 
ENDROOT
BRANCH   1   2
ATOM      2  C   UNL     1       5.251   1.156   1.568  1.00  0.00     0.303 C 
ATOM      3  O   UNL     1       5.071   0.303   2.439  1.00  0.00    -0.252 OA
BRANCH   2   4
ATOM      4  O   UNL     1       4.221   2.089   1.365  1.00  0.00    -0.481 OA
ATOM      5  H   UNL     1       4.483   2.949   0.908  1.00  0.00     0.296 HD
ENDBRANCH   2   4
ENDBRANCH   1   2
BRANCH   1   6
ATOM      6  C   UNL     1       6.241   0.820  -0.657  1.00  0.00     0.047 C 
BRANCH   6   7
ATOM      7  C   UNL     1       6.990  -0.361  -1.092  1.00  0.00    -0.043 A 
ATOM      8  C   UNL     1       7.275  -0.587  -2.430  1.00  0.00     0.008 A 
ATOM      9  C   UNL     1       7.398  -1.304  -0.186  1.00  0.00     0.054 A 
ATOM     10  C   UNL     1       7.947  -1.715  -2.844  1.00  0.00     0.051 A 
ATOM     11  C   UNL     1       8.074  -2.444  -0.579  1.00  0.00     0.166 A 
ATOM     12  C   UNL     1       8.351  -2.653  -1.908  1.00  0.00     0.165 A 
ATOM     13  O   UNL     1       8.574  -3.511   0.147  1.00  0.00    -0.454 OA
ATOM     14  O   UNL     1       9.031  -3.869  -1.991  1.00  0.00    -0.454 OA
ATOM     15  C   UNL     1       8.904  -4.564  -0.772  1.00  0.00     0.468 C 
ENDBRANCH   6   7
ENDBRANCH   1   6
TORSDOF 4
ENDMDL
MODEL 4
REMARK VINA RESULT:      -7.5      1.806      5.259
REMARK SMILES O=C(O)CCc1ccc2c(c1)OCO2
REMARK SMILES IDX 4 1 2 2 1 3 3 4 5 6 6 7 7 8 11 9 8 10 10 11 9 12 12 13 14 14
REMARK SMILES IDX 13 15
REMARK H PARENT 3 5
REMARK Flexibility Score: inf
ROOT
ATOM      1  C   UNL     1       8.263  -0.191  -2.822  1.00  0.00     0.127 C 
ENDROOT
BRANCH   1   2
ATOM      2  C   UNL     1       8.494  -1.612  -3.032  1.00  0.00     0.303 C 
ATOM      3  O   UNL     1       9.581  -2.183  -2.938  1.00  0.00    -0.252 OA
BRANCH   2   4
ATOM      4  O   UNL     1       7.384  -2.401  -3.371  1.00  0.00    -0.481 OA
ATOM      5  H   UNL     1       7.351  -3.322  -2.962  1.00  0.00     0.296 HD
ENDBRANCH   2   4
ENDBRANCH   1   2
BRANCH   1   6
ATOM      6  C   UNL     1       8.707   0.300  -1.500  1.00  0.00     0.047 C 
BRANCH   6   7
ATOM      7  C   UNL     1       7.746   0.236  -0.396  1.00  0.00    -0.043 A 
ATOM      8  C   UNL     1       7.752  -0.814   0.509  1.00  0.00     0.008 A 
ATOM      9  C   UNL     1       6.783   1.198  -0.249  1.00  0.00     0.054 A 
ATOM     10  C   UNL     1       6.826  -0.895   1.525  1.00  0.00     0.051 A 
ATOM     11  C   UNL     1       5.844   1.138   0.763  1.00  0.00     0.166 A 
ATOM     12  C   UNL     1       5.863   0.092   1.654  1.00  0.00     0.165 A 
ATOM     13  O   UNL     1       4.799   1.981   1.099  1.00  0.00    -0.454 OA
ATOM     14  O   UNL     1       4.810   0.304   2.546  1.00  0.00    -0.454 OA
ATOM     15  C   UNL     1       3.952   1.297   2.033  1.00  0.00     0.468 C 
ENDBRANCH   6   7
ENDBRANCH   1   6
TORSDOF 4
ENDMDL
