@<TRIPOS>MOLECULE
/home/cewinharhar/GITHUB/reincatalyze/data/processed/docking_pred/2023-May-17-1006_maxeplen10_maxtrainstep1000_seadep16_gamma099_lrac9e-4_lrcr1e-3_sub6/6070aa1b8336213875ea865ca7f6d729a9af33a9_ligand_6.pdbqt
 15 16 0 0 0
SMALL
GASTEIGER

@<TRIPOS>ATOM
      1  C          5.4260    2.8720    0.1130 C.3     1  UNL1        0.1270
      2  C          6.2590    3.8580    0.7840 C.2     1  UNL1        0.3030
      3  O          6.9120    4.7430    0.2280 O.2     1  UNL1       -0.2520
      4  O          6.3240    3.8000    2.1850 O.3     1  UNL1       -0.4810
      5  H          6.8800    4.5110    2.6350 H       1  UNL1        0.2960
      6  C          5.3680    1.5660    0.8040 C.3     1  UNL1        0.0470
      7  C          6.1400    0.4620    0.2320 C.2     1  UNL1       -0.0430
      8  C          6.5850   -0.5930    1.0140 C.2     1  UNL1        0.0080
      9  C          6.4810    0.4590   -1.0940 C.2     1  UNL1        0.0540
     10  C          7.3420   -1.6140    0.4850 C.2     1  UNL1        0.0510
     11  C          7.2400   -0.5550   -1.6480 C.2     1  UNL1        0.1660
     12  C          7.6730   -1.5950   -0.8610 C.2     1  UNL1        0.1650
     13  O          7.6950   -0.7630   -2.9380 O.2     1  UNL1       -0.4540
     14  O          8.4040   -2.4490   -1.6880 O.2     1  UNL1       -0.4540
     15  C          8.6930   -1.7950   -2.9020 C.3     1  UNL1        0.4680
@<TRIPOS>BOND
     1    13    15    1
     2    13    11    1
     3    15    14    1
     4    14    12    1
     5    11     9    1
     6    11    12    2
     7     9     7    2
     8    12    10    1
     9     1     2    1
    10     1     6    1
    11     3     2    2
    12     7     6    1
    13     7     8    1
    14    10     8    2
    15     2     4    1
    16     4     5    1
