@<TRIPOS>MOLECULE
/home/cewinharhar/GITHUB/reincatalyze/data/processed/docking_pred/2023-May-17-1006_maxeplen10_maxtrainstep1000_seadep16_gamma099_lrac9e-4_lrcr1e-3_sub6/6070aa1b8336213875ea865ca7f6d729a9af33a9_ligand_6.pdbqt
 15 16 0 0 0
SMALL
GASTEIGER

@<TRIPOS>ATOM
      1  C          5.3730    2.8410    0.2390 C.3     1  UNL1        0.1270
      2  C          6.2320    3.7730    0.9540 C.2     1  UNL1        0.3030
      3  O          6.4530    3.7590    2.1660 O.2     1  UNL1       -0.2520
      4  O          6.8640    4.7750    0.2000 O.3     1  UNL1       -0.4810
      5  H          7.1530    4.5160   -0.7300 H       1  UNL1        0.2960
      6  C          5.3400    1.4850    0.8260 C.3     1  UNL1        0.0470
      7  C          6.1920    0.4620    0.2150 C.2     1  UNL1       -0.0430
      8  C          6.4850    0.4770   -1.1400 C.2     1  UNL1        0.0080
      9  C          6.6950   -0.5690    0.9640 C.2     1  UNL1        0.0540
     10  C          7.2560   -0.5050   -1.7220 C.2     1  UNL1        0.0510
     11  C          7.4710   -1.5640    0.4020 C.2     1  UNL1        0.1660
     12  C          7.7550   -1.5360   -0.9420 C.2     1  UNL1        0.1650
     13  O          8.0760   -2.6800    0.9540 O.2     1  UNL1       -0.4540
     14  O          8.5450   -2.6550   -1.2110 O.2     1  UNL1       -0.4540
     15  C          8.4940   -3.5400   -0.1170 C.3     1  UNL1        0.4680
@<TRIPOS>BOND
     1    10     8    1
     2    10    12    2
     3    14    12    1
     4    14    15    1
     5     8     7    2
     6    12    11    1
     7     5     4    1
     8    15    13    1
     9     4     2    1
    10     7     6    1
    11     7     9    1
    12     1     6    1
    13     1     2    1
    14    11    13    1
    15    11     9    2
    16     2     3    2
