@<TRIPOS>MOLECULE
/home/cewinharhar/GITHUB/reincatalyze/data/processed/docking_pred/2023-May-17-1006_maxeplen10_maxtrainstep1000_seadep16_gamma099_lrac9e-4_lrcr1e-3_sub6/6070aa1b8336213875ea865ca7f6d729a9af33a9_ligand_6.pdbqt
 15 16 0 0 0
SMALL
GASTEIGER

@<TRIPOS>ATOM
      1  C          6.4360    1.2790    0.7350 C.3     1  UNL1        0.1270
      2  C          5.2510    1.1560    1.5680 C.2     1  UNL1        0.3030
      3  O          5.0710    0.3030    2.4390 O.2     1  UNL1       -0.2520
      4  O          4.2210    2.0890    1.3650 O.3     1  UNL1       -0.4810
      5  H          4.4830    2.9490    0.9080 H       1  UNL1        0.2960
      6  C          6.2410    0.8200   -0.6570 C.3     1  UNL1        0.0470
      7  C          6.9900   -0.3610   -1.0920 C.2     1  UNL1       -0.0430
      8  C          7.2750   -0.5870   -2.4300 C.2     1  UNL1        0.0080
      9  C          7.3980   -1.3040   -0.1860 C.2     1  UNL1        0.0540
     10  C          7.9470   -1.7150   -2.8440 C.2     1  UNL1        0.0510
     11  C          8.0740   -2.4440   -0.5790 C.2     1  UNL1        0.1660
     12  C          8.3510   -2.6530   -1.9080 C.2     1  UNL1        0.1650
     13  O          8.5740   -3.5110    0.1470 O.2     1  UNL1       -0.4540
     14  O          9.0310   -3.8690   -1.9910 O.2     1  UNL1       -0.4540
     15  C          8.9040   -4.5640   -0.7720 C.3     1  UNL1        0.4680
@<TRIPOS>BOND
     1    10     8    1
     2    10    12    2
     3     8     7    2
     4    14    12    1
     5    14    15    1
     6    12    11    1
     7     7     6    1
     8     7     9    1
     9    15    13    1
    10     6     1    1
    11    11     9    2
    12    11    13    1
    13     1     2    1
    14     5     4    1
    15     4     2    1
    16     2     3    2
