@<TRIPOS>MOLECULE
/home/cewinharhar/GITHUB/reincatalyze/data/processed/docking_pred/2023-May-17-1006_maxeplen10_maxtrainstep1000_seadep16_gamma099_lrac9e-4_lrcr1e-3_sub6/6070aa1b8336213875ea865ca7f6d729a9af33a9_ligand_6.pdbqt
 15 16 0 0 0
SMALL
GASTEIGER

@<TRIPOS>ATOM
      1  C          8.2630   -0.1910   -2.8220 C.3     1  UNL1        0.1270
      2  C          8.4940   -1.6120   -3.0320 C.2     1  UNL1        0.3030
      3  O          9.5810   -2.1830   -2.9380 O.2     1  UNL1       -0.2520
      4  O          7.3840   -2.4010   -3.3710 O.3     1  UNL1       -0.4810
      5  H          7.3510   -3.3220   -2.9620 H       1  UNL1        0.2960
      6  C          8.7070    0.3000   -1.5000 C.3     1  UNL1        0.0470
      7  C          7.7460    0.2360   -0.3960 C.2     1  UNL1       -0.0430
      8  C          7.7520   -0.8140    0.5090 C.2     1  UNL1        0.0080
      9  C          6.7830    1.1980   -0.2490 C.2     1  UNL1        0.0540
     10  C          6.8260   -0.8950    1.5250 C.2     1  UNL1        0.0510
     11  C          5.8440    1.1380    0.7630 C.2     1  UNL1        0.1660
     12  C          5.8630    0.0920    1.6540 C.2     1  UNL1        0.1650
     13  O          4.7990    1.9810    1.0990 O.2     1  UNL1       -0.4540
     14  O          4.8100    0.3040    2.5460 O.2     1  UNL1       -0.4540
     15  C          3.9520    1.2970    2.0330 C.3     1  UNL1        0.4680
@<TRIPOS>BOND
     1     4     2    1
     2     4     5    1
     3     2     3    2
     4     2     1    1
     5     1     6    1
     6     6     7    1
     7     7     9    2
     8     7     8    1
     9     9    11    1
    10     8    10    2
    11    11    13    1
    12    11    12    2
    13    13    15    1
    14    10    12    1
    15    12    14    1
    16    15    14    1
