@<TRIPOS>MOLECULE
/home/cewinharhar/GITHUB/reincatalyze/data/processed/docking_pred/2023-May-17-1006_maxeplen10_maxtrainstep1000_seadep16_gamma099_lrac9e-4_lrcr1e-3_sub6/62f66f9004302081042513b5faa006f3d97c65a4_ligand_6.pdbqt
 15 16 0 0 0
SMALL
GASTEIGER

@<TRIPOS>ATOM
      1  C          5.3580    2.9020    0.1210 C.3     1  UNL1        0.1270
      2  C          6.2000    3.8770    0.7970 C.2     1  UNL1        0.3030
      3  O          6.8400    4.7750    0.2480 O.2     1  UNL1       -0.2520
      4  O          6.2930    3.7890    2.1950 O.3     1  UNL1       -0.4810
      5  H          5.7360    3.0720    2.6340 H       1  UNL1        0.2960
      6  C          5.2900    1.5920    0.8040 C.3     1  UNL1        0.0470
      7  C          6.0790    0.4940    0.2420 C.2     1  UNL1       -0.0430
      8  C          6.5350   -0.5500    1.0330 C.2     1  UNL1        0.0080
      9  C          6.4250    0.4870   -1.0830 C.2     1  UNL1        0.0540
     10  C          7.3080   -1.5640    0.5140 C.2     1  UNL1        0.0510
     11  C          7.2000   -0.5210   -1.6260 C.2     1  UNL1        0.1660
     12  C          7.6430   -1.5500   -0.8310 C.2     1  UNL1        0.1650
     13  O          7.6630   -0.7310   -2.9130 O.2     1  UNL1       -0.4540
     14  O          8.3890   -2.3990   -1.6490 O.2     1  UNL1       -0.4540
     15  C          8.6740   -1.7500   -2.8660 C.3     1  UNL1        0.4680
@<TRIPOS>BOND
     1    13    15    1
     2    13    11    1
     3    15    14    1
     4    14    12    1
     5    11     9    1
     6    11    12    2
     7     9     7    2
     8    12    10    1
     9     1     2    1
    10     1     6    1
    11     7     6    1
    12     7     8    1
    13     3     2    2
    14    10     8    2
    15     2     4    1
    16     4     5    1
