@<TRIPOS>MOLECULE
/home/cewinharhar/GITHUB/reincatalyze/data/processed/docking_pred/2023-May-17-1006_maxeplen10_maxtrainstep1000_seadep16_gamma099_lrac9e-4_lrcr1e-3_sub6/62f66f9004302081042513b5faa006f3d97c65a4_ligand_6.pdbqt
 15 16 0 0 0
SMALL
GASTEIGER

@<TRIPOS>ATOM
      1  C          4.7210    1.8700    0.6990 C.3     1  UNL1        0.1270
      2  C          4.4250    1.1430    1.9230 C.2     1  UNL1        0.3030
      3  O          5.1610    0.3140    2.4610 O.2     1  UNL1       -0.2520
      4  O          3.1960    1.4060    2.5480 O.3     1  UNL1       -0.4810
      5  H          3.2230    2.0310    3.3390 H       1  UNL1        0.2960
      6  C          6.1470    2.2300    0.5450 C.3     1  UNL1        0.0470
      7  C          6.9950    1.3230   -0.2310 C.2     1  UNL1       -0.0430
      8  C          8.3580    1.5410   -0.3640 C.2     1  UNL1        0.0080
      9  C          6.4560    0.2460   -0.8830 C.2     1  UNL1        0.0540
     10  C          9.1510    0.7090   -1.1220 C.2     1  UNL1        0.0510
     11  C          7.2320   -0.6020   -1.6500 C.2     1  UNL1        0.1660
     12  C          8.5810   -0.3750   -1.7720 C.2     1  UNL1        0.1650
     13  O          6.9090   -1.7300   -2.3840 O.2     1  UNL1       -0.4540
     14  O          9.0870   -1.3820   -2.5950 O.2     1  UNL1       -0.4540
     15  C          8.0220   -2.0460   -3.2350 C.3     1  UNL1        0.4680
@<TRIPOS>BOND
     1    15    14    1
     2    15    13    1
     3    14    12    1
     4    13    11    1
     5    12    11    2
     6    12    10    1
     7    11     9    1
     8    10     8    2
     9     9     7    2
    10     8     7    1
    11     7     6    1
    12     6     1    1
    13     1     2    1
    14     2     3    2
    15     2     4    1
    16     4     5    1
