MODEL 1
REMARK VINA RESULT:      -7.7      0.000      0.000
REMARK SMILES O=C(O)CCc1ccc2c(c1)OCO2
REMARK SMILES IDX 4 1 2 2 1 3 3 4 5 6 6 7 7 8 11 9 8 10 10 11 9 12 12 13 14 14
REMARK SMILES IDX 13 15
REMARK H PARENT 3 5
REMARK Flexibility Score: inf
ROOT
ATOM      1  C   UNL     1       5.358   2.902   0.121  1.00  0.00     0.127 C 
ENDROOT
BRANCH   1   2
ATOM      2  C   UNL     1       6.200   3.877   0.797  1.00  0.00     0.303 C 
ATOM      3  O   UNL     1       6.840   4.775   0.248  1.00  0.00    -0.252 OA
BRANCH   2   4
ATOM      4  O   UNL     1       6.293   3.789   2.195  1.00  0.00    -0.481 OA
ATOM      5  H   UNL     1       5.736   3.072   2.634  1.00  0.00     0.296 HD
ENDBRANCH   2   4
ENDBRANCH   1   2
BRANCH   1   6
ATOM      6  C   UNL     1       5.290   1.592   0.804  1.00  0.00     0.047 C 
BRANCH   6   7
ATOM      7  C   UNL     1       6.079   0.494   0.242  1.00  0.00    -0.043 A 
ATOM      8  C   UNL     1       6.535  -0.550   1.033  1.00  0.00     0.008 A 
ATOM      9  C   UNL     1       6.425   0.487  -1.083  1.00  0.00     0.054 A 
ATOM     10  C   UNL     1       7.308  -1.564   0.514  1.00  0.00     0.051 A 
ATOM     11  C   UNL     1       7.200  -0.521  -1.626  1.00  0.00     0.166 A 
ATOM     12  C   UNL     1       7.643  -1.550  -0.831  1.00  0.00     0.165 A 
ATOM     13  O   UNL     1       7.663  -0.731  -2.913  1.00  0.00    -0.454 OA
ATOM     14  O   UNL     1       8.389  -2.399  -1.649  1.00  0.00    -0.454 OA
ATOM     15  C   UNL     1       8.674  -1.750  -2.866  1.00  0.00     0.468 C 
ENDBRANCH   6   7
ENDBRANCH   1   6
TORSDOF 4
ENDMDL
MODEL 2
REMARK VINA RESULT:      -7.6      2.132      2.517
REMARK SMILES O=C(O)CCc1ccc2c(c1)OCO2
REMARK SMILES IDX 4 1 2 2 1 3 3 4 5 6 6 7 7 8 11 9 8 10 10 11 9 12 12 13 14 14
REMARK SMILES IDX 13 15
REMARK H PARENT 3 5
REMARK Flexibility Score: inf
ROOT
ATOM      1  C   UNL     1       4.721   1.870   0.699  1.00  0.00     0.127 C 
ENDROOT
BRANCH   1   2
ATOM      2  C   UNL     1       4.425   1.143   1.923  1.00  0.00     0.303 C 
ATOM      3  O   UNL     1       5.161   0.314   2.461  1.00  0.00    -0.252 OA
BRANCH   2   4
ATOM      4  O   UNL     1       3.196   1.406   2.548  1.00  0.00    -0.481 OA
ATOM      5  H   UNL     1       3.223   2.031   3.339  1.00  0.00     0.296 HD
ENDBRANCH   2   4
ENDBRANCH   1   2
BRANCH   1   6
ATOM      6  C   UNL     1       6.147   2.230   0.545  1.00  0.00     0.047 C 
BRANCH   6   7
ATOM      7  C   UNL     1       6.995   1.323  -0.231  1.00  0.00    -0.043 A 
ATOM      8  C   UNL     1       8.358   1.541  -0.364  1.00  0.00     0.008 A 
ATOM      9  C   UNL     1       6.456   0.246  -0.883  1.00  0.00     0.054 A 
ATOM     10  C   UNL     1       9.151   0.709  -1.122  1.00  0.00     0.051 A 
ATOM     11  C   UNL     1       7.232  -0.602  -1.650  1.00  0.00     0.166 A 
ATOM     12  C   UNL     1       8.581  -0.375  -1.772  1.00  0.00     0.165 A 
ATOM     13  O   UNL     1       6.909  -1.730  -2.384  1.00  0.00    -0.454 OA
ATOM     14  O   UNL     1       9.087  -1.382  -2.595  1.00  0.00    -0.454 OA
ATOM     15  C   UNL     1       8.022  -2.046  -3.235  1.00  0.00     0.468 C 
ENDBRANCH   6   7
ENDBRANCH   1   6
TORSDOF 4
ENDMDL
MODEL 3
REMARK VINA RESULT:      -7.5      1.985      2.901
REMARK SMILES O=C(O)CCc1ccc2c(c1)OCO2
REMARK SMILES IDX 4 1 2 2 1 3 3 4 5 6 6 7 7 8 11 9 8 10 10 11 9 12 12 13 14 14
REMARK SMILES IDX 13 15
REMARK H PARENT 3 5
REMARK Flexibility Score: inf
ROOT
ATOM      1  C   UNL     1       6.399   1.349   0.653  1.00  0.00     0.127 C 
ENDROOT
BRANCH   1   2
ATOM      2  C   UNL     1       5.201   1.312   1.477  1.00  0.00     0.303 C 
ATOM      3  O   UNL     1       4.237   2.073   1.376  1.00  0.00    -0.252 OA
BRANCH   2   4
ATOM      4  O   UNL     1       5.135   0.325   2.474  1.00  0.00    -0.481 OA
ATOM      5  H   UNL     1       4.757  -0.567   2.193  1.00  0.00     0.296 HD
ENDBRANCH   2   4
ENDBRANCH   1   2
BRANCH   1   6
ATOM      6  C   UNL     1       6.198   0.841  -0.721  1.00  0.00     0.047 C 
BRANCH   6   7
ATOM      7  C   UNL     1       6.964  -0.340  -1.126  1.00  0.00    -0.043 A 
ATOM      8  C   UNL     1       7.271  -0.584  -2.456  1.00  0.00     0.008 A 
ATOM      9  C   UNL     1       7.368  -1.263  -0.199  1.00  0.00     0.054 A 
ATOM     10  C   UNL     1       7.959  -1.712  -2.841  1.00  0.00     0.051 A 
ATOM     11  C   UNL     1       8.060  -2.403  -0.563  1.00  0.00     0.166 A 
ATOM     12  C   UNL     1       8.359  -2.631  -1.884  1.00  0.00     0.165 A 
ATOM     13  O   UNL     1       8.560  -3.453   0.187  1.00  0.00    -0.454 OA
ATOM     14  O   UNL     1       9.051  -3.841  -1.938  1.00  0.00    -0.454 OA
ATOM     15  C   UNL     1       8.913  -4.517  -0.709  1.00  0.00     0.468 C 
ENDBRANCH   6   7
ENDBRANCH   1   6
TORSDOF 4
ENDMDL
MODEL 4
REMARK VINA RESULT:      -7.4      1.799      5.284
REMARK SMILES O=C(O)CCc1ccc2c(c1)OCO2
REMARK SMILES IDX 4 1 2 2 1 3 3 4 5 6 6 7 7 8 11 9 8 10 10 11 9 12 12 13 14 14
REMARK SMILES IDX 13 15
REMARK H PARENT 3 5
REMARK Flexibility Score: inf
ROOT
ATOM      1  C   UNL     1       8.307  -0.316  -2.845  1.00  0.00     0.127 C 
ENDROOT
BRANCH   1   2
ATOM      2  C   UNL     1       8.468  -1.744  -3.067  1.00  0.00     0.303 C 
ATOM      3  O   UNL     1       9.534  -2.360  -3.029  1.00  0.00    -0.252 OA
BRANCH   2   4
ATOM      4  O   UNL     1       7.310  -2.487  -3.349  1.00  0.00    -0.481 OA
ATOM      5  H   UNL     1       7.362  -3.478  -3.169  1.00  0.00     0.296 HD
ENDBRANCH   2   4
ENDBRANCH   1   2
BRANCH   1   6
ATOM      6  C   UNL     1       8.760   0.139  -1.513  1.00  0.00     0.047 C 
BRANCH   6   7
ATOM      7  C   UNL     1       7.788   0.101  -0.418  1.00  0.00    -0.043 A 
ATOM      8  C   UNL     1       7.736  -0.964   0.468  1.00  0.00     0.008 A 
ATOM      9  C   UNL     1       6.871   1.106  -0.260  1.00  0.00     0.054 A 
ATOM     10  C   UNL     1       6.800  -1.019   1.476  1.00  0.00     0.051 A 
ATOM     11  C   UNL     1       5.923   1.072   0.745  1.00  0.00     0.166 A 
ATOM     12  C   UNL     1       5.884   0.011   1.616  1.00  0.00     0.165 A 
ATOM     13  O   UNL     1       4.917   1.959   1.089  1.00  0.00    -0.454 OA
ATOM     14  O   UNL     1       4.836   0.257   2.505  1.00  0.00    -0.454 OA
ATOM     15  C   UNL     1       4.030   1.298   2.005  1.00  0.00     0.468 C 
ENDBRANCH   6   7
ENDBRANCH   1   6
TORSDOF 4
ENDMDL
MODEL 5
REMARK VINA RESULT:      -6.9      0.927      2.098
REMARK SMILES O=C(O)CCc1ccc2c(c1)OCO2
REMARK SMILES IDX 4 1 2 2 1 3 3 4 5 6 6 7 7 8 11 9 8 10 10 11 9 12 12 13 14 14
REMARK SMILES IDX 13 15
REMARK H PARENT 3 5
REMARK Flexibility Score: inf
ROOT
ATOM      1  C   UNL     1       5.339   2.870   0.206  1.00  0.00     0.127 C 
ENDROOT
BRANCH   1   2
ATOM      2  C   UNL     1       6.140   3.871   0.893  1.00  0.00     0.303 C 
ATOM      3  O   UNL     1       6.240   3.994   2.115  1.00  0.00    -0.252 OA
BRANCH   2   4
ATOM      4  O   UNL     1       6.862   4.775   0.098  1.00  0.00    -0.481 OA
ATOM      5  H   UNL     1       7.866   4.686   0.123  1.00  0.00     0.296 HD
ENDBRANCH   2   4
ENDBRANCH   1   2
BRANCH   1   6
ATOM      6  C   UNL     1       5.375   1.534   0.839  1.00  0.00     0.047 C 
BRANCH   6   7
ATOM      7  C   UNL     1       6.207   0.508   0.207  1.00  0.00    -0.043 A 
ATOM      8  C   UNL     1       6.487   0.537  -1.151  1.00  0.00     0.008 A 
ATOM      9  C   UNL     1       6.703  -0.539   0.937  1.00  0.00     0.054 A 
ATOM     10  C   UNL     1       7.239  -0.447  -1.753  1.00  0.00     0.051 A 
ATOM     11  C   UNL     1       7.460  -1.538   0.354  1.00  0.00     0.166 A 
ATOM     12  C   UNL     1       7.731  -1.495  -0.992  1.00  0.00     0.165 A 
ATOM     13  O   UNL     1       8.054  -2.669   0.886  1.00  0.00    -0.454 OA
ATOM     14  O   UNL     1       8.503  -2.621  -1.283  1.00  0.00    -0.454 OA
ATOM     15  C   UNL     1       8.451  -3.521  -0.200  1.00  0.00     0.468 C 
ENDBRANCH   6   7
ENDBRANCH   1   6
TORSDOF 4
ENDMDL
