@<TRIPOS>MOLECULE
/home/cewinharhar/GITHUB/reincatalyze/data/processed/docking_pred/2023-May-17-1006_maxeplen10_maxtrainstep1000_seadep16_gamma099_lrac9e-4_lrcr1e-3_sub6/62f66f9004302081042513b5faa006f3d97c65a4_ligand_6.pdbqt
 15 16 0 0 0
SMALL
GASTEIGER

@<TRIPOS>ATOM
      1  C          6.3990    1.3490    0.6530 C.3     1  UNL1        0.1270
      2  C          5.2010    1.3120    1.4770 C.2     1  UNL1        0.3030
      3  O          4.2370    2.0730    1.3760 O.2     1  UNL1       -0.2520
      4  O          5.1350    0.3250    2.4740 O.3     1  UNL1       -0.4810
      5  H          4.7570   -0.5670    2.1930 H       1  UNL1        0.2960
      6  C          6.1980    0.8410   -0.7210 C.3     1  UNL1        0.0470
      7  C          6.9640   -0.3400   -1.1260 C.2     1  UNL1       -0.0430
      8  C          7.2710   -0.5840   -2.4560 C.2     1  UNL1        0.0080
      9  C          7.3680   -1.2630   -0.1990 C.2     1  UNL1        0.0540
     10  C          7.9590   -1.7120   -2.8410 C.2     1  UNL1        0.0510
     11  C          8.0600   -2.4030   -0.5630 C.2     1  UNL1        0.1660
     12  C          8.3590   -2.6310   -1.8840 C.2     1  UNL1        0.1650
     13  O          8.5600   -3.4530    0.1870 O.2     1  UNL1       -0.4540
     14  O          9.0510   -3.8410   -1.9380 O.2     1  UNL1       -0.4540
     15  C          8.9130   -4.5170   -0.7090 C.3     1  UNL1        0.4680
@<TRIPOS>BOND
     1    10     8    1
     2    10    12    2
     3     8     7    2
     4    14    12    1
     5    14    15    1
     6    12    11    1
     7     7     6    1
     8     7     9    1
     9     6     1    1
    10    15    13    1
    11    11     9    2
    12    11    13    1
    13     1     2    1
    14     3     2    2
    15     2     4    1
    16     5     4    1
