@<TRIPOS>MOLECULE
/home/cewinharhar/GITHUB/reincatalyze/data/processed/docking_pred/2023-May-17-1006_maxeplen10_maxtrainstep1000_seadep16_gamma099_lrac9e-4_lrcr1e-3_sub6/62f66f9004302081042513b5faa006f3d97c65a4_ligand_6.pdbqt
 15 16 0 0 0
SMALL
GASTEIGER

@<TRIPOS>ATOM
      1  C          8.3070   -0.3160   -2.8450 C.3     1  UNL1        0.1270
      2  C          8.4680   -1.7440   -3.0670 C.2     1  UNL1        0.3030
      3  O          9.5340   -2.3600   -3.0290 O.2     1  UNL1       -0.2520
      4  O          7.3100   -2.4870   -3.3490 O.3     1  UNL1       -0.4810
      5  H          7.3620   -3.4780   -3.1690 H       1  UNL1        0.2960
      6  C          8.7600    0.1390   -1.5130 C.3     1  UNL1        0.0470
      7  C          7.7880    0.1010   -0.4180 C.2     1  UNL1       -0.0430
      8  C          7.7360   -0.9640    0.4680 C.2     1  UNL1        0.0080
      9  C          6.8710    1.1060   -0.2600 C.2     1  UNL1        0.0540
     10  C          6.8000   -1.0190    1.4760 C.2     1  UNL1        0.0510
     11  C          5.9230    1.0720    0.7450 C.2     1  UNL1        0.1660
     12  C          5.8840    0.0110    1.6160 C.2     1  UNL1        0.1650
     13  O          4.9170    1.9590    1.0890 O.2     1  UNL1       -0.4540
     14  O          4.8360    0.2570    2.5050 O.2     1  UNL1       -0.4540
     15  C          4.0300    1.2980    2.0050 C.3     1  UNL1        0.4680
@<TRIPOS>BOND
     1     4     5    1
     2     4     2    1
     3     2     3    2
     4     2     1    1
     5     1     6    1
     6     6     7    1
     7     7     9    2
     8     7     8    1
     9     9    11    1
    10     8    10    2
    11    11    13    1
    12    11    12    2
    13    13    15    1
    14    10    12    1
    15    12    14    1
    16    15    14    1
