@<TRIPOS>MOLECULE
/home/cewinharhar/GITHUB/reincatalyze/data/processed/docking_pred/2023-May-17-1006_maxeplen10_maxtrainstep1000_seadep16_gamma099_lrac9e-4_lrcr1e-3_sub6/62f66f9004302081042513b5faa006f3d97c65a4_ligand_6.pdbqt
 15 16 0 0 0
SMALL
GASTEIGER

@<TRIPOS>ATOM
      1  C          5.3390    2.8700    0.2060 C.3     1  UNL1        0.1270
      2  C          6.1400    3.8710    0.8930 C.2     1  UNL1        0.3030
      3  O          6.2400    3.9940    2.1150 O.2     1  UNL1       -0.2520
      4  O          6.8620    4.7750    0.0980 O.3     1  UNL1       -0.4810
      5  H          7.8660    4.6860    0.1230 H       1  UNL1        0.2960
      6  C          5.3750    1.5340    0.8390 C.3     1  UNL1        0.0470
      7  C          6.2070    0.5080    0.2070 C.2     1  UNL1       -0.0430
      8  C          6.4870    0.5370   -1.1510 C.2     1  UNL1        0.0080
      9  C          6.7030   -0.5390    0.9370 C.2     1  UNL1        0.0540
     10  C          7.2390   -0.4470   -1.7530 C.2     1  UNL1        0.0510
     11  C          7.4600   -1.5380    0.3540 C.2     1  UNL1        0.1660
     12  C          7.7310   -1.4950   -0.9920 C.2     1  UNL1        0.1650
     13  O          8.0540   -2.6690    0.8860 O.2     1  UNL1       -0.4540
     14  O          8.5030   -2.6210   -1.2830 O.2     1  UNL1       -0.4540
     15  C          8.4510   -3.5210   -0.2000 C.3     1  UNL1        0.4680
@<TRIPOS>BOND
     1    10     8    1
     2    10    12    2
     3    14    12    1
     4    14    15    1
     5     8     7    2
     6    12    11    1
     7    15    13    1
     8     4     5    1
     9     4     2    1
    10     1     6    1
    11     1     2    1
    12     7     6    1
    13     7     9    1
    14    11    13    1
    15    11     9    2
    16     2     3    2
