@<TRIPOS>MOLECULE
/home/cewinharhar/GITHUB/reincatalyze/data/processed/docking_pred/2023-May-17-1006_maxeplen10_maxtrainstep1000_seadep16_gamma099_lrac9e-4_lrcr1e-3_sub6/64ade7361adfbcba1ebdf367c3e16aacabd62181_ligand_6.pdbqt
 15 16 0 0 0
SMALL
GASTEIGER

@<TRIPOS>ATOM
      1  C          5.3360    1.9640    1.1350 C.3     1  UNL1        0.1270
      2  C          4.6140    1.0320    1.9870 C.2     1  UNL1        0.3030
      3  O          5.0210   -0.0750    2.3450 O.2     1  UNL1       -0.2520
      4  O          3.3450    1.4240    2.4410 O.3     1  UNL1       -0.4810
      5  H          2.8740    0.7800    3.0570 H       1  UNL1        0.2960
      6  C          5.3520    1.5820   -0.2930 C.3     1  UNL1        0.0470
      7  C          6.5810    0.9850   -0.8210 C.2     1  UNL1       -0.0430
      8  C          7.8310    1.4760   -0.4760 C.2     1  UNL1        0.0080
      9  C          6.5290   -0.0570   -1.7080 C.2     1  UNL1        0.0540
     10  C          8.9870    0.9400   -1.0000 C.2     1  UNL1        0.0510
     11  C          7.6750   -0.6120   -2.2460 C.2     1  UNL1        0.1660
     12  C          8.9070   -0.1160   -1.8940 C.2     1  UNL1        0.1650
     13  O          7.8600   -1.6510   -3.1410 O.2     1  UNL1       -0.4540
     14  O          9.8570   -0.8670   -2.5880 O.2     1  UNL1       -0.4540
     15  C          9.2200   -1.6110   -3.6000 C.3     1  UNL1        0.4680
@<TRIPOS>BOND
     1    15    13    1
     2    15    14    1
     3    13    11    1
     4    14    12    1
     5    11    12    2
     6    11     9    1
     7    12    10    1
     8     9     7    2
     9    10     8    2
    10     7     8    1
    11     7     6    1
    12     6     1    1
    13     1     2    1
    14     2     3    2
    15     2     4    1
    16     4     5    1
