@<TRIPOS>MOLECULE
/home/cewinharhar/GITHUB/reincatalyze/data/processed/docking_pred/2023-May-17-1006_maxeplen10_maxtrainstep1000_seadep16_gamma099_lrac9e-4_lrcr1e-3_sub6/64ade7361adfbcba1ebdf367c3e16aacabd62181_ligand_6.pdbqt
 15 16 0 0 0
SMALL
GASTEIGER

@<TRIPOS>ATOM
      1  C          8.5980   -0.1400   -3.0440 C.3     1  UNL1        0.1270
      2  C          8.7430   -1.5790   -3.1970 C.2     1  UNL1        0.3030
      3  O          9.8110   -2.1950   -3.2120 O.2     1  UNL1       -0.2520
      4  O          7.5680   -2.3340   -3.3410 O.3     1  UNL1       -0.4810
      5  H          7.6140   -3.1110   -3.9820 H       1  UNL1        0.2960
      6  C          9.0870    0.3780   -1.7480 C.3     1  UNL1        0.0470
      7  C          8.1800    0.2990   -0.6010 C.2     1  UNL1       -0.0430
      8  C          8.3650   -0.6350    0.4070 C.2     1  UNL1        0.0080
      9  C          7.0920    1.1260   -0.5110 C.2     1  UNL1        0.0540
     10  C          7.4930   -0.7350    1.4670 C.2     1  UNL1        0.0510
     11  C          6.2030    1.0440    0.5440 C.2     1  UNL1        0.1660
     12  C          6.4000    0.1150    1.5370 C.2     1  UNL1        0.1650
     13  O          5.0580    1.7630    0.8380 O.2     1  UNL1       -0.4540
     14  O          5.3560    0.2720    2.4490 O.2     1  UNL1       -0.4540
     15  C          4.3470    1.0720    1.8760 C.3     1  UNL1        0.4680
@<TRIPOS>BOND
     1     5     4    1
     2     4     2    1
     3     3     2    2
     4     2     1    1
     5     1     6    1
     6     6     7    1
     7     7     9    2
     8     7     8    1
     9     9    11    1
    10     8    10    2
    11    11    13    1
    12    11    12    2
    13    13    15    1
    14    10    12    1
    15    12    14    1
    16    15    14    1
