@<TRIPOS>MOLECULE
/home/cewinharhar/GITHUB/reincatalyze/data/processed/docking_pred/2023-May-17-1006_maxeplen10_maxtrainstep1000_seadep16_gamma099_lrac9e-4_lrcr1e-3_sub6/64ade7361adfbcba1ebdf367c3e16aacabd62181_ligand_6.pdbqt
 15 16 0 0 0
SMALL
GASTEIGER

@<TRIPOS>ATOM
      1  C          6.4640    1.2840    0.7790 C.3     1  UNL1        0.1270
      2  C          5.2590    1.1540    1.5830 C.2     1  UNL1        0.3030
      3  O          5.0640    0.3020    2.4510 O.2     1  UNL1       -0.2520
      4  O          4.2280    2.0790    1.3520 O.3     1  UNL1       -0.4810
      5  H          3.9440    2.1990    0.3920 H       1  UNL1        0.2960
      6  C          6.2940    0.8650   -0.6290 C.3     1  UNL1        0.0470
      7  C          7.0200   -0.3270   -1.0730 C.2     1  UNL1       -0.0430
      8  C          7.2810   -0.5580   -2.4150 C.2     1  UNL1        0.0080
      9  C          7.4300   -1.2740   -0.1720 C.2     1  UNL1        0.0540
     10  C          7.9310   -1.6960   -2.8380 C.2     1  UNL1        0.0510
     11  C          8.0850   -2.4230   -0.5730 C.2     1  UNL1        0.1660
     12  C          8.3380   -2.6380   -1.9070 C.2     1  UNL1        0.1650
     13  O          8.5820   -3.4950    0.1460 O.2     1  UNL1       -0.4540
     14  O          9.0000   -3.8630   -1.9980 O.2     1  UNL1       -0.4540
     15  C          8.8830   -4.5540   -0.7760 C.3     1  UNL1        0.4680
@<TRIPOS>BOND
     1    10     8    1
     2    10    12    2
     3     8     7    2
     4    14    12    1
     5    14    15    1
     6    12    11    1
     7     7     6    1
     8     7     9    1
     9    15    13    1
    10     6     1    1
    11    11     9    2
    12    11    13    1
    13     5     4    1
    14     1     2    1
    15     4     2    1
    16     2     3    2
