@<TRIPOS>MOLECULE
/home/cewinharhar/GITHUB/reincatalyze/data/processed/docking_pred/2023-May-17-1006_maxeplen10_maxtrainstep1000_seadep16_gamma099_lrac9e-4_lrcr1e-3_sub6/64ade7361adfbcba1ebdf367c3e16aacabd62181_ligand_6.pdbqt
 15 16 0 0 0
SMALL
GASTEIGER

@<TRIPOS>ATOM
      1  C          5.4120    2.8770    0.1260 C.3     1  UNL1        0.1270
      2  C          6.2270    3.8790    0.7940 C.2     1  UNL1        0.3030
      3  O          6.9210    4.7290    0.2340 O.2     1  UNL1       -0.2520
      4  O          6.2250    3.8800    2.1980 O.3     1  UNL1       -0.4810
      5  H          5.4150    4.2840    2.6420 H       1  UNL1        0.2960
      6  C          5.3430    1.5850    0.8410 C.3     1  UNL1        0.0470
      7  C          6.1090    0.4640    0.2910 C.2     1  UNL1       -0.0430
      8  C          6.5320   -0.5860    1.0900 C.2     1  UNL1        0.0080
      9  C          6.4650    0.4420   -1.0320 C.2     1  UNL1        0.0540
     10  C          7.2840   -1.6220    0.5810 C.2     1  UNL1        0.0510
     11  C          7.2180   -0.5870   -1.5640 C.2     1  UNL1        0.1660
     12  C          7.6290   -1.6230   -0.7600 C.2     1  UNL1        0.1650
     13  O          7.6850   -0.8150   -2.8470 O.2     1  UNL1       -0.4540
     14  O          8.3600   -2.4950   -1.5690 O.2     1  UNL1       -0.4540
     15  C          8.6700   -1.8580   -2.7870 C.3     1  UNL1        0.4680
@<TRIPOS>BOND
     1    13    15    1
     2    13    11    1
     3    15    14    1
     4    14    12    1
     5    11     9    1
     6    11    12    2
     7     9     7    2
     8    12    10    1
     9     1     2    1
    10     1     6    1
    11     3     2    2
    12     7     6    1
    13     7     8    1
    14    10     8    2
    15     2     4    1
    16     4     5    1
