MODEL 1
REMARK VINA RESULT:      -7.5      0.000      0.000
REMARK SMILES O=C(O)CCc1ccc2c(c1)OCO2
REMARK SMILES IDX 4 1 2 2 1 3 3 4 5 6 6 7 7 8 11 9 8 10 10 11 9 12 12 13 14 14
REMARK SMILES IDX 13 15
REMARK H PARENT 3 5
REMARK Flexibility Score: inf
ROOT
ATOM      1  C   UNL     1       5.412   2.877   0.126  1.00  0.00     0.127 C 
ENDROOT
BRANCH   1   2
ATOM      2  C   UNL     1       6.227   3.879   0.794  1.00  0.00     0.303 C 
ATOM      3  O   UNL     1       6.921   4.729   0.234  1.00  0.00    -0.252 OA
BRANCH   2   4
ATOM      4  O   UNL     1       6.225   3.880   2.198  1.00  0.00    -0.481 OA
ATOM      5  H   UNL     1       5.415   4.284   2.642  1.00  0.00     0.296 HD
ENDBRANCH   2   4
ENDBRANCH   1   2
BRANCH   1   6
ATOM      6  C   UNL     1       5.343   1.585   0.841  1.00  0.00     0.047 C 
BRANCH   6   7
ATOM      7  C   UNL     1       6.109   0.464   0.291  1.00  0.00    -0.043 A 
ATOM      8  C   UNL     1       6.532  -0.586   1.090  1.00  0.00     0.008 A 
ATOM      9  C   UNL     1       6.465   0.442  -1.032  1.00  0.00     0.054 A 
ATOM     10  C   UNL     1       7.284  -1.622   0.581  1.00  0.00     0.051 A 
ATOM     11  C   UNL     1       7.218  -0.587  -1.564  1.00  0.00     0.166 A 
ATOM     12  C   UNL     1       7.629  -1.623  -0.760  1.00  0.00     0.165 A 
ATOM     13  O   UNL     1       7.685  -0.815  -2.847  1.00  0.00    -0.454 OA
ATOM     14  O   UNL     1       8.360  -2.495  -1.569  1.00  0.00    -0.454 OA
ATOM     15  C   UNL     1       8.670  -1.858  -2.787  1.00  0.00     0.468 C 
ENDBRANCH   6   7
ENDBRANCH   1   6
TORSDOF 4
ENDMDL
MODEL 2
REMARK VINA RESULT:      -7.3      1.995      2.978
REMARK SMILES O=C(O)CCc1ccc2c(c1)OCO2
REMARK SMILES IDX 4 1 2 2 1 3 3 4 5 6 6 7 7 8 11 9 8 10 10 11 9 12 12 13 14 14
REMARK SMILES IDX 13 15
REMARK H PARENT 3 5
REMARK Flexibility Score: inf
ROOT
ATOM      1  C   UNL     1       6.464   1.284   0.779  1.00  0.00     0.127 C 
ENDROOT
BRANCH   1   2
ATOM      2  C   UNL     1       5.259   1.154   1.583  1.00  0.00     0.303 C 
ATOM      3  O   UNL     1       5.064   0.302   2.451  1.00  0.00    -0.252 OA
BRANCH   2   4
ATOM      4  O   UNL     1       4.228   2.079   1.352  1.00  0.00    -0.481 OA
ATOM      5  H   UNL     1       3.944   2.199   0.392  1.00  0.00     0.296 HD
ENDBRANCH   2   4
ENDBRANCH   1   2
BRANCH   1   6
ATOM      6  C   UNL     1       6.294   0.865  -0.629  1.00  0.00     0.047 C 
BRANCH   6   7
ATOM      7  C   UNL     1       7.020  -0.327  -1.073  1.00  0.00    -0.043 A 
ATOM      8  C   UNL     1       7.281  -0.558  -2.415  1.00  0.00     0.008 A 
ATOM      9  C   UNL     1       7.430  -1.274  -0.172  1.00  0.00     0.054 A 
ATOM     10  C   UNL     1       7.931  -1.696  -2.838  1.00  0.00     0.051 A 
ATOM     11  C   UNL     1       8.085  -2.423  -0.573  1.00  0.00     0.166 A 
ATOM     12  C   UNL     1       8.338  -2.638  -1.907  1.00  0.00     0.165 A 
ATOM     13  O   UNL     1       8.582  -3.495   0.146  1.00  0.00    -0.454 OA
ATOM     14  O   UNL     1       9.000  -3.863  -1.998  1.00  0.00    -0.454 OA
ATOM     15  C   UNL     1       8.883  -4.554  -0.776  1.00  0.00     0.468 C 
ENDBRANCH   6   7
ENDBRANCH   1   6
TORSDOF 4
ENDMDL
MODEL 3
REMARK VINA RESULT:      -7.3      2.319      2.635
REMARK SMILES O=C(O)CCc1ccc2c(c1)OCO2
REMARK SMILES IDX 4 1 2 2 1 3 3 4 5 6 6 7 7 8 11 9 8 10 10 11 9 12 12 13 14 14
REMARK SMILES IDX 13 15
REMARK H PARENT 3 5
REMARK Flexibility Score: inf
ROOT
ATOM      1  C   UNL     1       5.336   1.964   1.135  1.00  0.00     0.127 C 
ENDROOT
BRANCH   1   2
ATOM      2  C   UNL     1       4.614   1.032   1.987  1.00  0.00     0.303 C 
ATOM      3  O   UNL     1       5.021  -0.075   2.345  1.00  0.00    -0.252 OA
BRANCH   2   4
ATOM      4  O   UNL     1       3.345   1.424   2.441  1.00  0.00    -0.481 OA
ATOM      5  H   UNL     1       2.874   0.780   3.057  1.00  0.00     0.296 HD
ENDBRANCH   2   4
ENDBRANCH   1   2
BRANCH   1   6
ATOM      6  C   UNL     1       5.352   1.582  -0.293  1.00  0.00     0.047 C 
BRANCH   6   7
ATOM      7  C   UNL     1       6.581   0.985  -0.821  1.00  0.00    -0.043 A 
ATOM      8  C   UNL     1       7.831   1.476  -0.476  1.00  0.00     0.008 A 
ATOM      9  C   UNL     1       6.529  -0.057  -1.708  1.00  0.00     0.054 A 
ATOM     10  C   UNL     1       8.987   0.940  -1.000  1.00  0.00     0.051 A 
ATOM     11  C   UNL     1       7.675  -0.612  -2.246  1.00  0.00     0.166 A 
ATOM     12  C   UNL     1       8.907  -0.116  -1.894  1.00  0.00     0.165 A 
ATOM     13  O   UNL     1       7.860  -1.651  -3.141  1.00  0.00    -0.454 OA
ATOM     14  O   UNL     1       9.857  -0.867  -2.588  1.00  0.00    -0.454 OA
ATOM     15  C   UNL     1       9.220  -1.611  -3.600  1.00  0.00     0.468 C 
ENDBRANCH   6   7
ENDBRANCH   1   6
TORSDOF 4
ENDMDL
MODEL 4
REMARK VINA RESULT:      -7.3      1.884      5.220
REMARK SMILES O=C(O)CCc1ccc2c(c1)OCO2
REMARK SMILES IDX 4 1 2 2 1 3 3 4 5 6 6 7 7 8 11 9 8 10 10 11 9 12 12 13 14 14
REMARK SMILES IDX 13 15
REMARK H PARENT 3 5
REMARK Flexibility Score: inf
ROOT
ATOM      1  C   UNL     1       8.598  -0.140  -3.044  1.00  0.00     0.127 C 
ENDROOT
BRANCH   1   2
ATOM      2  C   UNL     1       8.743  -1.579  -3.197  1.00  0.00     0.303 C 
ATOM      3  O   UNL     1       9.811  -2.195  -3.212  1.00  0.00    -0.252 OA
BRANCH   2   4
ATOM      4  O   UNL     1       7.568  -2.334  -3.341  1.00  0.00    -0.481 OA
ATOM      5  H   UNL     1       7.614  -3.111  -3.982  1.00  0.00     0.296 HD
ENDBRANCH   2   4
ENDBRANCH   1   2
BRANCH   1   6
ATOM      6  C   UNL     1       9.087   0.378  -1.748  1.00  0.00     0.047 C 
BRANCH   6   7
ATOM      7  C   UNL     1       8.180   0.299  -0.601  1.00  0.00    -0.043 A 
ATOM      8  C   UNL     1       8.365  -0.635   0.407  1.00  0.00     0.008 A 
ATOM      9  C   UNL     1       7.092   1.126  -0.511  1.00  0.00     0.054 A 
ATOM     10  C   UNL     1       7.493  -0.735   1.467  1.00  0.00     0.051 A 
ATOM     11  C   UNL     1       6.203   1.044   0.544  1.00  0.00     0.166 A 
ATOM     12  C   UNL     1       6.400   0.115   1.537  1.00  0.00     0.165 A 
ATOM     13  O   UNL     1       5.058   1.763   0.838  1.00  0.00    -0.454 OA
ATOM     14  O   UNL     1       5.356   0.272   2.449  1.00  0.00    -0.454 OA
ATOM     15  C   UNL     1       4.347   1.072   1.876  1.00  0.00     0.468 C 
ENDBRANCH   6   7
ENDBRANCH   1   6
TORSDOF 4
ENDMDL
MODEL 5
REMARK VINA RESULT:      -7.2      2.087      2.734
REMARK SMILES O=C(O)CCc1ccc2c(c1)OCO2
REMARK SMILES IDX 4 1 2 2 1 3 3 4 5 6 6 7 7 8 11 9 8 10 10 11 9 12 12 13 14 14
REMARK SMILES IDX 13 15
REMARK H PARENT 3 5
REMARK Flexibility Score: inf
ROOT
ATOM      1  C   UNL     1       5.415  -0.059   1.883  1.00  0.00     0.127 C 
ENDROOT
BRANCH   1   2
ATOM      2  C   UNL     1       4.593   1.140   1.857  1.00  0.00     0.303 C 
ATOM      3  O   UNL     1       4.839   2.165   1.219  1.00  0.00    -0.252 OA
BRANCH   2   4
ATOM      4  O   UNL     1       3.416   1.131   2.623  1.00  0.00    -0.481 OA
ATOM      5  H   UNL     1       2.843   1.959   2.567  1.00  0.00     0.296 HD
ENDBRANCH   2   4
ENDBRANCH   1   2
BRANCH   1   6
ATOM      6  C   UNL     1       6.836   0.181   1.553  1.00  0.00     0.047 C 
BRANCH   6   7
ATOM      7  C   UNL     1       7.245   0.016   0.156  1.00  0.00    -0.043 A 
ATOM      8  C   UNL     1       6.592  -0.866  -0.691  1.00  0.00     0.008 A 
ATOM      9  C   UNL     1       8.316   0.707  -0.346  1.00  0.00     0.054 A 
ATOM     10  C   UNL     1       6.998  -1.049  -1.994  1.00  0.00     0.051 A 
ATOM     11  C   UNL     1       8.740   0.540  -1.651  1.00  0.00     0.166 A 
ATOM     12  C   UNL     1       8.083  -0.337  -2.479  1.00  0.00     0.165 A 
ATOM     13  O   UNL     1       9.777   1.121  -2.361  1.00  0.00    -0.454 OA
ATOM     14  O   UNL     1       8.732  -0.289  -3.714  1.00  0.00    -0.454 OA
ATOM     15  C   UNL     1       9.969   0.370  -3.569  1.00  0.00     0.468 C 
ENDBRANCH   6   7
ENDBRANCH   1   6
TORSDOF 4
ENDMDL
