@<TRIPOS>MOLECULE
/home/cewinharhar/GITHUB/reincatalyze/data/processed/docking_pred/2023-May-17-1006_maxeplen10_maxtrainstep1000_seadep16_gamma099_lrac9e-4_lrcr1e-3_sub6/64ade7361adfbcba1ebdf367c3e16aacabd62181_ligand_6.pdbqt
 15 16 0 0 0
SMALL
GASTEIGER

@<TRIPOS>ATOM
      1  C          5.4150   -0.0590    1.8830 C.3     1  UNL1        0.1270
      2  C          4.5930    1.1400    1.8570 C.2     1  UNL1        0.3030
      3  O          4.8390    2.1650    1.2190 O.2     1  UNL1       -0.2520
      4  O          3.4160    1.1310    2.6230 O.3     1  UNL1       -0.4810
      5  H          2.8430    1.9590    2.5670 H       1  UNL1        0.2960
      6  C          6.8360    0.1810    1.5530 C.3     1  UNL1        0.0470
      7  C          7.2450    0.0160    0.1560 C.2     1  UNL1       -0.0430
      8  C          6.5920   -0.8660   -0.6910 C.2     1  UNL1        0.0080
      9  C          8.3160    0.7070   -0.3460 C.2     1  UNL1        0.0540
     10  C          6.9980   -1.0490   -1.9940 C.2     1  UNL1        0.0510
     11  C          8.7400    0.5400   -1.6510 C.2     1  UNL1        0.1660
     12  C          8.0830   -0.3370   -2.4790 C.2     1  UNL1        0.1650
     13  O          9.7770    1.1210   -2.3610 O.2     1  UNL1       -0.4540
     14  O          8.7320   -0.2890   -3.7140 O.2     1  UNL1       -0.4540
     15  C          9.9690    0.3700   -3.5690 C.3     1  UNL1        0.4680
@<TRIPOS>BOND
     1    14    15    1
     2    14    12    1
     3    15    13    1
     4    12    10    2
     5    12    11    1
     6    13    11    1
     7    10     8    1
     8    11     9    2
     9     8     7    2
    10     9     7    1
    11     7     6    1
    12     3     2    2
    13     6     1    1
    14     2     1    1
    15     2     4    1
    16     5     4    1
