@<TRIPOS>MOLECULE
/home/cewinharhar/GITHUB/reincatalyze/data/processed/docking_pred/2023-May-17-1006_maxeplen10_maxtrainstep1000_seadep16_gamma099_lrac9e-4_lrcr1e-3_sub6/650932a4c96e02f0afcc120cab6b741f416c7ae8_ligand_6.pdbqt
 15 16 0 0 0
SMALL
GASTEIGER

@<TRIPOS>ATOM
      1  C          4.7590    1.8590    0.7120 C.3     1  UNL1        0.1270
      2  C          4.4510    1.1220    1.9270 C.2     1  UNL1        0.3030
      3  O          5.1790    0.2830    2.4610 O.2     1  UNL1       -0.2520
      4  O          3.2190    1.3850    2.5470 O.3     1  UNL1       -0.4810
      5  H          2.9550    2.3560    2.6170 H       1  UNL1        0.2960
      6  C          6.1890    2.2050    0.5660 C.3     1  UNL1        0.0470
      7  C          7.0250    1.3020   -0.2280 C.2     1  UNL1       -0.0430
      8  C          8.3840    1.5260   -0.3880 C.2     1  UNL1        0.0080
      9  C          6.4780    0.2240   -0.8720 C.2     1  UNL1        0.0540
     10  C          9.1650    0.6980   -1.1640 C.2     1  UNL1        0.0510
     11  C          7.2420   -0.6200   -1.6550 C.2     1  UNL1        0.1660
     12  C          8.5880   -0.3860   -1.8030 C.2     1  UNL1        0.1650
     13  O          6.9100   -1.7480   -2.3850 O.2     1  UNL1       -0.4540
     14  O          9.0810   -1.3900   -2.6380 O.2     1  UNL1       -0.4540
     15  C          8.0060   -2.0570   -3.2580 C.3     1  UNL1        0.4680
@<TRIPOS>BOND
     1    15    14    1
     2    15    13    1
     3    14    12    1
     4    13    11    1
     5    12    11    2
     6    12    10    1
     7    11     9    1
     8    10     8    2
     9     9     7    2
    10     8     7    1
    11     7     6    1
    12     6     1    1
    13     1     2    1
    14     2     3    2
    15     2     4    1
    16     4     5    1
