MODEL 1
REMARK VINA RESULT:      -7.4      0.000      0.000
REMARK SMILES O=C(O)CCc1ccc2c(c1)OCO2
REMARK SMILES IDX 4 1 2 2 1 3 3 4 5 6 6 7 7 8 11 9 8 10 10 11 9 12 12 13 14 14
REMARK SMILES IDX 13 15
REMARK H PARENT 3 5
REMARK Flexibility Score: inf
ROOT
ATOM      1  C   UNL     1       5.381   2.904   0.102  1.00  0.00     0.127 C 
ENDROOT
BRANCH   1   2
ATOM      2  C   UNL     1       6.233   3.848   0.807  1.00  0.00     0.303 C 
ATOM      3  O   UNL     1       6.878   4.760   0.287  1.00  0.00    -0.252 OA
BRANCH   2   4
ATOM      4  O   UNL     1       6.329   3.712   2.201  1.00  0.00    -0.481 OA
ATOM      5  H   UNL     1       5.768   2.985   2.617  1.00  0.00     0.296 HD
ENDBRANCH   2   4
ENDBRANCH   1   2
BRANCH   1   6
ATOM      6  C   UNL     1       5.277   1.583   0.758  1.00  0.00     0.047 C 
BRANCH   6   7
ATOM      7  C   UNL     1       6.059   0.482   0.192  1.00  0.00    -0.043 A 
ATOM      8  C   UNL     1       6.421  -0.618   0.955  1.00  0.00     0.008 A 
ATOM      9  C   UNL     1       6.491   0.526  -1.107  1.00  0.00     0.054 A 
ATOM     10  C   UNL     1       7.187  -1.637   0.434  1.00  0.00     0.051 A 
ATOM     11  C   UNL     1       7.260  -0.486  -1.652  1.00  0.00     0.166 A 
ATOM     12  C   UNL     1       7.610  -1.570  -0.884  1.00  0.00     0.165 A 
ATOM     13  O   UNL     1       7.799  -0.651  -2.915  1.00  0.00    -0.454 OA
ATOM     14  O   UNL     1       8.376  -2.409  -1.696  1.00  0.00    -0.454 OA
ATOM     15  C   UNL     1       8.765  -1.712  -2.857  1.00  0.00     0.468 C 
ENDBRANCH   6   7
ENDBRANCH   1   6
TORSDOF 4
ENDMDL
MODEL 2
REMARK VINA RESULT:      -7.4      2.129      2.545
REMARK SMILES O=C(O)CCc1ccc2c(c1)OCO2
REMARK SMILES IDX 4 1 2 2 1 3 3 4 5 6 6 7 7 8 11 9 8 10 10 11 9 12 12 13 14 14
REMARK SMILES IDX 13 15
REMARK H PARENT 3 5
REMARK Flexibility Score: inf
ROOT
ATOM      1  C   UNL     1       4.759   1.859   0.712  1.00  0.00     0.127 C 
ENDROOT
BRANCH   1   2
ATOM      2  C   UNL     1       4.451   1.122   1.927  1.00  0.00     0.303 C 
ATOM      3  O   UNL     1       5.179   0.283   2.461  1.00  0.00    -0.252 OA
BRANCH   2   4
ATOM      4  O   UNL     1       3.219   1.385   2.547  1.00  0.00    -0.481 OA
ATOM      5  H   UNL     1       2.955   2.356   2.617  1.00  0.00     0.296 HD
ENDBRANCH   2   4
ENDBRANCH   1   2
BRANCH   1   6
ATOM      6  C   UNL     1       6.189   2.205   0.566  1.00  0.00     0.047 C 
BRANCH   6   7
ATOM      7  C   UNL     1       7.025   1.302  -0.228  1.00  0.00    -0.043 A 
ATOM      8  C   UNL     1       8.384   1.526  -0.388  1.00  0.00     0.008 A 
ATOM      9  C   UNL     1       6.478   0.224  -0.872  1.00  0.00     0.054 A 
ATOM     10  C   UNL     1       9.165   0.698  -1.164  1.00  0.00     0.051 A 
ATOM     11  C   UNL     1       7.242  -0.620  -1.655  1.00  0.00     0.166 A 
ATOM     12  C   UNL     1       8.588  -0.386  -1.803  1.00  0.00     0.165 A 
ATOM     13  O   UNL     1       6.910  -1.748  -2.385  1.00  0.00    -0.454 OA
ATOM     14  O   UNL     1       9.081  -1.390  -2.638  1.00  0.00    -0.454 OA
ATOM     15  C   UNL     1       8.006  -2.057  -3.258  1.00  0.00     0.468 C 
ENDBRANCH   6   7
ENDBRANCH   1   6
TORSDOF 4
ENDMDL
MODEL 3
REMARK VINA RESULT:      -7.2      1.949      2.848
REMARK SMILES O=C(O)CCc1ccc2c(c1)OCO2
REMARK SMILES IDX 4 1 2 2 1 3 3 4 5 6 6 7 7 8 11 9 8 10 10 11 9 12 12 13 14 14
REMARK SMILES IDX 13 15
REMARK H PARENT 3 5
REMARK Flexibility Score: inf
ROOT
ATOM      1  C   UNL     1       6.417   1.368   0.601  1.00  0.00     0.127 C 
ENDROOT
BRANCH   1   2
ATOM      2  C   UNL     1       5.210   1.366   1.412  1.00  0.00     0.303 C 
ATOM      3  O   UNL     1       4.269   2.154   1.299  1.00  0.00    -0.252 OA
BRANCH   2   4
ATOM      4  O   UNL     1       5.106   0.385   2.410  1.00  0.00    -0.481 OA
ATOM      5  H   UNL     1       4.749  -0.512   2.117  1.00  0.00     0.296 HD
ENDBRANCH   2   4
ENDBRANCH   1   2
BRANCH   1   6
ATOM      6  C   UNL     1       6.208   0.906  -0.788  1.00  0.00     0.047 C 
BRANCH   6   7
ATOM      7  C   UNL     1       6.973  -0.260  -1.236  1.00  0.00    -0.043 A 
ATOM      8  C   UNL     1       7.284  -0.452  -2.573  1.00  0.00     0.008 A 
ATOM      9  C   UNL     1       7.372  -1.220  -0.345  1.00  0.00     0.054 A 
ATOM     10  C   UNL     1       7.972  -1.566  -3.001  1.00  0.00     0.051 A 
ATOM     11  C   UNL     1       8.064  -2.345  -0.751  1.00  0.00     0.166 A 
ATOM     12  C   UNL     1       8.367  -2.522  -2.079  1.00  0.00     0.165 A 
ATOM     13  O   UNL     1       8.559  -3.426  -0.041  1.00  0.00    -0.454 OA
ATOM     14  O   UNL     1       9.057  -3.731  -2.178  1.00  0.00    -0.454 OA
ATOM     15  C   UNL     1       8.913  -4.454  -0.978  1.00  0.00     0.468 C 
ENDBRANCH   6   7
ENDBRANCH   1   6
TORSDOF 4
ENDMDL
MODEL 4
REMARK VINA RESULT:      -7.1      2.004      2.610
REMARK SMILES O=C(O)CCc1ccc2c(c1)OCO2
REMARK SMILES IDX 4 1 2 2 1 3 3 4 5 6 6 7 7 8 11 9 8 10 10 11 9 12 12 13 14 14
REMARK SMILES IDX 13 15
REMARK H PARENT 3 5
REMARK Flexibility Score: inf
ROOT
ATOM      1  C   UNL     1       5.124   2.754   0.106  1.00  0.00     0.127 C 
ENDROOT
BRANCH   1   2
ATOM      2  C   UNL     1       6.106   3.643   0.707  1.00  0.00     0.303 C 
ATOM      3  O   UNL     1       6.814   4.446   0.098  1.00  0.00    -0.252 OA
BRANCH   2   4
ATOM      4  O   UNL     1       6.262   3.583   2.101  1.00  0.00    -0.481 OA
ATOM      5  H   UNL     1       7.157   3.260   2.436  1.00  0.00     0.296 HD
ENDBRANCH   2   4
ENDBRANCH   1   2
BRANCH   1   6
ATOM      6  C   UNL     1       5.707   1.542  -0.507  1.00  0.00     0.047 C 
BRANCH   6   7
ATOM      7  C   UNL     1       6.281   0.538   0.391  1.00  0.00    -0.043 A 
ATOM      8  C   UNL     1       5.593   0.086   1.507  1.00  0.00     0.008 A 
ATOM      9  C   UNL     1       7.538   0.040   0.174  1.00  0.00     0.054 A 
ATOM     10  C   UNL     1       6.145  -0.831   2.372  1.00  0.00     0.051 A 
ATOM     11  C   UNL     1       8.112  -0.882   1.029  1.00  0.00     0.166 A 
ATOM     12  C   UNL     1       7.418  -1.321   2.130  1.00  0.00     0.165 A 
ATOM     13  O   UNL     1       9.345  -1.510   1.008  1.00  0.00    -0.454 OA
ATOM     14  O   UNL     1       8.245  -2.232   2.790  1.00  0.00    -0.454 OA
ATOM     15  C   UNL     1       9.556  -2.127   2.287  1.00  0.00     0.468 C 
ENDBRANCH   6   7
ENDBRANCH   1   6
TORSDOF 4
ENDMDL
MODEL 5
REMARK VINA RESULT:      -7.1      3.560      4.548
REMARK SMILES O=C(O)CCc1ccc2c(c1)OCO2
REMARK SMILES IDX 4 1 2 2 1 3 3 4 5 6 6 7 7 8 11 9 8 10 10 11 9 12 12 13 14 14
REMARK SMILES IDX 13 15
REMARK H PARENT 3 5
REMARK Flexibility Score: inf
ROOT
ATOM      1  C   UNL     1       6.372   0.414   0.811  1.00  0.00     0.127 C 
ENDROOT
BRANCH   1   2
ATOM      2  C   UNL     1       5.316   1.185   1.448  1.00  0.00     0.303 C 
ATOM      3  O   UNL     1       5.034   2.359   1.197  1.00  0.00    -0.252 OA
BRANCH   2   4
ATOM      4  O   UNL     1       4.551   0.541   2.432  1.00  0.00    -0.481 OA
ATOM      5  H   UNL     1       4.941   0.527   3.362  1.00  0.00     0.296 HD
ENDBRANCH   2   4
ENDBRANCH   1   2
BRANCH   1   6
ATOM      6  C   UNL     1       6.431  -0.997   1.248  1.00  0.00     0.047 C 
BRANCH   6   7
ATOM      7  C   UNL     1       7.507  -1.378   2.165  1.00  0.00    -0.043 A 
ATOM      8  C   UNL     1       7.401  -1.174   3.532  1.00  0.00     0.008 A 
ATOM      9  C   UNL     1       8.674  -1.915   1.690  1.00  0.00     0.054 A 
ATOM     10  C   UNL     1       8.427  -1.498   4.392  1.00  0.00     0.051 A 
ATOM     11  C   UNL     1       9.717  -2.249   2.534  1.00  0.00     0.166 A 
ATOM     12  C   UNL     1       9.597  -2.042   3.887  1.00  0.00     0.165 A 
ATOM     13  O   UNL     1      10.964  -2.794   2.283  1.00  0.00    -0.454 OA
ATOM     14  O   UNL     1      10.792  -2.469   4.468  1.00  0.00    -0.454 OA
ATOM     15  C   UNL     1      11.766  -2.645   3.464  1.00  0.00     0.468 C 
ENDBRANCH   6   7
ENDBRANCH   1   6
TORSDOF 4
ENDMDL
