@<TRIPOS>MOLECULE
/home/cewinharhar/GITHUB/reincatalyze/data/processed/docking_pred/2023-May-17-1006_maxeplen10_maxtrainstep1000_seadep16_gamma099_lrac9e-4_lrcr1e-3_sub6/650932a4c96e02f0afcc120cab6b741f416c7ae8_ligand_6.pdbqt
 15 16 0 0 0
SMALL
GASTEIGER

@<TRIPOS>ATOM
      1  C          5.3810    2.9040    0.1020 C.3     1  UNL1        0.1270
      2  C          6.2330    3.8480    0.8070 C.2     1  UNL1        0.3030
      3  O          6.8780    4.7600    0.2870 O.2     1  UNL1       -0.2520
      4  O          6.3290    3.7120    2.2010 O.3     1  UNL1       -0.4810
      5  H          5.7680    2.9850    2.6170 H       1  UNL1        0.2960
      6  C          5.2770    1.5830    0.7580 C.3     1  UNL1        0.0470
      7  C          6.0590    0.4820    0.1920 C.2     1  UNL1       -0.0430
      8  C          6.4210   -0.6180    0.9550 C.2     1  UNL1        0.0080
      9  C          6.4910    0.5260   -1.1070 C.2     1  UNL1        0.0540
     10  C          7.1870   -1.6370    0.4340 C.2     1  UNL1        0.0510
     11  C          7.2600   -0.4860   -1.6520 C.2     1  UNL1        0.1660
     12  C          7.6100   -1.5700   -0.8840 C.2     1  UNL1        0.1650
     13  O          7.7990   -0.6510   -2.9150 O.2     1  UNL1       -0.4540
     14  O          8.3760   -2.4090   -1.6960 O.2     1  UNL1       -0.4540
     15  C          8.7650   -1.7120   -2.8570 C.3     1  UNL1        0.4680
@<TRIPOS>BOND
     1    13    15    1
     2    13    11    1
     3    15    14    1
     4    14    12    1
     5    11     9    1
     6    11    12    2
     7     9     7    2
     8    12    10    1
     9     1     6    1
    10     1     2    1
    11     7     6    1
    12     7     8    1
    13     3     2    2
    14    10     8    2
    15     2     4    1
    16     4     5    1
