@<TRIPOS>MOLECULE
/home/cewinharhar/GITHUB/reincatalyze/data/processed/docking_pred/2023-May-17-1006_maxeplen10_maxtrainstep1000_seadep16_gamma099_lrac9e-4_lrcr1e-3_sub6/650932a4c96e02f0afcc120cab6b741f416c7ae8_ligand_6.pdbqt
 15 16 0 0 0
SMALL
GASTEIGER

@<TRIPOS>ATOM
      1  C          5.1240    2.7540    0.1060 C.3     1  UNL1        0.1270
      2  C          6.1060    3.6430    0.7070 C.2     1  UNL1        0.3030
      3  O          6.8140    4.4460    0.0980 O.2     1  UNL1       -0.2520
      4  O          6.2620    3.5830    2.1010 O.3     1  UNL1       -0.4810
      5  H          7.1570    3.2600    2.4360 H       1  UNL1        0.2960
      6  C          5.7070    1.5420   -0.5070 C.3     1  UNL1        0.0470
      7  C          6.2810    0.5380    0.3910 C.2     1  UNL1       -0.0430
      8  C          5.5930    0.0860    1.5070 C.2     1  UNL1        0.0080
      9  C          7.5380    0.0400    0.1740 C.2     1  UNL1        0.0540
     10  C          6.1450   -0.8310    2.3720 C.2     1  UNL1        0.0510
     11  C          8.1120   -0.8820    1.0290 C.2     1  UNL1        0.1660
     12  C          7.4180   -1.3210    2.1300 C.2     1  UNL1        0.1650
     13  O          9.3450   -1.5100    1.0080 O.2     1  UNL1       -0.4540
     14  O          8.2450   -2.2320    2.7900 O.2     1  UNL1       -0.4540
     15  C          9.5560   -2.1270    2.2870 C.3     1  UNL1        0.4680
@<TRIPOS>BOND
     1     6     1    1
     2     6     7    1
     3     3     2    2
     4     1     2    1
     5     9     7    2
     6     9    11    1
     7     7     8    1
     8     2     4    1
     9    13    11    1
    10    13    15    1
    11    11    12    2
    12     8    10    2
    13     4     5    1
    14    12    10    1
    15    12    14    1
    16    15    14    1
