@<TRIPOS>MOLECULE
/home/cewinharhar/GITHUB/reincatalyze/data/processed/docking_pred/2023-May-17-1006_maxeplen10_maxtrainstep1000_seadep16_gamma099_lrac9e-4_lrcr1e-3_sub6/650932a4c96e02f0afcc120cab6b741f416c7ae8_ligand_6.pdbqt
 15 16 0 0 0
SMALL
GASTEIGER

@<TRIPOS>ATOM
      1  C          6.4170    1.3680    0.6010 C.3     1  UNL1        0.1270
      2  C          5.2100    1.3660    1.4120 C.2     1  UNL1        0.3030
      3  O          4.2690    2.1540    1.2990 O.2     1  UNL1       -0.2520
      4  O          5.1060    0.3850    2.4100 O.3     1  UNL1       -0.4810
      5  H          4.7490   -0.5120    2.1170 H       1  UNL1        0.2960
      6  C          6.2080    0.9060   -0.7880 C.3     1  UNL1        0.0470
      7  C          6.9730   -0.2600   -1.2360 C.2     1  UNL1       -0.0430
      8  C          7.2840   -0.4520   -2.5730 C.2     1  UNL1        0.0080
      9  C          7.3720   -1.2200   -0.3450 C.2     1  UNL1        0.0540
     10  C          7.9720   -1.5660   -3.0010 C.2     1  UNL1        0.0510
     11  C          8.0640   -2.3450   -0.7510 C.2     1  UNL1        0.1660
     12  C          8.3670   -2.5220   -2.0790 C.2     1  UNL1        0.1650
     13  O          8.5590   -3.4260   -0.0410 O.2     1  UNL1       -0.4540
     14  O          9.0570   -3.7310   -2.1780 O.2     1  UNL1       -0.4540
     15  C          8.9130   -4.4540   -0.9780 C.3     1  UNL1        0.4680
@<TRIPOS>BOND
     1    10     8    1
     2    10    12    2
     3     8     7    2
     4    14    12    1
     5    14    15    1
     6    12    11    1
     7     7     6    1
     8     7     9    1
     9    15    13    1
    10     6     1    1
    11    11     9    2
    12    11    13    1
    13     1     2    1
    14     3     2    2
    15     2     4    1
    16     5     4    1
