@<TRIPOS>MOLECULE
/home/cewinharhar/GITHUB/reincatalyze/data/processed/docking_pred/2023-May-17-1006_maxeplen10_maxtrainstep1000_seadep16_gamma099_lrac9e-4_lrcr1e-3_sub6/650932a4c96e02f0afcc120cab6b741f416c7ae8_ligand_6.pdbqt
 15 16 0 0 0
SMALL
GASTEIGER

@<TRIPOS>ATOM
      1  C          6.3720    0.4140    0.8110 C.3     1  UNL1        0.1270
      2  C          5.3160    1.1850    1.4480 C.2     1  UNL1        0.3030
      3  O          5.0340    2.3590    1.1970 O.2     1  UNL1       -0.2520
      4  O          4.5510    0.5410    2.4320 O.3     1  UNL1       -0.4810
      5  H          4.9410    0.5270    3.3620 H       1  UNL1        0.2960
      6  C          6.4310   -0.9970    1.2480 C.3     1  UNL1        0.0470
      7  C          7.5070   -1.3780    2.1650 C.2     1  UNL1       -0.0430
      8  C          7.4010   -1.1740    3.5320 C.2     1  UNL1        0.0080
      9  C          8.6740   -1.9150    1.6900 C.2     1  UNL1        0.0540
     10  C          8.4270   -1.4980    4.3920 C.2     1  UNL1        0.0510
     11  C          9.7170   -2.2490    2.5340 C.2     1  UNL1        0.1660
     12  C          9.5970   -2.0420    3.8870 C.2     1  UNL1        0.1650
     13  O         10.9640   -2.7940    2.2830 O.2     1  UNL1       -0.4540
     14  O         10.7920   -2.4690    4.4680 O.2     1  UNL1       -0.4540
     15  C         11.7660   -2.6450    3.4640 C.3     1  UNL1        0.4680
@<TRIPOS>BOND
     1     1     6    1
     2     1     2    1
     3     3     2    2
     4     6     7    1
     5     2     4    1
     6     9     7    2
     7     9    11    1
     8     7     8    1
     9    13    11    1
    10    13    15    1
    11     4     5    1
    12    11    12    2
    13    15    14    1
    14     8    10    2
    15    12    10    1
    16    12    14    1
