@<TRIPOS>MOLECULE
/home/cewinharhar/GITHUB/reincatalyze/data/processed/docking_pred/2023-May-17-1006_maxeplen10_maxtrainstep1000_seadep16_gamma099_lrac9e-4_lrcr1e-3_sub6/65610c622cc3bd86a4d466f03d6f61670904542e_ligand_6.pdbqt
 15 16 0 0 0
SMALL
GASTEIGER

@<TRIPOS>ATOM
      1  C          5.3370    1.9650    1.1480 C.3     1  UNL1        0.1270
      2  C          4.6070    1.0230    1.9810 C.2     1  UNL1        0.3030
      3  O          5.0090   -0.0900    2.3260 O.2     1  UNL1       -0.2520
      4  O          3.3360    1.4110    2.4320 O.3     1  UNL1       -0.4810
      5  H          2.5650    1.2180    1.8120 H       1  UNL1        0.2960
      6  C          5.3580    1.6070   -0.2870 C.3     1  UNL1        0.0470
      7  C          6.5820    1.0000   -0.8150 C.2     1  UNL1       -0.0430
      8  C          7.8360    1.4800   -0.4700 C.2     1  UNL1        0.0080
      9  C          6.5210   -0.0420   -1.7020 C.2     1  UNL1        0.0540
     10  C          8.9870    0.9340   -0.9940 C.2     1  UNL1        0.0510
     11  C          7.6620   -0.6060   -2.2400 C.2     1  UNL1        0.1660
     12  C          8.8980   -0.1210   -1.8880 C.2     1  UNL1        0.1650
     13  O          7.8380   -1.6460   -3.1360 O.2     1  UNL1       -0.4540
     14  O          9.8420   -0.8790   -2.5830 O.2     1  UNL1       -0.4540
     15  C          9.1980   -1.6180   -3.5950 C.3     1  UNL1        0.4680
@<TRIPOS>BOND
     1    15    13    1
     2    15    14    1
     3    13    11    1
     4    14    12    1
     5    11    12    2
     6    11     9    1
     7    12    10    1
     8     9     7    2
     9    10     8    2
    10     7     8    1
    11     7     6    1
    12     6     1    1
    13     1     2    1
    14     5     4    1
    15     2     3    2
    16     2     4    1
