@<TRIPOS>MOLECULE
/home/cewinharhar/GITHUB/reincatalyze/data/processed/docking_pred/2023-May-17-1006_maxeplen10_maxtrainstep1000_seadep16_gamma099_lrac9e-4_lrcr1e-3_sub6/65610c622cc3bd86a4d466f03d6f61670904542e_ligand_6.pdbqt
 15 16 0 0 0
SMALL
GASTEIGER

@<TRIPOS>ATOM
      1  C          5.3660    2.8710    0.2710 C.3     1  UNL1        0.1270
      2  C          6.2470    3.7980    0.9650 C.2     1  UNL1        0.3030
      3  O          6.4760    3.7990    2.1750 O.2     1  UNL1       -0.2520
      4  O          6.8920    4.7750    0.1910 O.3     1  UNL1       -0.4810
      5  H          6.7580    5.7320    0.4800 H       1  UNL1        0.2960
      6  C          5.3450    1.5120    0.8540 C.3     1  UNL1        0.0470
      7  C          6.1770    0.4890    0.2160 C.2     1  UNL1       -0.0430
      8  C          6.4620    0.5290   -1.1400 C.2     1  UNL1        0.0080
      9  C          6.6670   -0.5660    0.9390 C.2     1  UNL1        0.0540
     10  C          7.2130   -0.4520   -1.7480 C.2     1  UNL1        0.0510
     11  C          7.4230   -1.5620    0.3500 C.2     1  UNL1        0.1660
     12  C          7.6990   -1.5080   -0.9950 C.2     1  UNL1        0.1650
     13  O          8.0120   -2.6990    0.8730 O.2     1  UNL1       -0.4540
     14  O          8.4690   -2.6330   -1.2930 O.2     1  UNL1       -0.4540
     15  C          8.4100   -3.5420   -0.2180 C.3     1  UNL1        0.4680
@<TRIPOS>BOND
     1    10     8    1
     2    10    12    2
     3    14    12    1
     4    14    15    1
     5     8     7    2
     6    12    11    1
     7    15    13    1
     8     4     5    1
     9     4     2    1
    10     7     6    1
    11     7     9    1
    12     1     6    1
    13     1     2    1
    14    11    13    1
    15    11     9    2
    16     2     3    2
