MODEL 1
REMARK VINA RESULT:      -7.4      0.000      0.000
REMARK SMILES O=C(O)CCc1ccc2c(c1)OCO2
REMARK SMILES IDX 4 1 2 2 1 3 3 4 5 6 6 7 7 8 11 9 8 10 10 11 9 12 12 13 14 14
REMARK SMILES IDX 13 15
REMARK H PARENT 3 5
REMARK Flexibility Score: inf
ROOT
ATOM      1  C   UNL     1       5.427   2.882   0.119  1.00  0.00     0.127 C 
ENDROOT
BRANCH   1   2
ATOM      2  C   UNL     1       6.238   3.888   0.786  1.00  0.00     0.303 C 
ATOM      3  O   UNL     1       6.917   4.750   0.225  1.00  0.00    -0.252 OA
BRANCH   2   4
ATOM      4  O   UNL     1       6.249   3.880   2.190  1.00  0.00    -0.481 OA
ATOM      5  H   UNL     1       7.153   3.793   2.627  1.00  0.00     0.296 HD
ENDBRANCH   2   4
ENDBRANCH   1   2
BRANCH   1   6
ATOM      6  C   UNL     1       5.361   1.592   0.837  1.00  0.00     0.047 C 
BRANCH   6   7
ATOM      7  C   UNL     1       6.129   0.471   0.290  1.00  0.00    -0.043 A 
ATOM      8  C   UNL     1       6.569  -0.568   1.096  1.00  0.00     0.008 A 
ATOM      9  C   UNL     1       6.470   0.437  -1.036  1.00  0.00     0.054 A 
ATOM     10  C   UNL     1       7.323  -1.603   0.590  1.00  0.00     0.051 A 
ATOM     11  C   UNL     1       7.224  -0.592  -1.566  1.00  0.00     0.166 A 
ATOM     12  C   UNL     1       7.653  -1.616  -0.756  1.00  0.00     0.165 A 
ATOM     13  O   UNL     1       7.679  -0.831  -2.851  1.00  0.00    -0.454 OA
ATOM     14  O   UNL     1       8.381  -2.491  -1.563  1.00  0.00    -0.454 OA
ATOM     15  C   UNL     1       8.672  -1.866  -2.792  1.00  0.00     0.468 C 
ENDBRANCH   6   7
ENDBRANCH   1   6
TORSDOF 4
ENDMDL
MODEL 2
REMARK VINA RESULT:      -7.4      1.992      2.921
REMARK SMILES O=C(O)CCc1ccc2c(c1)OCO2
REMARK SMILES IDX 4 1 2 2 1 3 3 4 5 6 6 7 7 8 11 9 8 10 10 11 9 12 12 13 14 14
REMARK SMILES IDX 13 15
REMARK H PARENT 3 5
REMARK Flexibility Score: inf
ROOT
ATOM      1  C   UNL     1       6.396   1.215   0.732  1.00  0.00     0.127 C 
ENDROOT
BRANCH   1   2
ATOM      2  C   UNL     1       5.154   1.257   1.488  1.00  0.00     0.303 C 
ATOM      3  O   UNL     1       4.268   2.104   1.365  1.00  0.00    -0.252 OA
BRANCH   2   4
ATOM      4  O   UNL     1       4.945   0.248   2.441  1.00  0.00    -0.481 OA
ATOM      5  H   UNL     1       4.268  -0.459   2.200  1.00  0.00     0.296 HD
ENDBRANCH   2   4
ENDBRANCH   1   2
BRANCH   1   6
ATOM      6  C   UNL     1       6.230   0.779  -0.671  1.00  0.00     0.047 C 
BRANCH   6   7
ATOM      7  C   UNL     1       6.986  -0.397  -1.108  1.00  0.00    -0.043 A 
ATOM      8  C   UNL     1       7.277  -0.614  -2.446  1.00  0.00     0.008 A 
ATOM      9  C   UNL     1       7.395  -1.342  -0.205  1.00  0.00     0.054 A 
ATOM     10  C   UNL     1       7.956  -1.738  -2.863  1.00  0.00     0.051 A 
ATOM     11  C   UNL     1       8.078  -2.476  -0.601  1.00  0.00     0.166 A 
ATOM     12  C   UNL     1       8.361  -2.678  -1.930  1.00  0.00     0.165 A 
ATOM     13  O   UNL     1       8.581  -3.545   0.121  1.00  0.00    -0.454 OA
ATOM     14  O   UNL     1       9.047  -3.891  -2.016  1.00  0.00    -0.454 OA
ATOM     15  C   UNL     1       8.919  -4.591  -0.801  1.00  0.00     0.468 C 
ENDBRANCH   6   7
ENDBRANCH   1   6
TORSDOF 4
ENDMDL
MODEL 3
REMARK VINA RESULT:      -7.3      2.327      2.635
REMARK SMILES O=C(O)CCc1ccc2c(c1)OCO2
REMARK SMILES IDX 4 1 2 2 1 3 3 4 5 6 6 7 7 8 11 9 8 10 10 11 9 12 12 13 14 14
REMARK SMILES IDX 13 15
REMARK H PARENT 3 5
REMARK Flexibility Score: inf
ROOT
ATOM      1  C   UNL     1       5.337   1.965   1.148  1.00  0.00     0.127 C 
ENDROOT
BRANCH   1   2
ATOM      2  C   UNL     1       4.607   1.023   1.981  1.00  0.00     0.303 C 
ATOM      3  O   UNL     1       5.009  -0.090   2.326  1.00  0.00    -0.252 OA
BRANCH   2   4
ATOM      4  O   UNL     1       3.336   1.411   2.432  1.00  0.00    -0.481 OA
ATOM      5  H   UNL     1       2.565   1.218   1.812  1.00  0.00     0.296 HD
ENDBRANCH   2   4
ENDBRANCH   1   2
BRANCH   1   6
ATOM      6  C   UNL     1       5.358   1.607  -0.287  1.00  0.00     0.047 C 
BRANCH   6   7
ATOM      7  C   UNL     1       6.582   1.000  -0.815  1.00  0.00    -0.043 A 
ATOM      8  C   UNL     1       7.836   1.480  -0.470  1.00  0.00     0.008 A 
ATOM      9  C   UNL     1       6.521  -0.042  -1.702  1.00  0.00     0.054 A 
ATOM     10  C   UNL     1       8.987   0.934  -0.994  1.00  0.00     0.051 A 
ATOM     11  C   UNL     1       7.662  -0.606  -2.240  1.00  0.00     0.166 A 
ATOM     12  C   UNL     1       8.898  -0.121  -1.888  1.00  0.00     0.165 A 
ATOM     13  O   UNL     1       7.838  -1.646  -3.136  1.00  0.00    -0.454 OA
ATOM     14  O   UNL     1       9.842  -0.879  -2.583  1.00  0.00    -0.454 OA
ATOM     15  C   UNL     1       9.198  -1.618  -3.595  1.00  0.00     0.468 C 
ENDBRANCH   6   7
ENDBRANCH   1   6
TORSDOF 4
ENDMDL
MODEL 4
REMARK VINA RESULT:      -7.3      1.885      5.220
REMARK SMILES O=C(O)CCc1ccc2c(c1)OCO2
REMARK SMILES IDX 4 1 2 2 1 3 3 4 5 6 6 7 7 8 11 9 8 10 10 11 9 12 12 13 14 14
REMARK SMILES IDX 13 15
REMARK H PARENT 3 5
REMARK Flexibility Score: inf
ROOT
ATOM      1  C   UNL     1       8.593  -0.139  -3.044  1.00  0.00     0.127 C 
ENDROOT
BRANCH   1   2
ATOM      2  C   UNL     1       8.748  -1.577  -3.200  1.00  0.00     0.303 C 
ATOM      3  O   UNL     1       9.820  -2.186  -3.213  1.00  0.00    -0.252 OA
BRANCH   2   4
ATOM      4  O   UNL     1       7.578  -2.339  -3.347  1.00  0.00    -0.481 OA
ATOM      5  H   UNL     1       7.190  -2.727  -2.501  1.00  0.00     0.296 HD
ENDBRANCH   2   4
ENDBRANCH   1   2
BRANCH   1   6
ATOM      6  C   UNL     1       9.082   0.380  -1.749  1.00  0.00     0.047 C 
BRANCH   6   7
ATOM      7  C   UNL     1       8.175   0.303  -0.602  1.00  0.00    -0.043 A 
ATOM      8  C   UNL     1       8.362  -0.629   0.408  1.00  0.00     0.008 A 
ATOM      9  C   UNL     1       7.087   1.129  -0.512  1.00  0.00     0.054 A 
ATOM     10  C   UNL     1       7.490  -0.728   1.469  1.00  0.00     0.051 A 
ATOM     11  C   UNL     1       6.198   1.049   0.543  1.00  0.00     0.166 A 
ATOM     12  C   UNL     1       6.396   0.121   1.537  1.00  0.00     0.165 A 
ATOM     13  O   UNL     1       5.052   1.767   0.836  1.00  0.00    -0.454 OA
ATOM     14  O   UNL     1       5.352   0.278   2.449  1.00  0.00    -0.454 OA
ATOM     15  C   UNL     1       4.342   1.076   1.875  1.00  0.00     0.468 C 
ENDBRANCH   6   7
ENDBRANCH   1   6
TORSDOF 4
ENDMDL
MODEL 5
REMARK VINA RESULT:      -7.2      0.894      2.070
REMARK SMILES O=C(O)CCc1ccc2c(c1)OCO2
REMARK SMILES IDX 4 1 2 2 1 3 3 4 5 6 6 7 7 8 11 9 8 10 10 11 9 12 12 13 14 14
REMARK SMILES IDX 13 15
REMARK H PARENT 3 5
REMARK Flexibility Score: inf
ROOT
ATOM      1  C   UNL     1       5.366   2.871   0.271  1.00  0.00     0.127 C 
ENDROOT
BRANCH   1   2
ATOM      2  C   UNL     1       6.247   3.798   0.965  1.00  0.00     0.303 C 
ATOM      3  O   UNL     1       6.476   3.799   2.175  1.00  0.00    -0.252 OA
BRANCH   2   4
ATOM      4  O   UNL     1       6.892   4.775   0.191  1.00  0.00    -0.481 OA
ATOM      5  H   UNL     1       6.758   5.732   0.480  1.00  0.00     0.296 HD
ENDBRANCH   2   4
ENDBRANCH   1   2
BRANCH   1   6
ATOM      6  C   UNL     1       5.345   1.512   0.854  1.00  0.00     0.047 C 
BRANCH   6   7
ATOM      7  C   UNL     1       6.177   0.489   0.216  1.00  0.00    -0.043 A 
ATOM      8  C   UNL     1       6.462   0.529  -1.140  1.00  0.00     0.008 A 
ATOM      9  C   UNL     1       6.667  -0.566   0.939  1.00  0.00     0.054 A 
ATOM     10  C   UNL     1       7.213  -0.452  -1.748  1.00  0.00     0.051 A 
ATOM     11  C   UNL     1       7.423  -1.562   0.350  1.00  0.00     0.166 A 
ATOM     12  C   UNL     1       7.699  -1.508  -0.995  1.00  0.00     0.165 A 
ATOM     13  O   UNL     1       8.012  -2.699   0.873  1.00  0.00    -0.454 OA
ATOM     14  O   UNL     1       8.469  -2.633  -1.293  1.00  0.00    -0.454 OA
ATOM     15  C   UNL     1       8.410  -3.542  -0.218  1.00  0.00     0.468 C 
ENDBRANCH   6   7
ENDBRANCH   1   6
TORSDOF 4
ENDMDL
