@<TRIPOS>MOLECULE
/home/cewinharhar/GITHUB/reincatalyze/data/processed/docking_pred/2023-May-17-1006_maxeplen10_maxtrainstep1000_seadep16_gamma099_lrac9e-4_lrcr1e-3_sub6/65610c622cc3bd86a4d466f03d6f61670904542e_ligand_6.pdbqt
 15 16 0 0 0
SMALL
GASTEIGER

@<TRIPOS>ATOM
      1  C          6.3960    1.2150    0.7320 C.3     1  UNL1        0.1270
      2  C          5.1540    1.2570    1.4880 C.2     1  UNL1        0.3030
      3  O          4.2680    2.1040    1.3650 O.2     1  UNL1       -0.2520
      4  O          4.9450    0.2480    2.4410 O.3     1  UNL1       -0.4810
      5  H          4.2680   -0.4590    2.2000 H       1  UNL1        0.2960
      6  C          6.2300    0.7790   -0.6710 C.3     1  UNL1        0.0470
      7  C          6.9860   -0.3970   -1.1080 C.2     1  UNL1       -0.0430
      8  C          7.2770   -0.6140   -2.4460 C.2     1  UNL1        0.0080
      9  C          7.3950   -1.3420   -0.2050 C.2     1  UNL1        0.0540
     10  C          7.9560   -1.7380   -2.8630 C.2     1  UNL1        0.0510
     11  C          8.0780   -2.4760   -0.6010 C.2     1  UNL1        0.1660
     12  C          8.3610   -2.6780   -1.9300 C.2     1  UNL1        0.1650
     13  O          8.5810   -3.5450    0.1210 O.2     1  UNL1       -0.4540
     14  O          9.0470   -3.8910   -2.0160 O.2     1  UNL1       -0.4540
     15  C          8.9190   -4.5910   -0.8010 C.3     1  UNL1        0.4680
@<TRIPOS>BOND
     1    10     8    1
     2    10    12    2
     3     8     7    2
     4    14    12    1
     5    14    15    1
     6    12    11    1
     7     7     6    1
     8     7     9    1
     9    15    13    1
    10     6     1    1
    11    11     9    2
    12    11    13    1
    13     1     2    1
    14     3     2    2
    15     2     4    1
    16     5     4    1
