@<TRIPOS>MOLECULE
/home/cewinharhar/GITHUB/reincatalyze/data/processed/docking_pred/2023-May-17-1006_maxeplen10_maxtrainstep1000_seadep16_gamma099_lrac9e-4_lrcr1e-3_sub6/65610c622cc3bd86a4d466f03d6f61670904542e_ligand_6.pdbqt
 15 16 0 0 0
SMALL
GASTEIGER

@<TRIPOS>ATOM
      1  C          8.5930   -0.1390   -3.0440 C.3     1  UNL1        0.1270
      2  C          8.7480   -1.5770   -3.2000 C.2     1  UNL1        0.3030
      3  O          9.8200   -2.1860   -3.2130 O.2     1  UNL1       -0.2520
      4  O          7.5780   -2.3390   -3.3470 O.3     1  UNL1       -0.4810
      5  H          7.1900   -2.7270   -2.5010 H       1  UNL1        0.2960
      6  C          9.0820    0.3800   -1.7490 C.3     1  UNL1        0.0470
      7  C          8.1750    0.3030   -0.6020 C.2     1  UNL1       -0.0430
      8  C          8.3620   -0.6290    0.4080 C.2     1  UNL1        0.0080
      9  C          7.0870    1.1290   -0.5120 C.2     1  UNL1        0.0540
     10  C          7.4900   -0.7280    1.4690 C.2     1  UNL1        0.0510
     11  C          6.1980    1.0490    0.5430 C.2     1  UNL1        0.1660
     12  C          6.3960    0.1210    1.5370 C.2     1  UNL1        0.1650
     13  O          5.0520    1.7670    0.8360 O.2     1  UNL1       -0.4540
     14  O          5.3520    0.2780    2.4490 O.2     1  UNL1       -0.4540
     15  C          4.3420    1.0760    1.8750 C.3     1  UNL1        0.4680
@<TRIPOS>BOND
     1     4     2    1
     2     4     5    1
     3     3     2    2
     4     2     1    1
     5     1     6    1
     6     6     7    1
     7     7     9    2
     8     7     8    1
     9     9    11    1
    10     8    10    2
    11    11    13    1
    12    11    12    2
    13    13    15    1
    14    10    12    1
    15    12    14    1
    16    15    14    1
