@<TRIPOS>MOLECULE
/home/cewinharhar/GITHUB/reincatalyze/data/processed/docking_pred/2023-May-17-1006_maxeplen10_maxtrainstep1000_seadep16_gamma099_lrac9e-4_lrcr1e-3_sub6/65610c622cc3bd86a4d466f03d6f61670904542e_ligand_6.pdbqt
 15 16 0 0 0
SMALL
GASTEIGER

@<TRIPOS>ATOM
      1  C          5.4270    2.8820    0.1190 C.3     1  UNL1        0.1270
      2  C          6.2380    3.8880    0.7860 C.2     1  UNL1        0.3030
      3  O          6.9170    4.7500    0.2250 O.2     1  UNL1       -0.2520
      4  O          6.2490    3.8800    2.1900 O.3     1  UNL1       -0.4810
      5  H          7.1530    3.7930    2.6270 H       1  UNL1        0.2960
      6  C          5.3610    1.5920    0.8370 C.3     1  UNL1        0.0470
      7  C          6.1290    0.4710    0.2900 C.2     1  UNL1       -0.0430
      8  C          6.5690   -0.5680    1.0960 C.2     1  UNL1        0.0080
      9  C          6.4700    0.4370   -1.0360 C.2     1  UNL1        0.0540
     10  C          7.3230   -1.6030    0.5900 C.2     1  UNL1        0.0510
     11  C          7.2240   -0.5920   -1.5660 C.2     1  UNL1        0.1660
     12  C          7.6530   -1.6160   -0.7560 C.2     1  UNL1        0.1650
     13  O          7.6790   -0.8310   -2.8510 O.2     1  UNL1       -0.4540
     14  O          8.3810   -2.4910   -1.5630 O.2     1  UNL1       -0.4540
     15  C          8.6720   -1.8660   -2.7920 C.3     1  UNL1        0.4680
@<TRIPOS>BOND
     1    13    15    1
     2    13    11    1
     3    15    14    1
     4    11     9    1
     5    11    12    2
     6    14    12    1
     7     9     7    2
     8    12    10    1
     9     1     2    1
    10     1     6    1
    11     3     2    2
    12     7     6    1
    13     7     8    1
    14    10     8    2
    15     2     4    1
    16     4     5    1
