@<TRIPOS>MOLECULE
/home/cewinharhar/GITHUB/reincatalyze/data/processed/docking_pred/2023-May-17-1006_maxeplen10_maxtrainstep1000_seadep16_gamma099_lrac9e-4_lrcr1e-3_sub6/661305b30cebe31e235170a50c1781f21e405ac9_ligand_6.pdbqt
 15 16 0 0 0
SMALL
GASTEIGER

@<TRIPOS>ATOM
      1  C          5.4170    2.8700    0.1190 C.3     1  UNL1        0.1270
      2  C          6.2450    3.8540    0.7990 C.2     1  UNL1        0.3030
      3  O          6.8950    4.7460    0.2520 O.2     1  UNL1       -0.2520
      4  O          6.3110    3.7830    2.2000 O.3     1  UNL1       -0.4810
      5  H          6.8520    4.5000    2.6570 H       1  UNL1        0.2960
      6  C          5.3540    1.5620    0.8040 C.3     1  UNL1        0.0470
      7  C          6.1300    0.4590    0.2320 C.2     1  UNL1       -0.0430
      8  C          6.5760   -0.5950    1.0140 C.2     1  UNL1        0.0080
      9  C          6.4710    0.4580   -1.0940 C.2     1  UNL1        0.0540
     10  C          7.3370   -1.6140    0.4850 C.2     1  UNL1        0.0510
     11  C          7.2320   -0.5540   -1.6470 C.2     1  UNL1        0.1660
     12  C          7.6670   -1.5930   -0.8600 C.2     1  UNL1        0.1650
     13  O          7.6890   -0.7610   -2.9370 O.2     1  UNL1       -0.4540
     14  O          8.4010   -2.4450   -1.6870 O.2     1  UNL1       -0.4540
     15  C          8.6890   -1.7900   -2.9010 C.3     1  UNL1        0.4680
@<TRIPOS>BOND
     1    13    15    1
     2    13    11    1
     3    15    14    1
     4    14    12    1
     5    11     9    1
     6    11    12    2
     7     9     7    2
     8    12    10    1
     9     1     2    1
    10     1     6    1
    11     7     6    1
    12     7     8    1
    13     3     2    2
    14    10     8    2
    15     2     4    1
    16     4     5    1
