@<TRIPOS>MOLECULE
/home/cewinharhar/GITHUB/reincatalyze/data/processed/docking_pred/2023-May-17-1006_maxeplen10_maxtrainstep1000_seadep16_gamma099_lrac9e-4_lrcr1e-3_sub6/661305b30cebe31e235170a50c1781f21e405ac9_ligand_6.pdbqt
 15 16 0 0 0
SMALL
GASTEIGER

@<TRIPOS>ATOM
      1  C          6.3840    1.3210    0.6380 C.3     1  UNL1        0.1270
      2  C          5.1830    1.3090    1.4580 C.2     1  UNL1        0.3030
      3  O          4.2380    2.0940    1.3590 O.2     1  UNL1       -0.2520
      4  O          5.0900    0.3190    2.4490 O.3     1  UNL1       -0.4810
      5  H          5.1210    0.6410    3.4040 H       1  UNL1        0.2960
      6  C          6.1810    0.8000   -0.7310 C.3     1  UNL1        0.0470
      7  C          6.9530   -0.3790   -1.1280 C.2     1  UNL1       -0.0430
      8  C          7.2820   -0.6180   -2.4530 C.2     1  UNL1        0.0080
      9  C          7.3430   -1.3070   -0.1980 C.2     1  UNL1        0.0540
     10  C          7.9760   -1.7450   -2.8320 C.2     1  UNL1        0.0510
     11  C          8.0410   -2.4450   -0.5550 C.2     1  UNL1        0.1660
     12  C          8.3600   -2.6680   -1.8730 C.2     1  UNL1        0.1650
     13  O          8.5280   -3.4980    0.1990 O.2     1  UNL1       -0.4540
     14  O          9.0540   -3.8780   -1.9200 O.2     1  UNL1       -0.4540
     15  C          8.8960   -4.5590   -0.6960 C.3     1  UNL1        0.4680
@<TRIPOS>BOND
     1    10     8    1
     2    10    12    2
     3     8     7    2
     4    14    12    1
     5    14    15    1
     6    12    11    1
     7     7     6    1
     8     7     9    1
     9     6     1    1
    10    15    13    1
    11    11     9    2
    12    11    13    1
    13     1     2    1
    14     3     2    2
    15     2     4    1
    16     4     5    1
