@<TRIPOS>MOLECULE
/home/cewinharhar/GITHUB/reincatalyze/data/processed/docking_pred/2023-May-17-1006_maxeplen10_maxtrainstep1000_seadep16_gamma099_lrac9e-4_lrcr1e-3_sub6/661305b30cebe31e235170a50c1781f21e405ac9_ligand_6.pdbqt
 15 16 0 0 0
SMALL
GASTEIGER

@<TRIPOS>ATOM
      1  C          8.3100   -0.3240   -2.8420 C.3     1  UNL1        0.1270
      2  C          8.4680   -1.7520   -3.0670 C.2     1  UNL1        0.3030
      3  O          9.5340   -2.3700   -3.0350 O.2     1  UNL1       -0.2520
      4  O          7.3080   -2.4930   -3.3430 O.3     1  UNL1       -0.4810
      5  H          7.3600   -3.4850   -3.1640 H       1  UNL1        0.2960
      6  C          8.7660    0.1280   -1.5110 C.3     1  UNL1        0.0470
      7  C          7.7960    0.0910   -0.4140 C.2     1  UNL1       -0.0430
      8  C          7.7480   -0.9730    0.4750 C.2     1  UNL1        0.0080
      9  C          6.8770    1.0940   -0.2570 C.2     1  UNL1        0.0540
     10  C          6.8130   -1.0270    1.4840 C.2     1  UNL1        0.0510
     11  C          5.9300    1.0610    0.7490 C.2     1  UNL1        0.1660
     12  C          5.8950    0.0020    1.6230 C.2     1  UNL1        0.1650
     13  O          4.9230    1.9460    1.0920 O.2     1  UNL1       -0.4540
     14  O          4.8470    0.2470    2.5120 O.2     1  UNL1       -0.4540
     15  C          4.0390    1.2860    2.0110 C.3     1  UNL1        0.4680
@<TRIPOS>BOND
     1     4     5    1
     2     4     2    1
     3     2     3    2
     4     2     1    1
     5     1     6    1
     6     6     7    1
     7     7     9    2
     8     7     8    1
     9     9    11    1
    10     8    10    2
    11    11    13    1
    12    11    12    2
    13    13    15    1
    14    10    12    1
    15    12    14    1
    16    15    14    1
