MODEL 1
REMARK VINA RESULT:      -7.7      0.000      0.000
REMARK SMILES O=C(O)CCc1ccc2c(c1)OCO2
REMARK SMILES IDX 4 1 2 2 1 3 3 4 5 6 6 7 7 8 11 9 8 10 10 11 9 12 12 13 14 14
REMARK SMILES IDX 13 15
REMARK H PARENT 3 5
REMARK Flexibility Score: inf
ROOT
ATOM      1  C   UNL     1       5.417   2.870   0.119  1.00  0.00     0.127 C 
ENDROOT
BRANCH   1   2
ATOM      2  C   UNL     1       6.245   3.854   0.799  1.00  0.00     0.303 C 
ATOM      3  O   UNL     1       6.895   4.746   0.252  1.00  0.00    -0.252 OA
BRANCH   2   4
ATOM      4  O   UNL     1       6.311   3.783   2.200  1.00  0.00    -0.481 OA
ATOM      5  H   UNL     1       6.852   4.500   2.657  1.00  0.00     0.296 HD
ENDBRANCH   2   4
ENDBRANCH   1   2
BRANCH   1   6
ATOM      6  C   UNL     1       5.354   1.562   0.804  1.00  0.00     0.047 C 
BRANCH   6   7
ATOM      7  C   UNL     1       6.130   0.459   0.232  1.00  0.00    -0.043 A 
ATOM      8  C   UNL     1       6.576  -0.595   1.014  1.00  0.00     0.008 A 
ATOM      9  C   UNL     1       6.471   0.458  -1.094  1.00  0.00     0.054 A 
ATOM     10  C   UNL     1       7.337  -1.614   0.485  1.00  0.00     0.051 A 
ATOM     11  C   UNL     1       7.232  -0.554  -1.647  1.00  0.00     0.166 A 
ATOM     12  C   UNL     1       7.667  -1.593  -0.860  1.00  0.00     0.165 A 
ATOM     13  O   UNL     1       7.689  -0.761  -2.937  1.00  0.00    -0.454 OA
ATOM     14  O   UNL     1       8.401  -2.445  -1.687  1.00  0.00    -0.454 OA
ATOM     15  C   UNL     1       8.689  -1.790  -2.901  1.00  0.00     0.468 C 
ENDBRANCH   6   7
ENDBRANCH   1   6
TORSDOF 4
ENDMDL
MODEL 2
REMARK VINA RESULT:      -7.6      2.126      2.511
REMARK SMILES O=C(O)CCc1ccc2c(c1)OCO2
REMARK SMILES IDX 4 1 2 2 1 3 3 4 5 6 6 7 7 8 11 9 8 10 10 11 9 12 12 13 14 14
REMARK SMILES IDX 13 15
REMARK H PARENT 3 5
REMARK Flexibility Score: inf
ROOT
ATOM      1  C   UNL     1       4.717   1.890   0.685  1.00  0.00     0.127 C 
ENDROOT
BRANCH   1   2
ATOM      2  C   UNL     1       4.404   1.170   1.909  1.00  0.00     0.303 C 
ATOM      3  O   UNL     1       5.125   0.330   2.451  1.00  0.00    -0.252 OA
BRANCH   2   4
ATOM      4  O   UNL     1       3.176   1.452   2.528  1.00  0.00    -0.481 OA
ATOM      5  H   UNL     1       2.454   0.757   2.422  1.00  0.00     0.296 HD
ENDBRANCH   2   4
ENDBRANCH   1   2
BRANCH   1   6
ATOM      6  C   UNL     1       6.147   2.237   0.541  1.00  0.00     0.047 C 
BRANCH   6   7
ATOM      7  C   UNL     1       6.990   1.324  -0.233  1.00  0.00    -0.043 A 
ATOM      8  C   UNL     1       8.353   1.537  -0.371  1.00  0.00     0.008 A 
ATOM      9  C   UNL     1       6.446   0.246  -0.880  1.00  0.00     0.054 A 
ATOM     10  C   UNL     1       9.141   0.700  -1.129  1.00  0.00     0.051 A 
ATOM     11  C   UNL     1       7.217  -0.608  -1.645  1.00  0.00     0.166 A 
ATOM     12  C   UNL     1       8.567  -0.385  -1.772  1.00  0.00     0.165 A 
ATOM     13  O   UNL     1       6.890  -1.738  -2.373  1.00  0.00    -0.454 OA
ATOM     14  O   UNL     1       9.068  -1.397  -2.592  1.00  0.00    -0.454 OA
ATOM     15  C   UNL     1       7.999  -2.061  -3.226  1.00  0.00     0.468 C 
ENDBRANCH   6   7
ENDBRANCH   1   6
TORSDOF 4
ENDMDL
MODEL 3
REMARK VINA RESULT:      -7.5      1.979      2.893
REMARK SMILES O=C(O)CCc1ccc2c(c1)OCO2
REMARK SMILES IDX 4 1 2 2 1 3 3 4 5 6 6 7 7 8 11 9 8 10 10 11 9 12 12 13 14 14
REMARK SMILES IDX 13 15
REMARK H PARENT 3 5
REMARK Flexibility Score: inf
ROOT
ATOM      1  C   UNL     1       6.384   1.321   0.638  1.00  0.00     0.127 C 
ENDROOT
BRANCH   1   2
ATOM      2  C   UNL     1       5.183   1.309   1.458  1.00  0.00     0.303 C 
ATOM      3  O   UNL     1       4.238   2.094   1.359  1.00  0.00    -0.252 OA
BRANCH   2   4
ATOM      4  O   UNL     1       5.090   0.319   2.449  1.00  0.00    -0.481 OA
ATOM      5  H   UNL     1       5.121   0.641   3.404  1.00  0.00     0.296 HD
ENDBRANCH   2   4
ENDBRANCH   1   2
BRANCH   1   6
ATOM      6  C   UNL     1       6.181   0.800  -0.731  1.00  0.00     0.047 C 
BRANCH   6   7
ATOM      7  C   UNL     1       6.953  -0.379  -1.128  1.00  0.00    -0.043 A 
ATOM      8  C   UNL     1       7.282  -0.618  -2.453  1.00  0.00     0.008 A 
ATOM      9  C   UNL     1       7.343  -1.307  -0.198  1.00  0.00     0.054 A 
ATOM     10  C   UNL     1       7.976  -1.745  -2.832  1.00  0.00     0.051 A 
ATOM     11  C   UNL     1       8.041  -2.445  -0.555  1.00  0.00     0.166 A 
ATOM     12  C   UNL     1       8.360  -2.668  -1.873  1.00  0.00     0.165 A 
ATOM     13  O   UNL     1       8.528  -3.498   0.199  1.00  0.00    -0.454 OA
ATOM     14  O   UNL     1       9.054  -3.878  -1.920  1.00  0.00    -0.454 OA
ATOM     15  C   UNL     1       8.896  -4.559  -0.696  1.00  0.00     0.468 C 
ENDBRANCH   6   7
ENDBRANCH   1   6
TORSDOF 4
ENDMDL
MODEL 4
REMARK VINA RESULT:      -7.4      1.799      5.285
REMARK SMILES O=C(O)CCc1ccc2c(c1)OCO2
REMARK SMILES IDX 4 1 2 2 1 3 3 4 5 6 6 7 7 8 11 9 8 10 10 11 9 12 12 13 14 14
REMARK SMILES IDX 13 15
REMARK H PARENT 3 5
REMARK Flexibility Score: inf
ROOT
ATOM      1  C   UNL     1       8.310  -0.324  -2.842  1.00  0.00     0.127 C 
ENDROOT
BRANCH   1   2
ATOM      2  C   UNL     1       8.468  -1.752  -3.067  1.00  0.00     0.303 C 
ATOM      3  O   UNL     1       9.534  -2.370  -3.035  1.00  0.00    -0.252 OA
BRANCH   2   4
ATOM      4  O   UNL     1       7.308  -2.493  -3.343  1.00  0.00    -0.481 OA
ATOM      5  H   UNL     1       7.360  -3.485  -3.164  1.00  0.00     0.296 HD
ENDBRANCH   2   4
ENDBRANCH   1   2
BRANCH   1   6
ATOM      6  C   UNL     1       8.766   0.128  -1.511  1.00  0.00     0.047 C 
BRANCH   6   7
ATOM      7  C   UNL     1       7.796   0.091  -0.414  1.00  0.00    -0.043 A 
ATOM      8  C   UNL     1       7.748  -0.973   0.475  1.00  0.00     0.008 A 
ATOM      9  C   UNL     1       6.877   1.094  -0.257  1.00  0.00     0.054 A 
ATOM     10  C   UNL     1       6.813  -1.027   1.484  1.00  0.00     0.051 A 
ATOM     11  C   UNL     1       5.930   1.061   0.749  1.00  0.00     0.166 A 
ATOM     12  C   UNL     1       5.895   0.002   1.623  1.00  0.00     0.165 A 
ATOM     13  O   UNL     1       4.923   1.946   1.092  1.00  0.00    -0.454 OA
ATOM     14  O   UNL     1       4.847   0.247   2.512  1.00  0.00    -0.454 OA
ATOM     15  C   UNL     1       4.039   1.286   2.011  1.00  0.00     0.468 C 
ENDBRANCH   6   7
ENDBRANCH   1   6
TORSDOF 4
ENDMDL
