@<TRIPOS>MOLECULE
/home/cewinharhar/GITHUB/reincatalyze/data/processed/docking_pred/2023-May-17-1006_maxeplen10_maxtrainstep1000_seadep16_gamma099_lrac9e-4_lrcr1e-3_sub6/661305b30cebe31e235170a50c1781f21e405ac9_ligand_6.pdbqt
 15 16 0 0 0
SMALL
GASTEIGER

@<TRIPOS>ATOM
      1  C          4.7170    1.8900    0.6850 C.3     1  UNL1        0.1270
      2  C          4.4040    1.1700    1.9090 C.2     1  UNL1        0.3030
      3  O          5.1250    0.3300    2.4510 O.2     1  UNL1       -0.2520
      4  O          3.1760    1.4520    2.5280 O.3     1  UNL1       -0.4810
      5  H          2.4540    0.7570    2.4220 H       1  UNL1        0.2960
      6  C          6.1470    2.2370    0.5410 C.3     1  UNL1        0.0470
      7  C          6.9900    1.3240   -0.2330 C.2     1  UNL1       -0.0430
      8  C          8.3530    1.5370   -0.3710 C.2     1  UNL1        0.0080
      9  C          6.4460    0.2460   -0.8800 C.2     1  UNL1        0.0540
     10  C          9.1410    0.7000   -1.1290 C.2     1  UNL1        0.0510
     11  C          7.2170   -0.6080   -1.6450 C.2     1  UNL1        0.1660
     12  C          8.5670   -0.3850   -1.7720 C.2     1  UNL1        0.1650
     13  O          6.8900   -1.7380   -2.3730 O.2     1  UNL1       -0.4540
     14  O          9.0680   -1.3970   -2.5920 O.2     1  UNL1       -0.4540
     15  C          7.9990   -2.0610   -3.2260 C.3     1  UNL1        0.4680
@<TRIPOS>BOND
     1    15    14    1
     2    15    13    1
     3    14    12    1
     4    13    11    1
     5    12    11    2
     6    12    10    1
     7    11     9    1
     8    10     8    2
     9     9     7    2
    10     8     7    1
    11     7     6    1
    12     6     1    1
    13     1     2    1
    14     2     3    2
    15     2     4    1
    16     5     4    1
