@<TRIPOS>MOLECULE
/home/cewinharhar/GITHUB/reincatalyze/data/processed/docking_pred/2023-May-17-1006_maxeplen10_maxtrainstep1000_seadep16_gamma099_lrac9e-4_lrcr1e-3_sub6/67714d3181cdcfbe83529be90e704c7fe5693ba3_ligand_6.pdbqt
 15 16 0 0 0
SMALL
GASTEIGER

@<TRIPOS>ATOM
      1  C          5.4130    1.0260    0.5530 C.3     1  UNL1        0.1270
      2  C          5.0790    0.5540    1.8870 C.2     1  UNL1        0.3030
      3  O          5.7640   -0.2090    2.5710 O.2     1  UNL1       -0.2520
      4  O          3.8720    1.0040    2.4460 O.3     1  UNL1       -0.4810
      5  H          3.8880    1.2080    3.4340 H       1  UNL1        0.2960
      6  C          6.8560    0.9590    0.2370 C.3     1  UNL1        0.0470
      7  C          7.3360   -0.2180   -0.4910 C.2     1  UNL1       -0.0430
      8  C          7.2330   -0.3080   -1.8710 C.2     1  UNL1        0.0080
      9  C          7.8680   -1.2870    0.1790 C.2     1  UNL1        0.0540
     10  C          7.6510   -1.4290   -2.5530 C.2     1  UNL1        0.0510
     11  C          8.2940   -2.4220   -0.4850 C.2     1  UNL1        0.1660
     12  C          8.1870   -2.4970   -1.8530 C.2     1  UNL1        0.1650
     13  O          8.8540   -3.6010   -0.0240 O.2     1  UNL1       -0.4540
     14  O          8.6910   -3.7430   -2.2290 O.2     1  UNL1       -0.4540
     15  C          8.8180   -4.5620   -1.0890 C.3     1  UNL1        0.4680
@<TRIPOS>BOND
     1    10     8    1
     2    10    12    2
     3    14    12    1
     4    14    15    1
     5     8     7    2
     6    12    11    1
     7    15    13    1
     8     7     9    1
     9     7     6    1
    10    11    13    1
    11    11     9    2
    12     6     1    1
    13     1     2    1
    14     2     4    1
    15     2     3    2
    16     4     5    1
