@<TRIPOS>MOLECULE
/home/cewinharhar/GITHUB/reincatalyze/data/processed/docking_pred/2023-May-17-1006_maxeplen10_maxtrainstep1000_seadep16_gamma099_lrac9e-4_lrcr1e-3_sub6/67714d3181cdcfbe83529be90e704c7fe5693ba3_ligand_6.pdbqt
 15 16 0 0 0
SMALL
GASTEIGER

@<TRIPOS>ATOM
      1  C          8.7200   -0.5850   -2.8280 C.3     1  UNL1        0.1270
      2  C          8.6520   -2.0090   -3.1190 C.2     1  UNL1        0.3030
      3  O          7.6220   -2.6830   -3.1640 O.2     1  UNL1       -0.2520
      4  O          9.8630   -2.6730   -3.3700 O.3     1  UNL1       -0.4810
      5  H         10.6940   -2.1020   -3.3630 H       1  UNL1        0.2960
      6  C          7.3980    0.0610   -2.6840 C.3     1  UNL1        0.0470
      7  C          6.8190    0.1270   -1.3410 C.2     1  UNL1       -0.0430
      8  C          6.0080    1.1820   -0.9520 C.2     1  UNL1        0.0080
      9  C          7.0960   -0.8390   -0.4110 C.2     1  UNL1        0.0540
     10  C          5.4920    1.2640    0.3220 C.2     1  UNL1        0.0510
     11  C          6.5890   -0.7780    0.8740 C.2     1  UNL1        0.1660
     12  C          5.7850    0.2730    1.2440 C.2     1  UNL1        0.1650
     13  O          6.7320   -1.6250    1.9590 O.2     1  UNL1       -0.4540
     14  O          5.4340    0.0610    2.5780 O.2     1  UNL1       -0.4540
     15  C          6.2600   -0.9390    3.1290 C.3     1  UNL1        0.4680
@<TRIPOS>BOND
     1     4     5    1
     2     4     2    1
     3     3     2    2
     4     2     1    1
     5     1     6    1
     6     6     7    1
     7     7     8    2
     8     7     9    1
     9     8    10    1
    10     9    11    2
    11    10    12    2
    12    11    12    1
    13    11    13    1
    14    12    14    1
    15    13    15    1
    16    14    15    1
