@<TRIPOS>MOLECULE
/home/cewinharhar/GITHUB/reincatalyze/data/processed/docking_pred/2023-May-17-1006_maxeplen10_maxtrainstep1000_seadep16_gamma099_lrac9e-4_lrcr1e-3_sub6/67714d3181cdcfbe83529be90e704c7fe5693ba3_ligand_6.pdbqt
 15 16 0 0 0
SMALL
GASTEIGER

@<TRIPOS>ATOM
      1  C          5.1790    0.3830    1.8010 C.3     1  UNL1        0.1270
      2  C          6.2740   -0.4260    2.3130 C.2     1  UNL1        0.3030
      3  O          7.3030    0.0070    2.8330 O.2     1  UNL1       -0.2520
      4  O          6.1500   -1.8200    2.2060 O.3     1  UNL1       -0.4810
      5  H          5.5770   -2.2710    2.9030 H       1  UNL1        0.2960
      6  C          5.4730    1.0470    0.5130 C.3     1  UNL1        0.0470
      7  C          6.6130    0.5490   -0.2600 C.2     1  UNL1       -0.0430
      8  C          7.7780    1.2890   -0.3920 C.2     1  UNL1        0.0080
      9  C          6.5450   -0.6540   -0.9120 C.2     1  UNL1        0.0540
     10  C          8.8370    0.8380   -1.1480 C.2     1  UNL1        0.0510
     11  C          7.5950   -1.1260   -1.6760 C.2     1  UNL1        0.1660
     12  C          8.7440   -0.3830   -1.7970 C.2     1  UNL1        0.1650
     13  O          7.7470   -2.2900   -2.4090 O.2     1  UNL1       -0.4540
     14  O          9.6090   -1.1080   -2.6180 O.2     1  UNL1       -0.4540
     15  C          8.8950   -2.1400   -3.2580 C.3     1  UNL1        0.4680
@<TRIPOS>BOND
     1    15    14    1
     2    15    13    1
     3    14    12    1
     4    13    11    1
     5    12    11    2
     6    12    10    1
     7    11     9    1
     8    10     8    2
     9     9     7    2
    10     8     7    1
    11     7     6    1
    12     6     1    1
    13     1     2    1
    14     4     2    1
    15     4     5    1
    16     2     3    2
