@<TRIPOS>MOLECULE
/home/cewinharhar/GITHUB/reincatalyze/data/processed/docking_pred/2023-May-17-1006_maxeplen10_maxtrainstep1000_seadep16_gamma099_lrac9e-4_lrcr1e-3_sub6/67714d3181cdcfbe83529be90e704c7fe5693ba3_ligand_6.pdbqt
 15 16 0 0 0
SMALL
GASTEIGER

@<TRIPOS>ATOM
      1  C          8.3910   -0.3160   -3.1970 C.3     1  UNL1        0.1270
      2  C          8.4960   -1.7670   -3.1990 C.2     1  UNL1        0.3030
      3  O          9.5380   -2.4110   -3.0600 O.2     1  UNL1       -0.2520
      4  O          7.3110   -2.4990   -3.3740 O.3     1  UNL1       -0.4810
      5  H          6.5600   -2.0220   -3.8480 H       1  UNL1        0.2960
      6  C          8.9250    0.3230   -1.9760 C.3     1  UNL1        0.0470
      7  C          8.1670    0.1510   -0.7350 C.2     1  UNL1       -0.0430
      8  C          8.5950   -0.7120    0.2620 C.2     1  UNL1        0.0080
      9  C          6.9840    0.8130   -0.5390 C.2     1  UNL1        0.0540
     10  C          7.8650   -0.9030    1.4140 C.2     1  UNL1        0.0510
     11  C          6.2350    0.6390    0.6090 C.2     1  UNL1        0.1660
     12  C          6.6720   -0.2190    1.5890 C.2     1  UNL1        0.1650
     13  O          5.0340    1.1930    1.0150 O.2     1  UNL1       -0.4540
     14  O          5.7190   -0.1860    2.6080 O.2     1  UNL1       -0.4540
     15  C          4.5480    0.4400    2.1370 C.3     1  UNL1        0.4680
@<TRIPOS>BOND
     1     5     4    1
     2     4     2    1
     3     2     1    1
     4     2     3    2
     5     1     6    1
     6     6     7    1
     7     7     9    2
     8     7     8    1
     9     9    11    1
    10     8    10    2
    11    11    13    1
    12    11    12    2
    13    13    15    1
    14    10    12    1
    15    12    14    1
    16    15    14    1
