@<TRIPOS>MOLECULE
/home/cewinharhar/GITHUB/reincatalyze/data/processed/docking_pred/2023-May-17-1006_maxeplen10_maxtrainstep1000_seadep16_gamma099_lrac9e-4_lrcr1e-3_sub6/67714d3181cdcfbe83529be90e704c7fe5693ba3_ligand_6.pdbqt
 15 16 0 0 0
SMALL
GASTEIGER

@<TRIPOS>ATOM
      1  C          6.0980    2.6580   -0.3960 C.3     1  UNL1        0.1270
      2  C          6.5630    3.5990    0.6100 C.2     1  UNL1        0.3030
      3  O          6.9220    4.7590    0.3970 O.2     1  UNL1       -0.2520
      4  O          6.6080    3.1510    1.9400 O.3     1  UNL1       -0.4810
      5  H          7.5220    3.1040    2.3630 H       1  UNL1        0.2960
      6  C          5.7800    1.3160    0.1380 C.3     1  UNL1        0.0470
      7  C          6.5450    0.1810   -0.3820 C.2     1  UNL1       -0.0430
      8  C          6.7050   -0.0220   -1.7440 C.2     1  UNL1        0.0080
      9  C          7.0970   -0.7400    0.4680 C.2     1  UNL1        0.0540
     10  C          7.3940   -1.1080   -2.2360 C.2     1  UNL1        0.0510
     11  C          7.7920   -1.8380   -0.0020 C.2     1  UNL1        0.1660
     12  C          7.9430   -2.0260   -1.3550 C.2     1  UNL1        0.1650
     13  O          8.4230   -2.8780    0.6580 O.2     1  UNL1       -0.4540
     14  O          8.6790   -3.2010   -1.5190 O.2     1  UNL1       -0.4540
     15  C          8.7160   -3.9060   -0.3000 C.3     1  UNL1        0.4680
@<TRIPOS>BOND
     1    10     8    1
     2    10    12    2
     3     8     7    2
     4    14    12    1
     5    14    15    1
     6    12    11    1
     7     1     6    1
     8     1     2    1
     9     7     6    1
    10     7     9    1
    11    15    13    1
    12    11     9    2
    13    11    13    1
    14     3     2    2
    15     2     4    1
    16     4     5    1
