MODEL 1
REMARK VINA RESULT:      -7.4      0.000      0.000
REMARK SMILES O=C(O)CCc1ccc2c(c1)OCO2
REMARK SMILES IDX 4 1 2 2 1 3 3 4 5 6 6 7 7 8 11 9 8 10 10 11 9 12 12 13 14 14
REMARK SMILES IDX 13 15
REMARK H PARENT 3 5
REMARK Flexibility Score: inf
ROOT
ATOM      1  C   UNL     1       5.413   1.026   0.553  1.00  0.00     0.127 C 
ENDROOT
BRANCH   1   2
ATOM      2  C   UNL     1       5.079   0.554   1.887  1.00  0.00     0.303 C 
ATOM      3  O   UNL     1       5.764  -0.209   2.571  1.00  0.00    -0.252 OA
BRANCH   2   4
ATOM      4  O   UNL     1       3.872   1.004   2.446  1.00  0.00    -0.481 OA
ATOM      5  H   UNL     1       3.888   1.208   3.434  1.00  0.00     0.296 HD
ENDBRANCH   2   4
ENDBRANCH   1   2
BRANCH   1   6
ATOM      6  C   UNL     1       6.856   0.959   0.237  1.00  0.00     0.047 C 
BRANCH   6   7
ATOM      7  C   UNL     1       7.336  -0.218  -0.491  1.00  0.00    -0.043 A 
ATOM      8  C   UNL     1       7.233  -0.308  -1.871  1.00  0.00     0.008 A 
ATOM      9  C   UNL     1       7.868  -1.287   0.179  1.00  0.00     0.054 A 
ATOM     10  C   UNL     1       7.651  -1.429  -2.553  1.00  0.00     0.051 A 
ATOM     11  C   UNL     1       8.294  -2.422  -0.485  1.00  0.00     0.166 A 
ATOM     12  C   UNL     1       8.187  -2.497  -1.853  1.00  0.00     0.165 A 
ATOM     13  O   UNL     1       8.854  -3.601  -0.024  1.00  0.00    -0.454 OA
ATOM     14  O   UNL     1       8.691  -3.743  -2.229  1.00  0.00    -0.454 OA
ATOM     15  C   UNL     1       8.818  -4.562  -1.089  1.00  0.00     0.468 C 
ENDBRANCH   6   7
ENDBRANCH   1   6
TORSDOF 4
ENDMDL
MODEL 2
REMARK VINA RESULT:      -7.1      1.758      5.255
REMARK SMILES O=C(O)CCc1ccc2c(c1)OCO2
REMARK SMILES IDX 4 1 2 2 1 3 3 4 5 6 6 7 7 8 11 9 8 10 10 11 9 12 12 13 14 14
REMARK SMILES IDX 13 15
REMARK H PARENT 3 5
REMARK Flexibility Score: inf
ROOT
ATOM      1  C   UNL     1       8.391  -0.316  -3.197  1.00  0.00     0.127 C 
ENDROOT
BRANCH   1   2
ATOM      2  C   UNL     1       8.496  -1.767  -3.199  1.00  0.00     0.303 C 
ATOM      3  O   UNL     1       9.538  -2.411  -3.060  1.00  0.00    -0.252 OA
BRANCH   2   4
ATOM      4  O   UNL     1       7.311  -2.499  -3.374  1.00  0.00    -0.481 OA
ATOM      5  H   UNL     1       6.560  -2.022  -3.848  1.00  0.00     0.296 HD
ENDBRANCH   2   4
ENDBRANCH   1   2
BRANCH   1   6
ATOM      6  C   UNL     1       8.925   0.323  -1.976  1.00  0.00     0.047 C 
BRANCH   6   7
ATOM      7  C   UNL     1       8.167   0.151  -0.735  1.00  0.00    -0.043 A 
ATOM      8  C   UNL     1       8.595  -0.712   0.262  1.00  0.00     0.008 A 
ATOM      9  C   UNL     1       6.984   0.813  -0.539  1.00  0.00     0.054 A 
ATOM     10  C   UNL     1       7.865  -0.903   1.414  1.00  0.00     0.051 A 
ATOM     11  C   UNL     1       6.235   0.639   0.609  1.00  0.00     0.166 A 
ATOM     12  C   UNL     1       6.672  -0.219   1.589  1.00  0.00     0.165 A 
ATOM     13  O   UNL     1       5.034   1.193   1.015  1.00  0.00    -0.454 OA
ATOM     14  O   UNL     1       5.719  -0.186   2.608  1.00  0.00    -0.454 OA
ATOM     15  C   UNL     1       4.548   0.440   2.137  1.00  0.00     0.468 C 
ENDBRANCH   6   7
ENDBRANCH   1   6
TORSDOF 4
ENDMDL
MODEL 3
REMARK VINA RESULT:      -6.9      2.031      2.210
REMARK SMILES O=C(O)CCc1ccc2c(c1)OCO2
REMARK SMILES IDX 4 1 2 2 1 3 3 4 5 6 6 7 7 8 11 9 8 10 10 11 9 12 12 13 14 14
REMARK SMILES IDX 13 15
REMARK H PARENT 3 5
REMARK Flexibility Score: inf
ROOT
ATOM      1  C   UNL     1       6.098   2.658  -0.396  1.00  0.00     0.127 C 
ENDROOT
BRANCH   1   2
ATOM      2  C   UNL     1       6.563   3.599   0.610  1.00  0.00     0.303 C 
ATOM      3  O   UNL     1       6.922   4.759   0.397  1.00  0.00    -0.252 OA
BRANCH   2   4
ATOM      4  O   UNL     1       6.608   3.151   1.940  1.00  0.00    -0.481 OA
ATOM      5  H   UNL     1       7.522   3.104   2.363  1.00  0.00     0.296 HD
ENDBRANCH   2   4
ENDBRANCH   1   2
BRANCH   1   6
ATOM      6  C   UNL     1       5.780   1.316   0.138  1.00  0.00     0.047 C 
BRANCH   6   7
ATOM      7  C   UNL     1       6.545   0.181  -0.382  1.00  0.00    -0.043 A 
ATOM      8  C   UNL     1       6.705  -0.022  -1.744  1.00  0.00     0.008 A 
ATOM      9  C   UNL     1       7.097  -0.740   0.468  1.00  0.00     0.054 A 
ATOM     10  C   UNL     1       7.394  -1.108  -2.236  1.00  0.00     0.051 A 
ATOM     11  C   UNL     1       7.792  -1.838  -0.002  1.00  0.00     0.166 A 
ATOM     12  C   UNL     1       7.943  -2.026  -1.355  1.00  0.00     0.165 A 
ATOM     13  O   UNL     1       8.423  -2.878   0.658  1.00  0.00    -0.454 OA
ATOM     14  O   UNL     1       8.679  -3.201  -1.519  1.00  0.00    -0.454 OA
ATOM     15  C   UNL     1       8.716  -3.906  -0.300  1.00  0.00     0.468 C 
ENDBRANCH   6   7
ENDBRANCH   1   6
TORSDOF 4
ENDMDL
MODEL 4
REMARK VINA RESULT:      -6.8      1.743      5.072
REMARK SMILES O=C(O)CCc1ccc2c(c1)OCO2
REMARK SMILES IDX 4 1 2 2 1 3 3 4 5 6 6 7 7 8 11 9 8 10 10 11 9 12 12 13 14 14
REMARK SMILES IDX 13 15
REMARK H PARENT 3 5
REMARK Flexibility Score: inf
ROOT
ATOM      1  C   UNL     1       8.720  -0.585  -2.828  1.00  0.00     0.127 C 
ENDROOT
BRANCH   1   2
ATOM      2  C   UNL     1       8.652  -2.009  -3.119  1.00  0.00     0.303 C 
ATOM      3  O   UNL     1       7.622  -2.683  -3.164  1.00  0.00    -0.252 OA
BRANCH   2   4
ATOM      4  O   UNL     1       9.863  -2.673  -3.370  1.00  0.00    -0.481 OA
ATOM      5  H   UNL     1      10.694  -2.102  -3.363  1.00  0.00     0.296 HD
ENDBRANCH   2   4
ENDBRANCH   1   2
BRANCH   1   6
ATOM      6  C   UNL     1       7.398   0.061  -2.684  1.00  0.00     0.047 C 
BRANCH   6   7
ATOM      7  C   UNL     1       6.819   0.127  -1.341  1.00  0.00    -0.043 A 
ATOM      8  C   UNL     1       6.008   1.182  -0.952  1.00  0.00     0.008 A 
ATOM      9  C   UNL     1       7.096  -0.839  -0.411  1.00  0.00     0.054 A 
ATOM     10  C   UNL     1       5.492   1.264   0.322  1.00  0.00     0.051 A 
ATOM     11  C   UNL     1       6.589  -0.778   0.874  1.00  0.00     0.166 A 
ATOM     12  C   UNL     1       5.785   0.273   1.244  1.00  0.00     0.165 A 
ATOM     13  O   UNL     1       6.732  -1.625   1.959  1.00  0.00    -0.454 OA
ATOM     14  O   UNL     1       5.434   0.061   2.578  1.00  0.00    -0.454 OA
ATOM     15  C   UNL     1       6.260  -0.939   3.129  1.00  0.00     0.468 C 
ENDBRANCH   6   7
ENDBRANCH   1   6
TORSDOF 4
ENDMDL
MODEL 5
REMARK VINA RESULT:      -6.6      1.891      2.328
REMARK SMILES O=C(O)CCc1ccc2c(c1)OCO2
REMARK SMILES IDX 4 1 2 2 1 3 3 4 5 6 6 7 7 8 11 9 8 10 10 11 9 12 12 13 14 14
REMARK SMILES IDX 13 15
REMARK H PARENT 3 5
REMARK Flexibility Score: inf
ROOT
ATOM      1  C   UNL     1       5.179   0.383   1.801  1.00  0.00     0.127 C 
ENDROOT
BRANCH   1   2
ATOM      2  C   UNL     1       6.274  -0.426   2.313  1.00  0.00     0.303 C 
ATOM      3  O   UNL     1       7.303   0.007   2.833  1.00  0.00    -0.252 OA
BRANCH   2   4
ATOM      4  O   UNL     1       6.150  -1.820   2.206  1.00  0.00    -0.481 OA
ATOM      5  H   UNL     1       5.577  -2.271   2.903  1.00  0.00     0.296 HD
ENDBRANCH   2   4
ENDBRANCH   1   2
BRANCH   1   6
ATOM      6  C   UNL     1       5.473   1.047   0.513  1.00  0.00     0.047 C 
BRANCH   6   7
ATOM      7  C   UNL     1       6.613   0.549  -0.260  1.00  0.00    -0.043 A 
ATOM      8  C   UNL     1       7.778   1.289  -0.392  1.00  0.00     0.008 A 
ATOM      9  C   UNL     1       6.545  -0.654  -0.912  1.00  0.00     0.054 A 
ATOM     10  C   UNL     1       8.837   0.838  -1.148  1.00  0.00     0.051 A 
ATOM     11  C   UNL     1       7.595  -1.126  -1.676  1.00  0.00     0.166 A 
ATOM     12  C   UNL     1       8.744  -0.383  -1.797  1.00  0.00     0.165 A 
ATOM     13  O   UNL     1       7.747  -2.290  -2.409  1.00  0.00    -0.454 OA
ATOM     14  O   UNL     1       9.609  -1.108  -2.618  1.00  0.00    -0.454 OA
ATOM     15  C   UNL     1       8.895  -2.140  -3.258  1.00  0.00     0.468 C 
ENDBRANCH   6   7
ENDBRANCH   1   6
TORSDOF 4
ENDMDL
