@<TRIPOS>MOLECULE
/home/cewinharhar/GITHUB/reincatalyze/data/processed/docking_pred/2023-May-17-1006_maxeplen10_maxtrainstep1000_seadep16_gamma099_lrac9e-4_lrcr1e-3_sub6/677496c5c46bc5e4ac1ff58ba47d0b72a83fedc5_ligand_6.pdbqt
 15 16 0 0 0
SMALL
GASTEIGER

@<TRIPOS>ATOM
      1  C          5.3910    2.8260    0.2180 C.3     1  UNL1        0.1270
      2  C          6.2150    3.7790    0.9440 C.2     1  UNL1        0.3030
      3  O          6.3950    3.7880    2.1630 O.2     1  UNL1       -0.2520
      4  O          6.8610    4.7750    0.1950 O.3     1  UNL1       -0.4810
      5  H          6.7620    4.7130   -0.8070 H       1  UNL1        0.2960
      6  C          5.3680    1.4740    0.8160 C.3     1  UNL1        0.0470
      7  C          6.2150    0.4480    0.2050 C.2     1  UNL1       -0.0430
      8  C          6.4960    0.4550   -1.1530 C.2     1  UNL1        0.0080
      9  C          6.7260   -0.5770    0.9560 C.2     1  UNL1        0.0540
     10  C          7.2630   -0.5290   -1.7360 C.2     1  UNL1        0.0510
     11  C          7.4980   -1.5750    0.3930 C.2     1  UNL1        0.1660
     12  C          7.7700   -1.5550   -0.9540 C.2     1  UNL1        0.1650
     13  O          8.1090   -2.6870    0.9460 O.2     1  UNL1       -0.4540
     14  O          8.5590   -2.6750   -1.2230 O.2     1  UNL1       -0.4540
     15  C          8.5190   -3.5530   -0.1220 C.3     1  UNL1        0.4680
@<TRIPOS>BOND
     1    10     8    1
     2    10    12    2
     3    14    12    1
     4    14    15    1
     5     8     7    2
     6    12    11    1
     7     5     4    1
     8    15    13    1
     9     4     2    1
    10     7     6    1
    11     7     9    1
    12     1     6    1
    13     1     2    1
    14    11    13    1
    15    11     9    2
    16     2     3    2
