@<TRIPOS>MOLECULE
/home/cewinharhar/GITHUB/reincatalyze/data/processed/docking_pred/2023-May-17-1006_maxeplen10_maxtrainstep1000_seadep16_gamma099_lrac9e-4_lrcr1e-3_sub6/677496c5c46bc5e4ac1ff58ba47d0b72a83fedc5_ligand_6.pdbqt
 15 16 0 0 0
SMALL
GASTEIGER

@<TRIPOS>ATOM
      1  C          6.4070    1.2840    0.6780 C.3     1  UNL1        0.1270
      2  C          5.1660    1.3290    1.4350 C.2     1  UNL1        0.3030
      3  O          4.2630    2.1540    1.2830 O.2     1  UNL1       -0.2520
      4  O          4.9770    0.3490    2.4230 O.3     1  UNL1       -0.4810
      5  H          5.8140   -0.0660    2.8030 H       1  UNL1        0.2960
      6  C          6.2430    0.8250   -0.7180 C.3     1  UNL1        0.0470
      7  C          6.9900   -0.3640   -1.1330 C.2     1  UNL1       -0.0430
      8  C          7.2750   -0.6120   -2.4670 C.2     1  UNL1        0.0080
      9  C          7.3980   -1.2920   -0.2110 C.2     1  UNL1        0.0540
     10  C          7.9460   -1.7480   -2.8610 C.2     1  UNL1        0.0510
     11  C          8.0730   -2.4380   -0.5840 C.2     1  UNL1        0.1660
     12  C          8.3500   -2.6710   -1.9090 C.2     1  UNL1        0.1650
     13  O          8.5730   -3.4930    0.1600 O.2     1  UNL1       -0.4540
     14  O          9.0290   -3.8890   -1.9720 O.2     1  UNL1       -0.4540
     15  C          8.9010   -4.5620   -0.7410 C.3     1  UNL1        0.4680
@<TRIPOS>BOND
     1    10     8    1
     2    10    12    2
     3     8     7    2
     4    14    12    1
     5    14    15    1
     6    12    11    1
     7     7     6    1
     8     7     9    1
     9    15    13    1
    10     6     1    1
    11    11     9    2
    12    11    13    1
    13     1     2    1
    14     3     2    2
    15     2     4    1
    16     4     5    1
