MODEL 1
REMARK VINA RESULT:      -7.6      0.000      0.000
REMARK SMILES O=C(O)CCc1ccc2c(c1)OCO2
REMARK SMILES IDX 4 1 2 2 1 3 3 4 5 6 6 7 7 8 11 9 8 10 10 11 9 12 12 13 14 14
REMARK SMILES IDX 13 15
REMARK H PARENT 3 5
REMARK Flexibility Score: inf
ROOT
ATOM      1  C   UNL     1       5.420   2.864   0.128  1.00  0.00     0.127 C 
ENDROOT
BRANCH   1   2
ATOM      2  C   UNL     1       6.250   3.843   0.812  1.00  0.00     0.303 C 
ATOM      3  O   UNL     1       6.898   4.739   0.268  1.00  0.00    -0.252 OA
BRANCH   2   4
ATOM      4  O   UNL     1       6.321   3.763   2.211  1.00  0.00    -0.481 OA
ATOM      5  H   UNL     1       6.701   4.568   2.685  1.00  0.00     0.296 HD
ENDBRANCH   2   4
ENDBRANCH   1   2
BRANCH   1   6
ATOM      6  C   UNL     1       5.354   1.553   0.808  1.00  0.00     0.047 C 
BRANCH   6   7
ATOM      7  C   UNL     1       6.135   0.453   0.237  1.00  0.00    -0.043 A 
ATOM      8  C   UNL     1       6.584  -0.599   1.020  1.00  0.00     0.008 A 
ATOM      9  C   UNL     1       6.479   0.454  -1.088  1.00  0.00     0.054 A 
ATOM     10  C   UNL     1       7.349  -1.615   0.492  1.00  0.00     0.051 A 
ATOM     11  C   UNL     1       7.245  -0.556  -1.641  1.00  0.00     0.166 A 
ATOM     12  C   UNL     1       7.682  -1.593  -0.853  1.00  0.00     0.165 A 
ATOM     13  O   UNL     1       7.704  -0.760  -2.930  1.00  0.00    -0.454 OA
ATOM     14  O   UNL     1       8.421  -2.442  -1.679  1.00  0.00    -0.454 OA
ATOM     15  C   UNL     1       8.708  -1.785  -2.892  1.00  0.00     0.468 C 
ENDBRANCH   6   7
ENDBRANCH   1   6
TORSDOF 4
ENDMDL
MODEL 2
REMARK VINA RESULT:      -7.6      2.134      2.518
REMARK SMILES O=C(O)CCc1ccc2c(c1)OCO2
REMARK SMILES IDX 4 1 2 2 1 3 3 4 5 6 6 7 7 8 11 9 8 10 10 11 9 12 12 13 14 14
REMARK SMILES IDX 13 15
REMARK H PARENT 3 5
REMARK Flexibility Score: inf
ROOT
ATOM      1  C   UNL     1       4.731   1.853   0.706  1.00  0.00     0.127 C 
ENDROOT
BRANCH   1   2
ATOM      2  C   UNL     1       4.423   1.131   1.931  1.00  0.00     0.303 C 
ATOM      3  O   UNL     1       5.149   0.296   2.473  1.00  0.00    -0.252 OA
BRANCH   2   4
ATOM      4  O   UNL     1       3.193   1.406   2.549  1.00  0.00    -0.481 OA
ATOM      5  H   UNL     1       3.120   1.160   3.524  1.00  0.00     0.296 HD
ENDBRANCH   2   4
ENDBRANCH   1   2
BRANCH   1   6
ATOM      6  C   UNL     1       6.160   2.204   0.560  1.00  0.00     0.047 C 
BRANCH   6   7
ATOM      7  C   UNL     1       7.003   1.301  -0.226  1.00  0.00    -0.043 A 
ATOM      8  C   UNL     1       8.364   1.520  -0.368  1.00  0.00     0.008 A 
ATOM      9  C   UNL     1       6.458   0.227  -0.880  1.00  0.00     0.054 A 
ATOM     10  C   UNL     1       9.151   0.691  -1.137  1.00  0.00     0.051 A 
ATOM     11  C   UNL     1       7.229  -0.618  -1.656  1.00  0.00     0.166 A 
ATOM     12  C   UNL     1       8.578  -0.389  -1.787  1.00  0.00     0.165 A 
ATOM     13  O   UNL     1       6.902  -1.743  -2.393  1.00  0.00    -0.454 OA
ATOM     14  O   UNL     1       9.077  -1.393  -2.618  1.00  0.00    -0.454 OA
ATOM     15  C   UNL     1       8.008  -2.054  -3.253  1.00  0.00     0.468 C 
ENDBRANCH   6   7
ENDBRANCH   1   6
TORSDOF 4
ENDMDL
MODEL 3
REMARK VINA RESULT:      -7.5      1.969      2.884
REMARK SMILES O=C(O)CCc1ccc2c(c1)OCO2
REMARK SMILES IDX 4 1 2 2 1 3 3 4 5 6 6 7 7 8 11 9 8 10 10 11 9 12 12 13 14 14
REMARK SMILES IDX 13 15
REMARK H PARENT 3 5
REMARK Flexibility Score: inf
ROOT
ATOM      1  C   UNL     1       6.407   1.284   0.678  1.00  0.00     0.127 C 
ENDROOT
BRANCH   1   2
ATOM      2  C   UNL     1       5.166   1.329   1.435  1.00  0.00     0.303 C 
ATOM      3  O   UNL     1       4.263   2.154   1.283  1.00  0.00    -0.252 OA
BRANCH   2   4
ATOM      4  O   UNL     1       4.977   0.349   2.423  1.00  0.00    -0.481 OA
ATOM      5  H   UNL     1       5.814  -0.066   2.803  1.00  0.00     0.296 HD
ENDBRANCH   2   4
ENDBRANCH   1   2
BRANCH   1   6
ATOM      6  C   UNL     1       6.243   0.825  -0.718  1.00  0.00     0.047 C 
BRANCH   6   7
ATOM      7  C   UNL     1       6.990  -0.364  -1.133  1.00  0.00    -0.043 A 
ATOM      8  C   UNL     1       7.275  -0.612  -2.467  1.00  0.00     0.008 A 
ATOM      9  C   UNL     1       7.398  -1.292  -0.211  1.00  0.00     0.054 A 
ATOM     10  C   UNL     1       7.946  -1.748  -2.861  1.00  0.00     0.051 A 
ATOM     11  C   UNL     1       8.073  -2.438  -0.584  1.00  0.00     0.166 A 
ATOM     12  C   UNL     1       8.350  -2.671  -1.909  1.00  0.00     0.165 A 
ATOM     13  O   UNL     1       8.573  -3.493   0.160  1.00  0.00    -0.454 OA
ATOM     14  O   UNL     1       9.029  -3.889  -1.972  1.00  0.00    -0.454 OA
ATOM     15  C   UNL     1       8.901  -4.562  -0.741  1.00  0.00     0.468 C 
ENDBRANCH   6   7
ENDBRANCH   1   6
TORSDOF 4
ENDMDL
MODEL 4
REMARK VINA RESULT:      -7.4      1.800      5.284
REMARK SMILES O=C(O)CCc1ccc2c(c1)OCO2
REMARK SMILES IDX 4 1 2 2 1 3 3 4 5 6 6 7 7 8 11 9 8 10 10 11 9 12 12 13 14 14
REMARK SMILES IDX 13 15
REMARK H PARENT 3 5
REMARK Flexibility Score: inf
ROOT
ATOM      1  C   UNL     1       8.311  -0.324  -2.839  1.00  0.00     0.127 C 
ENDROOT
BRANCH   1   2
ATOM      2  C   UNL     1       8.474  -1.751  -3.068  1.00  0.00     0.303 C 
ATOM      3  O   UNL     1       9.542  -2.364  -3.039  1.00  0.00    -0.252 OA
BRANCH   2   4
ATOM      4  O   UNL     1       7.317  -2.495  -3.347  1.00  0.00    -0.481 OA
ATOM      5  H   UNL     1       6.494  -1.966  -3.592  1.00  0.00     0.296 HD
ENDBRANCH   2   4
ENDBRANCH   1   2
BRANCH   1   6
ATOM      6  C   UNL     1       8.766   0.126  -1.507  1.00  0.00     0.047 C 
BRANCH   6   7
ATOM      7  C   UNL     1       7.796   0.086  -0.410  1.00  0.00    -0.043 A 
ATOM      8  C   UNL     1       7.752  -0.976   0.480  1.00  0.00     0.008 A 
ATOM      9  C   UNL     1       6.873   1.086  -0.255  1.00  0.00     0.054 A 
ATOM     10  C   UNL     1       6.817  -1.032   1.489  1.00  0.00     0.051 A 
ATOM     11  C   UNL     1       5.926   1.052   0.751  1.00  0.00     0.166 A 
ATOM     12  C   UNL     1       5.895  -0.007   1.626  1.00  0.00     0.165 A 
ATOM     13  O   UNL     1       4.916   1.933   1.092  1.00  0.00    -0.454 OA
ATOM     14  O   UNL     1       4.846   0.236   2.515  1.00  0.00    -0.454 OA
ATOM     15  C   UNL     1       4.034   1.272   2.011  1.00  0.00     0.468 C 
ENDBRANCH   6   7
ENDBRANCH   1   6
TORSDOF 4
ENDMDL
MODEL 5
REMARK VINA RESULT:      -7.4      0.947      2.117
REMARK SMILES O=C(O)CCc1ccc2c(c1)OCO2
REMARK SMILES IDX 4 1 2 2 1 3 3 4 5 6 6 7 7 8 11 9 8 10 10 11 9 12 12 13 14 14
REMARK SMILES IDX 13 15
REMARK H PARENT 3 5
REMARK Flexibility Score: inf
ROOT
ATOM      1  C   UNL     1       5.391   2.826   0.218  1.00  0.00     0.127 C 
ENDROOT
BRANCH   1   2
ATOM      2  C   UNL     1       6.215   3.779   0.944  1.00  0.00     0.303 C 
ATOM      3  O   UNL     1       6.395   3.788   2.163  1.00  0.00    -0.252 OA
BRANCH   2   4
ATOM      4  O   UNL     1       6.861   4.775   0.195  1.00  0.00    -0.481 OA
ATOM      5  H   UNL     1       6.762   4.713  -0.807  1.00  0.00     0.296 HD
ENDBRANCH   2   4
ENDBRANCH   1   2
BRANCH   1   6
ATOM      6  C   UNL     1       5.368   1.474   0.816  1.00  0.00     0.047 C 
BRANCH   6   7
ATOM      7  C   UNL     1       6.215   0.448   0.205  1.00  0.00    -0.043 A 
ATOM      8  C   UNL     1       6.496   0.455  -1.153  1.00  0.00     0.008 A 
ATOM      9  C   UNL     1       6.726  -0.577   0.956  1.00  0.00     0.054 A 
ATOM     10  C   UNL     1       7.263  -0.529  -1.736  1.00  0.00     0.051 A 
ATOM     11  C   UNL     1       7.498  -1.575   0.393  1.00  0.00     0.166 A 
ATOM     12  C   UNL     1       7.770  -1.555  -0.954  1.00  0.00     0.165 A 
ATOM     13  O   UNL     1       8.109  -2.687   0.946  1.00  0.00    -0.454 OA
ATOM     14  O   UNL     1       8.559  -2.675  -1.223  1.00  0.00    -0.454 OA
ATOM     15  C   UNL     1       8.519  -3.553  -0.122  1.00  0.00     0.468 C 
ENDBRANCH   6   7
ENDBRANCH   1   6
TORSDOF 4
ENDMDL
