@<TRIPOS>MOLECULE
/home/cewinharhar/GITHUB/reincatalyze/data/processed/docking_pred/2023-May-17-1006_maxeplen10_maxtrainstep1000_seadep16_gamma099_lrac9e-4_lrcr1e-3_sub6/677496c5c46bc5e4ac1ff58ba47d0b72a83fedc5_ligand_6.pdbqt
 15 16 0 0 0
SMALL
GASTEIGER

@<TRIPOS>ATOM
      1  C          8.3110   -0.3240   -2.8390 C.3     1  UNL1        0.1270
      2  C          8.4740   -1.7510   -3.0680 C.2     1  UNL1        0.3030
      3  O          9.5420   -2.3640   -3.0390 O.2     1  UNL1       -0.2520
      4  O          7.3170   -2.4950   -3.3470 O.3     1  UNL1       -0.4810
      5  H          6.4940   -1.9660   -3.5920 H       1  UNL1        0.2960
      6  C          8.7660    0.1260   -1.5070 C.3     1  UNL1        0.0470
      7  C          7.7960    0.0860   -0.4100 C.2     1  UNL1       -0.0430
      8  C          7.7520   -0.9760    0.4800 C.2     1  UNL1        0.0080
      9  C          6.8730    1.0860   -0.2550 C.2     1  UNL1        0.0540
     10  C          6.8170   -1.0320    1.4890 C.2     1  UNL1        0.0510
     11  C          5.9260    1.0520    0.7510 C.2     1  UNL1        0.1660
     12  C          5.8950   -0.0070    1.6260 C.2     1  UNL1        0.1650
     13  O          4.9160    1.9330    1.0920 O.2     1  UNL1       -0.4540
     14  O          4.8460    0.2360    2.5150 O.2     1  UNL1       -0.4540
     15  C          4.0340    1.2720    2.0110 C.3     1  UNL1        0.4680
@<TRIPOS>BOND
     1     5     4    1
     2     4     2    1
     3     2     3    2
     4     2     1    1
     5     1     6    1
     6     6     7    1
     7     7     9    2
     8     7     8    1
     9     9    11    1
    10     8    10    2
    11    11    13    1
    12    11    12    2
    13    13    15    1
    14    10    12    1
    15    12    14    1
    16    15    14    1
