@<TRIPOS>MOLECULE
/home/cewinharhar/GITHUB/reincatalyze/data/processed/docking_pred/2023-May-17-1006_maxeplen10_maxtrainstep1000_seadep16_gamma099_lrac9e-4_lrcr1e-3_sub6/677496c5c46bc5e4ac1ff58ba47d0b72a83fedc5_ligand_6.pdbqt
 15 16 0 0 0
SMALL
GASTEIGER

@<TRIPOS>ATOM
      1  C          5.4200    2.8640    0.1280 C.3     1  UNL1        0.1270
      2  C          6.2500    3.8430    0.8120 C.2     1  UNL1        0.3030
      3  O          6.8980    4.7390    0.2680 O.2     1  UNL1       -0.2520
      4  O          6.3210    3.7630    2.2110 O.3     1  UNL1       -0.4810
      5  H          6.7010    4.5680    2.6850 H       1  UNL1        0.2960
      6  C          5.3540    1.5530    0.8080 C.3     1  UNL1        0.0470
      7  C          6.1350    0.4530    0.2370 C.2     1  UNL1       -0.0430
      8  C          6.5840   -0.5990    1.0200 C.2     1  UNL1        0.0080
      9  C          6.4790    0.4540   -1.0880 C.2     1  UNL1        0.0540
     10  C          7.3490   -1.6150    0.4920 C.2     1  UNL1        0.0510
     11  C          7.2450   -0.5560   -1.6410 C.2     1  UNL1        0.1660
     12  C          7.6820   -1.5930   -0.8530 C.2     1  UNL1        0.1650
     13  O          7.7040   -0.7600   -2.9300 O.2     1  UNL1       -0.4540
     14  O          8.4210   -2.4420   -1.6790 O.2     1  UNL1       -0.4540
     15  C          8.7080   -1.7850   -2.8920 C.3     1  UNL1        0.4680
@<TRIPOS>BOND
     1    13    15    1
     2    13    11    1
     3    15    14    1
     4    14    12    1
     5    11     9    1
     6    11    12    2
     7     9     7    2
     8    12    10    1
     9     1     6    1
    10     1     2    1
    11     7     6    1
    12     7     8    1
    13     3     2    2
    14    10     8    2
    15     2     4    1
    16     4     5    1
