@<TRIPOS>MOLECULE
/home/cewinharhar/GITHUB/reincatalyze/data/processed/docking_pred/2023-May-17-1006_maxeplen10_maxtrainstep1000_seadep16_gamma099_lrac9e-4_lrcr1e-3_sub6/67ebe37560d6b2ff0daae954040d2bc7ae74be81_ligand_6.pdbqt
 15 16 0 0 0
SMALL
GASTEIGER

@<TRIPOS>ATOM
      1  C          8.0750   -1.2750   -0.1910 C.3     1  UNL1        0.1270
      2  C          7.9650   -2.4490    0.6620 C.2     1  UNL1        0.3030
      3  O          8.8020   -3.3490    0.7550 O.2     1  UNL1       -0.2520
      4  O          6.8070   -2.5690    1.4460 O.3     1  UNL1       -0.4810
      5  H          6.2070   -3.3530    1.2370 H       1  UNL1        0.2960
      6  C          6.7770   -0.6510   -0.5230 C.3     1  UNL1        0.0470
      7  C          6.5070    0.6820    0.0200 C.2     1  UNL1       -0.0430
      8  C          5.4550    1.4560   -0.4470 C.2     1  UNL1        0.0080
      9  C          7.3160    1.2220    0.9840 C.2     1  UNL1        0.0540
     10  C          5.2230    2.7240    0.0370 C.2     1  UNL1        0.0510
     11  C          7.1010    2.4920    1.4850 C.2     1  UNL1        0.1660
     12  C          6.0540    3.2470    1.0140 C.2     1  UNL1        0.1650
     13  O          7.7750    3.2280    2.4430 O.2     1  UNL1       -0.4540
     14  O          6.0940    4.4630    1.6980 O.2     1  UNL1       -0.4540
     15  C          7.3320    4.5910    2.3580 C.3     1  UNL1        0.4680
@<TRIPOS>BOND
     1     6     1    1
     2     6     7    1
     3     8     7    2
     4     8    10    1
     5     1     2    1
     6     7     9    1
     7    10    12    2
     8     2     3    2
     9     2     4    1
    10     9    11    2
    11    12    11    1
    12    12    14    1
    13     5     4    1
    14    11    13    1
    15    14    15    1
    16    15    13    1
