@<TRIPOS>MOLECULE
/home/cewinharhar/GITHUB/reincatalyze/data/processed/docking_pred/2023-May-17-1006_maxeplen10_maxtrainstep1000_seadep16_gamma099_lrac9e-4_lrcr1e-3_sub6/67ebe37560d6b2ff0daae954040d2bc7ae74be81_ligand_6.pdbqt
 15 16 0 0 0
SMALL
GASTEIGER

@<TRIPOS>ATOM
      1  C          5.4010    2.6640    0.1340 C.3     1  UNL1        0.1270
      2  C          6.1020    3.7020    0.8750 C.2     1  UNL1        0.3030
      3  O          6.1460    3.8010    2.1020 O.2     1  UNL1       -0.2520
      4  O          6.7860    4.6750    0.1300 O.3     1  UNL1       -0.4810
      5  H          6.7570    5.6150    0.4920 H       1  UNL1        0.2960
      6  C          5.4960    1.3220    0.7460 C.3     1  UNL1        0.0470
      7  C          6.3010    0.3150    0.0500 C.2     1  UNL1       -0.0430
      8  C          6.4450    0.3290   -1.3290 C.2     1  UNL1        0.0080
      9  C          6.9070   -0.6990    0.7430 C.2     1  UNL1        0.0540
     10  C          7.1710   -0.6370   -1.9880 C.2     1  UNL1        0.0510
     11  C          7.6410   -1.6790    0.1030 C.2     1  UNL1        0.1660
     12  C          7.7760   -1.6520   -1.2640 C.2     1  UNL1        0.1650
     13  O          8.3280   -2.7770    0.5900 O.2     1  UNL1       -0.4540
     14  O          8.5590   -2.7530   -1.6130 O.2     1  UNL1       -0.4540
     15  C          8.6490   -3.6330   -0.5170 C.3     1  UNL1        0.4680
@<TRIPOS>BOND
     1    10     8    1
     2    10    12    2
     3    14    12    1
     4    14    15    1
     5     8     7    2
     6    12    11    1
     7    15    13    1
     8     7     9    1
     9     7     6    1
    10    11    13    1
    11    11     9    2
    12     4     5    1
    13     4     2    1
    14     1     6    1
    15     1     2    1
    16     2     3    2
