@<TRIPOS>MOLECULE
/home/cewinharhar/GITHUB/reincatalyze/data/processed/docking_pred/2023-May-17-1006_maxeplen10_maxtrainstep1000_seadep16_gamma099_lrac9e-4_lrcr1e-3_sub6/67ebe37560d6b2ff0daae954040d2bc7ae74be81_ligand_6.pdbqt
 15 16 0 0 0
SMALL
GASTEIGER

@<TRIPOS>ATOM
      1  C          6.0210    3.1760    0.2620 C.3     1  UNL1        0.1270
      2  C          6.6770    3.5110    1.5170 C.2     1  UNL1        0.3030
      3  O          7.6910    2.9700    1.9620 O.2     1  UNL1       -0.2520
      4  O          6.1080    4.5360    2.2880 O.3     1  UNL1       -0.4810
      5  H          6.3100    4.5150    3.2760 H       1  UNL1        0.2960
      6  C          5.2710    1.9030    0.2980 C.3     1  UNL1        0.0470
      7  C          5.9880    0.6840   -0.0830 C.2     1  UNL1       -0.0430
      8  C          6.2960   -0.2960    0.8480 C.2     1  UNL1        0.0080
      9  C          6.4110    0.4940   -1.3720 C.2     1  UNL1        0.0540
     10  C          7.0010   -1.4260    0.4990 C.2     1  UNL1        0.0510
     11  C          7.1200   -0.6320   -1.7450 C.2     1  UNL1        0.1660
     12  C          7.4170   -1.5960   -0.8120 C.2     1  UNL1        0.1650
     13  O          7.6380   -1.0290   -2.9660 O.2     1  UNL1       -0.4540
     14  O          8.1290   -2.5950   -1.4780 O.2     1  UNL1       -0.4540
     15  C          8.5460   -2.1170   -2.7360 C.3     1  UNL1        0.4680
@<TRIPOS>BOND
     1    13    15    1
     2    13    11    1
     3    15    14    1
     4    11     9    1
     5    11    12    2
     6    14    12    1
     7     9     7    2
     8    12    10    1
     9     7     6    1
    10     7     8    1
    11     1     6    1
    12     1     2    1
    13    10     8    2
    14     2     3    2
    15     2     4    1
    16     4     5    1
