MODEL 1
REMARK VINA RESULT:      -7.7      0.000      0.000
REMARK SMILES O=C(O)CCc1ccc2c(c1)OCO2
REMARK SMILES IDX 4 1 2 2 1 3 3 4 5 6 6 7 7 8 11 9 8 10 10 11 9 12 12 13 14 14
REMARK SMILES IDX 13 15
REMARK H PARENT 3 5
REMARK Flexibility Score: inf
ROOT
ATOM      1  C   UNL     1       8.236  -0.583  -2.143  1.00  0.00     0.127 C 
ENDROOT
BRANCH   1   2
ATOM      2  C   UNL     1       8.443  -1.819  -2.880  1.00  0.00     0.303 C 
ATOM      3  O   UNL     1       9.529  -2.375  -3.057  1.00  0.00    -0.252 OA
BRANCH   2   4
ATOM      4  O   UNL     1       7.312  -2.434  -3.440  1.00  0.00    -0.481 OA
ATOM      5  H   UNL     1       6.445  -1.925  -3.361  1.00  0.00     0.296 HD
ENDBRANCH   2   4
ENDBRANCH   1   2
BRANCH   1   6
ATOM      6  C   UNL     1       6.884  -0.453  -1.557  1.00  0.00     0.047 C 
BRANCH   6   7
ATOM      7  C   UNL     1       6.637   0.686  -0.671  1.00  0.00    -0.043 A 
ATOM      8  C   UNL     1       5.484   1.449  -0.775  1.00  0.00     0.008 A 
ATOM      9  C   UNL     1       7.563   1.056   0.269  1.00  0.00     0.054 A 
ATOM     10  C   UNL     1       5.267   2.542   0.034  1.00  0.00     0.051 A 
ATOM     11  C   UNL     1       7.366   2.148   1.092  1.00  0.00     0.166 A 
ATOM     12  C   UNL     1       6.218   2.895   0.978  1.00  0.00     0.165 A 
ATOM     13  O   UNL     1       8.148   2.698   2.093  1.00  0.00    -0.454 OA
ATOM     14  O   UNL     1       6.304   3.915   1.926  1.00  0.00    -0.454 OA
ATOM     15  C   UNL     1       7.625   3.996   2.410  1.00  0.00     0.468 C 
ENDBRANCH   6   7
ENDBRANCH   1   6
TORSDOF 4
ENDMDL
MODEL 2
REMARK VINA RESULT:      -7.5      1.902      5.642
REMARK SMILES O=C(O)CCc1ccc2c(c1)OCO2
REMARK SMILES IDX 4 1 2 2 1 3 3 4 5 6 6 7 7 8 11 9 8 10 10 11 9 12 12 13 14 14
REMARK SMILES IDX 13 15
REMARK H PARENT 3 5
REMARK Flexibility Score: inf
ROOT
ATOM      1  C   UNL     1       4.725   1.893   0.778  1.00  0.00     0.127 C 
ENDROOT
BRANCH   1   2
ATOM      2  C   UNL     1       4.357   1.140   1.967  1.00  0.00     0.303 C 
ATOM      3  O   UNL     1       5.031   0.250   2.490  1.00  0.00    -0.252 OA
BRANCH   2   4
ATOM      4  O   UNL     1       3.130   1.452   2.573  1.00  0.00    -0.481 OA
ATOM      5  H   UNL     1       2.793   2.393   2.438  1.00  0.00     0.296 HD
ENDBRANCH   2   4
ENDBRANCH   1   2
BRANCH   1   6
ATOM      6  C   UNL     1       6.162   2.234   0.705  1.00  0.00     0.047 C 
BRANCH   6   7
ATOM      7  C   UNL     1       7.029   1.348  -0.074  1.00  0.00    -0.043 A 
ATOM      8  C   UNL     1       8.402   1.538  -0.126  1.00  0.00     0.008 A 
ATOM      9  C   UNL     1       6.501   0.321  -0.811  1.00  0.00     0.054 A 
ATOM     10  C   UNL     1       9.214   0.728  -0.887  1.00  0.00     0.051 A 
ATOM     11  C   UNL     1       7.297  -0.505  -1.581  1.00  0.00     0.166 A 
ATOM     12  C   UNL     1       8.656  -0.305  -1.622  1.00  0.00     0.165 A 
ATOM     13  O   UNL     1       6.989  -1.584  -2.391  1.00  0.00    -0.454 OA
ATOM     14  O   UNL     1       9.181  -1.280  -2.471  1.00  0.00    -0.454 OA
ATOM     15  C   UNL     1       8.137  -1.882  -3.200  1.00  0.00     0.468 C 
ENDBRANCH   6   7
ENDBRANCH   1   6
TORSDOF 4
ENDMDL
MODEL 3
REMARK VINA RESULT:      -7.3      2.043      2.102
REMARK SMILES O=C(O)CCc1ccc2c(c1)OCO2
REMARK SMILES IDX 4 1 2 2 1 3 3 4 5 6 6 7 7 8 11 9 8 10 10 11 9 12 12 13 14 14
REMARK SMILES IDX 13 15
REMARK H PARENT 3 5
REMARK Flexibility Score: inf
ROOT
ATOM      1  C   UNL     1       8.075  -1.275  -0.191  1.00  0.00     0.127 C 
ENDROOT
BRANCH   1   2
ATOM      2  C   UNL     1       7.965  -2.449   0.662  1.00  0.00     0.303 C 
ATOM      3  O   UNL     1       8.802  -3.349   0.755  1.00  0.00    -0.252 OA
BRANCH   2   4
ATOM      4  O   UNL     1       6.807  -2.569   1.446  1.00  0.00    -0.481 OA
ATOM      5  H   UNL     1       6.207  -3.353   1.237  1.00  0.00     0.296 HD
ENDBRANCH   2   4
ENDBRANCH   1   2
BRANCH   1   6
ATOM      6  C   UNL     1       6.777  -0.651  -0.523  1.00  0.00     0.047 C 
BRANCH   6   7
ATOM      7  C   UNL     1       6.507   0.682   0.020  1.00  0.00    -0.043 A 
ATOM      8  C   UNL     1       5.455   1.456  -0.447  1.00  0.00     0.008 A 
ATOM      9  C   UNL     1       7.316   1.222   0.984  1.00  0.00     0.054 A 
ATOM     10  C   UNL     1       5.223   2.724   0.037  1.00  0.00     0.051 A 
ATOM     11  C   UNL     1       7.101   2.492   1.485  1.00  0.00     0.166 A 
ATOM     12  C   UNL     1       6.054   3.247   1.014  1.00  0.00     0.165 A 
ATOM     13  O   UNL     1       7.775   3.228   2.443  1.00  0.00    -0.454 OA
ATOM     14  O   UNL     1       6.094   4.463   1.698  1.00  0.00    -0.454 OA
ATOM     15  C   UNL     1       7.332   4.591   2.358  1.00  0.00     0.468 C 
ENDBRANCH   6   7
ENDBRANCH   1   6
TORSDOF 4
ENDMDL
MODEL 4
REMARK VINA RESULT:      -7.1      1.252      5.732
REMARK SMILES O=C(O)CCc1ccc2c(c1)OCO2
REMARK SMILES IDX 4 1 2 2 1 3 3 4 5 6 6 7 7 8 11 9 8 10 10 11 9 12 12 13 14 14
REMARK SMILES IDX 13 15
REMARK H PARENT 3 5
REMARK Flexibility Score: inf
ROOT
ATOM      1  C   UNL     1       6.021   3.176   0.262  1.00  0.00     0.127 C 
ENDROOT
BRANCH   1   2
ATOM      2  C   UNL     1       6.677   3.511   1.517  1.00  0.00     0.303 C 
ATOM      3  O   UNL     1       7.691   2.970   1.962  1.00  0.00    -0.252 OA
BRANCH   2   4
ATOM      4  O   UNL     1       6.108   4.536   2.288  1.00  0.00    -0.481 OA
ATOM      5  H   UNL     1       6.310   4.515   3.276  1.00  0.00     0.296 HD
ENDBRANCH   2   4
ENDBRANCH   1   2
BRANCH   1   6
ATOM      6  C   UNL     1       5.271   1.903   0.298  1.00  0.00     0.047 C 
BRANCH   6   7
ATOM      7  C   UNL     1       5.988   0.684  -0.083  1.00  0.00    -0.043 A 
ATOM      8  C   UNL     1       6.296  -0.296   0.848  1.00  0.00     0.008 A 
ATOM      9  C   UNL     1       6.411   0.494  -1.372  1.00  0.00     0.054 A 
ATOM     10  C   UNL     1       7.001  -1.426   0.499  1.00  0.00     0.051 A 
ATOM     11  C   UNL     1       7.120  -0.632  -1.745  1.00  0.00     0.166 A 
ATOM     12  C   UNL     1       7.417  -1.596  -0.812  1.00  0.00     0.165 A 
ATOM     13  O   UNL     1       7.638  -1.029  -2.966  1.00  0.00    -0.454 OA
ATOM     14  O   UNL     1       8.129  -2.595  -1.478  1.00  0.00    -0.454 OA
ATOM     15  C   UNL     1       8.546  -2.117  -2.736  1.00  0.00     0.468 C 
ENDBRANCH   6   7
ENDBRANCH   1   6
TORSDOF 4
ENDMDL
