@<TRIPOS>MOLECULE
/home/cewinharhar/GITHUB/reincatalyze/data/processed/docking_pred/2023-May-17-1006_maxeplen10_maxtrainstep1000_seadep16_gamma099_lrac9e-4_lrcr1e-3_sub6/67ebe37560d6b2ff0daae954040d2bc7ae74be81_ligand_6.pdbqt
 15 16 0 0 0
SMALL
GASTEIGER

@<TRIPOS>ATOM
      1  C          8.2360   -0.5830   -2.1430 C.3     1  UNL1        0.1270
      2  C          8.4430   -1.8190   -2.8800 C.2     1  UNL1        0.3030
      3  O          9.5290   -2.3750   -3.0570 O.2     1  UNL1       -0.2520
      4  O          7.3120   -2.4340   -3.4400 O.3     1  UNL1       -0.4810
      5  H          6.4450   -1.9250   -3.3610 H       1  UNL1        0.2960
      6  C          6.8840   -0.4530   -1.5570 C.3     1  UNL1        0.0470
      7  C          6.6370    0.6860   -0.6710 C.2     1  UNL1       -0.0430
      8  C          5.4840    1.4490   -0.7750 C.2     1  UNL1        0.0080
      9  C          7.5630    1.0560    0.2690 C.2     1  UNL1        0.0540
     10  C          5.2670    2.5420    0.0340 C.2     1  UNL1        0.0510
     11  C          7.3660    2.1480    1.0920 C.2     1  UNL1        0.1660
     12  C          6.2180    2.8950    0.9780 C.2     1  UNL1        0.1650
     13  O          8.1480    2.6980    2.0930 O.2     1  UNL1       -0.4540
     14  O          6.3040    3.9150    1.9260 O.2     1  UNL1       -0.4540
     15  C          7.6250    3.9960    2.4100 C.3     1  UNL1        0.4680
@<TRIPOS>BOND
     1     4     5    1
     2     4     2    1
     3     3     2    2
     4     2     1    1
     5     1     6    1
     6     6     7    1
     7     8     7    2
     8     8    10    1
     9     7     9    1
    10    10    12    2
    11     9    11    2
    12    12    11    1
    13    12    14    1
    14    11    13    1
    15    14    15    1
    16    13    15    1
