@<TRIPOS>MOLECULE
/home/cewinharhar/GITHUB/reincatalyze/data/processed/docking_pred/2023-May-17-1006_maxeplen10_maxtrainstep1000_seadep16_gamma099_lrac9e-4_lrcr1e-3_sub6/67ebe37560d6b2ff0daae954040d2bc7ae74be81_ligand_6.pdbqt
 15 16 0 0 0
SMALL
GASTEIGER

@<TRIPOS>ATOM
      1  C          4.7250    1.8930    0.7780 C.3     1  UNL1        0.1270
      2  C          4.3570    1.1400    1.9670 C.2     1  UNL1        0.3030
      3  O          5.0310    0.2500    2.4900 O.2     1  UNL1       -0.2520
      4  O          3.1300    1.4520    2.5730 O.3     1  UNL1       -0.4810
      5  H          2.7930    2.3930    2.4380 H       1  UNL1        0.2960
      6  C          6.1620    2.2340    0.7050 C.3     1  UNL1        0.0470
      7  C          7.0290    1.3480   -0.0740 C.2     1  UNL1       -0.0430
      8  C          8.4020    1.5380   -0.1260 C.2     1  UNL1        0.0080
      9  C          6.5010    0.3210   -0.8110 C.2     1  UNL1        0.0540
     10  C          9.2140    0.7280   -0.8870 C.2     1  UNL1        0.0510
     11  C          7.2970   -0.5050   -1.5810 C.2     1  UNL1        0.1660
     12  C          8.6560   -0.3050   -1.6220 C.2     1  UNL1        0.1650
     13  O          6.9890   -1.5840   -2.3910 O.2     1  UNL1       -0.4540
     14  O          9.1810   -1.2800   -2.4710 O.2     1  UNL1       -0.4540
     15  C          8.1370   -1.8820   -3.2000 C.3     1  UNL1        0.4680
@<TRIPOS>BOND
     1    15    14    1
     2    15    13    1
     3    14    12    1
     4    13    11    1
     5    12    11    2
     6    12    10    1
     7    11     9    1
     8    10     8    2
     9     9     7    2
    10     8     7    1
    11     7     6    1
    12     6     1    1
    13     1     2    1
    14     2     3    2
    15     2     4    1
    16     5     4    1
