@<TRIPOS>MOLECULE
/home/cewinharhar/GITHUB/reincatalyze/data/processed/docking_pred/2023-May-17-1006_maxeplen10_maxtrainstep1000_seadep16_gamma099_lrac9e-4_lrcr1e-3_sub6/681e80220216c71ec10eb1429598bf11558fcb24_ligand_6.pdbqt
 15 16 0 0 0
SMALL
GASTEIGER

@<TRIPOS>ATOM
      1  C          8.2150   -0.2210   -2.8400 C.3     1  UNL1        0.1270
      2  C          8.4590   -1.6410   -3.0400 C.2     1  UNL1        0.3030
      3  O          9.5470   -2.2060   -2.9170 O.2     1  UNL1       -0.2520
      4  O          7.3630   -2.4370   -3.4060 O.3     1  UNL1       -0.4810
      5  H          6.5220   -1.9450   -3.6660 H       1  UNL1        0.2960
      6  C          8.6720    0.2880   -1.5290 C.3     1  UNL1        0.0470
      7  C          7.7240    0.2340   -0.4140 C.2     1  UNL1       -0.0430
      8  C          7.7620   -0.7900    0.5200 C.2     1  UNL1        0.0080
      9  C          6.7420    1.1800   -0.2840 C.2     1  UNL1        0.0540
     10  C          6.8480   -0.8610    1.5480 C.2     1  UNL1        0.0510
     11  C          5.8150    1.1280    0.7400 C.2     1  UNL1        0.1660
     12  C          5.8650    0.1090    1.6600 C.2     1  UNL1        0.1650
     13  O          4.7560    1.9580    1.0630 O.2     1  UNL1       -0.4540
     14  O          4.8170    0.3230    2.5560 O.2     1  UNL1       -0.4540
     15  C          3.9330    1.2830    2.0250 C.3     1  UNL1        0.4680
@<TRIPOS>BOND
     1     5     4    1
     2     4     2    1
     3     2     3    2
     4     2     1    1
     5     1     6    1
     6     6     7    1
     7     7     9    2
     8     7     8    1
     9     9    11    1
    10     8    10    2
    11    11    13    1
    12    11    12    2
    13    13    15    1
    14    10    12    1
    15    12    14    1
    16    15    14    1
