@<TRIPOS>MOLECULE
/home/cewinharhar/GITHUB/reincatalyze/data/processed/docking_pred/2023-May-17-1006_maxeplen10_maxtrainstep1000_seadep16_gamma099_lrac9e-4_lrcr1e-3_sub6/681e80220216c71ec10eb1429598bf11558fcb24_ligand_6.pdbqt
 15 16 0 0 0
SMALL
GASTEIGER

@<TRIPOS>ATOM
      1  C          5.4190    2.8650    0.1270 C.3     1  UNL1        0.1270
      2  C          6.2510    3.8450    0.8070 C.2     1  UNL1        0.3030
      3  O          6.8980    4.7400    0.2600 O.2     1  UNL1       -0.2520
      4  O          6.3250    3.7670    2.2070 O.3     1  UNL1       -0.4810
      5  H          6.4480    2.8450    2.5960 H       1  UNL1        0.2960
      6  C          5.3560    1.5550    0.8090 C.3     1  UNL1        0.0470
      7  C          6.1340    0.4550    0.2370 C.2     1  UNL1       -0.0430
      8  C          6.5840   -0.5980    1.0180 C.2     1  UNL1        0.0080
      9  C          6.4760    0.4540   -1.0900 C.2     1  UNL1        0.0540
     10  C          7.3470   -1.6150    0.4890 C.2     1  UNL1        0.0510
     11  C          7.2400   -0.5550   -1.6430 C.2     1  UNL1        0.1660
     12  C          7.6780   -1.5930   -0.8560 C.2     1  UNL1        0.1650
     13  O          7.6970   -0.7600   -2.9330 O.2     1  UNL1       -0.4540
     14  O          8.4150   -2.4430   -1.6840 O.2     1  UNL1       -0.4540
     15  C          8.7000   -1.7860   -2.8970 C.3     1  UNL1        0.4680
@<TRIPOS>BOND
     1    13    15    1
     2    13    11    1
     3    15    14    1
     4    14    12    1
     5    11     9    1
     6    11    12    2
     7     9     7    2
     8    12    10    1
     9     1     2    1
    10     1     6    1
    11     7     6    1
    12     7     8    1
    13     3     2    2
    14    10     8    2
    15     2     4    1
    16     4     5    1
