MODEL 1
REMARK VINA RESULT:      -7.6      0.000      0.000
REMARK SMILES O=C(O)CCc1ccc2c(c1)OCO2
REMARK SMILES IDX 4 1 2 2 1 3 3 4 5 6 6 7 7 8 11 9 8 10 10 11 9 12 12 13 14 14
REMARK SMILES IDX 13 15
REMARK H PARENT 3 5
REMARK Flexibility Score: inf
ROOT
ATOM      1  C   UNL     1       5.419   2.865   0.127  1.00  0.00     0.127 C 
ENDROOT
BRANCH   1   2
ATOM      2  C   UNL     1       6.251   3.845   0.807  1.00  0.00     0.303 C 
ATOM      3  O   UNL     1       6.898   4.740   0.260  1.00  0.00    -0.252 OA
BRANCH   2   4
ATOM      4  O   UNL     1       6.325   3.767   2.207  1.00  0.00    -0.481 OA
ATOM      5  H   UNL     1       6.448   2.845   2.596  1.00  0.00     0.296 HD
ENDBRANCH   2   4
ENDBRANCH   1   2
BRANCH   1   6
ATOM      6  C   UNL     1       5.356   1.555   0.809  1.00  0.00     0.047 C 
BRANCH   6   7
ATOM      7  C   UNL     1       6.134   0.455   0.237  1.00  0.00    -0.043 A 
ATOM      8  C   UNL     1       6.584  -0.598   1.018  1.00  0.00     0.008 A 
ATOM      9  C   UNL     1       6.476   0.454  -1.090  1.00  0.00     0.054 A 
ATOM     10  C   UNL     1       7.347  -1.615   0.489  1.00  0.00     0.051 A 
ATOM     11  C   UNL     1       7.240  -0.555  -1.643  1.00  0.00     0.166 A 
ATOM     12  C   UNL     1       7.678  -1.593  -0.856  1.00  0.00     0.165 A 
ATOM     13  O   UNL     1       7.697  -0.760  -2.933  1.00  0.00    -0.454 OA
ATOM     14  O   UNL     1       8.415  -2.443  -1.684  1.00  0.00    -0.454 OA
ATOM     15  C   UNL     1       8.700  -1.786  -2.897  1.00  0.00     0.468 C 
ENDBRANCH   6   7
ENDBRANCH   1   6
TORSDOF 4
ENDMDL
MODEL 2
REMARK VINA RESULT:      -7.6      2.123      2.513
REMARK SMILES O=C(O)CCc1ccc2c(c1)OCO2
REMARK SMILES IDX 4 1 2 2 1 3 3 4 5 6 6 7 7 8 11 9 8 10 10 11 9 12 12 13 14 14
REMARK SMILES IDX 13 15
REMARK H PARENT 3 5
REMARK Flexibility Score: inf
ROOT
ATOM      1  C   UNL     1       4.704   1.872   0.686  1.00  0.00     0.127 C 
ENDROOT
BRANCH   1   2
ATOM      2  C   UNL     1       4.385   1.171   1.919  1.00  0.00     0.303 C 
ATOM      3  O   UNL     1       5.100   0.334   2.474  1.00  0.00    -0.252 OA
BRANCH   2   4
ATOM      4  O   UNL     1       3.158   1.470   2.532  1.00  0.00    -0.481 OA
ATOM      5  H   UNL     1       2.511   2.020   1.988  1.00  0.00     0.296 HD
ENDBRANCH   2   4
ENDBRANCH   1   2
BRANCH   1   6
ATOM      6  C   UNL     1       6.132   2.233   0.553  1.00  0.00     0.047 C 
BRANCH   6   7
ATOM      7  C   UNL     1       6.990   1.330  -0.216  1.00  0.00    -0.043 A 
ATOM      8  C   UNL     1       8.352   1.557  -0.344  1.00  0.00     0.008 A 
ATOM      9  C   UNL     1       6.461   0.248  -0.869  1.00  0.00     0.054 A 
ATOM     10  C   UNL     1       9.154   0.728  -1.097  1.00  0.00     0.051 A 
ATOM     11  C   UNL     1       7.247  -0.598  -1.629  1.00  0.00     0.166 A 
ATOM     12  C   UNL     1       8.595  -0.361  -1.746  1.00  0.00     0.165 A 
ATOM     13  O   UNL     1       6.936  -1.730  -2.362  1.00  0.00    -0.454 OA
ATOM     14  O   UNL     1       9.112  -1.367  -2.564  1.00  0.00    -0.454 OA
ATOM     15  C   UNL     1       8.054  -2.040  -3.207  1.00  0.00     0.468 C 
ENDBRANCH   6   7
ENDBRANCH   1   6
TORSDOF 4
ENDMDL
MODEL 3
REMARK VINA RESULT:      -7.5      1.810      5.266
REMARK SMILES O=C(O)CCc1ccc2c(c1)OCO2
REMARK SMILES IDX 4 1 2 2 1 3 3 4 5 6 6 7 7 8 11 9 8 10 10 11 9 12 12 13 14 14
REMARK SMILES IDX 13 15
REMARK H PARENT 3 5
REMARK Flexibility Score: inf
ROOT
ATOM      1  C   UNL     1       8.215  -0.221  -2.840  1.00  0.00     0.127 C 
ENDROOT
BRANCH   1   2
ATOM      2  C   UNL     1       8.459  -1.641  -3.040  1.00  0.00     0.303 C 
ATOM      3  O   UNL     1       9.547  -2.206  -2.917  1.00  0.00    -0.252 OA
BRANCH   2   4
ATOM      4  O   UNL     1       7.363  -2.437  -3.406  1.00  0.00    -0.481 OA
ATOM      5  H   UNL     1       6.522  -1.945  -3.666  1.00  0.00     0.296 HD
ENDBRANCH   2   4
ENDBRANCH   1   2
BRANCH   1   6
ATOM      6  C   UNL     1       8.672   0.288  -1.529  1.00  0.00     0.047 C 
BRANCH   6   7
ATOM      7  C   UNL     1       7.724   0.234  -0.414  1.00  0.00    -0.043 A 
ATOM      8  C   UNL     1       7.762  -0.790   0.520  1.00  0.00     0.008 A 
ATOM      9  C   UNL     1       6.742   1.180  -0.284  1.00  0.00     0.054 A 
ATOM     10  C   UNL     1       6.848  -0.861   1.548  1.00  0.00     0.051 A 
ATOM     11  C   UNL     1       5.815   1.128   0.740  1.00  0.00     0.166 A 
ATOM     12  C   UNL     1       5.865   0.109   1.660  1.00  0.00     0.165 A 
ATOM     13  O   UNL     1       4.756   1.958   1.063  1.00  0.00    -0.454 OA
ATOM     14  O   UNL     1       4.817   0.323   2.556  1.00  0.00    -0.454 OA
ATOM     15  C   UNL     1       3.933   1.283   2.025  1.00  0.00     0.468 C 
ENDBRANCH   6   7
ENDBRANCH   1   6
TORSDOF 4
ENDMDL
MODEL 4
REMARK VINA RESULT:      -7.4      1.971      2.948
REMARK SMILES O=C(O)CCc1ccc2c(c1)OCO2
REMARK SMILES IDX 4 1 2 2 1 3 3 4 5 6 6 7 7 8 11 9 8 10 10 11 9 12 12 13 14 14
REMARK SMILES IDX 13 15
REMARK H PARENT 3 5
REMARK Flexibility Score: inf
ROOT
ATOM      1  C   UNL     1       6.484   1.302   0.802  1.00  0.00     0.127 C 
ENDROOT
BRANCH   1   2
ATOM      2  C   UNL     1       5.267   1.181   1.589  1.00  0.00     0.303 C 
ATOM      3  O   UNL     1       5.050   0.323   2.447  1.00  0.00    -0.252 OA
BRANCH   2   4
ATOM      4  O   UNL     1       4.252   2.122   1.355  1.00  0.00    -0.481 OA
ATOM      5  H   UNL     1       4.068   2.775   2.101  1.00  0.00     0.296 HD
ENDBRANCH   2   4
ENDBRANCH   1   2
BRANCH   1   6
ATOM      6  C   UNL     1       6.319   0.926  -0.619  1.00  0.00     0.047 C 
BRANCH   6   7
ATOM      7  C   UNL     1       7.036  -0.260  -1.093  1.00  0.00    -0.043 A 
ATOM      8  C   UNL     1       7.275  -0.471  -2.442  1.00  0.00     0.008 A 
ATOM      9  C   UNL     1       7.461  -1.220  -0.213  1.00  0.00     0.054 A 
ATOM     10  C   UNL     1       7.917  -1.603  -2.892  1.00  0.00     0.051 A 
ATOM     11  C   UNL     1       8.108  -2.363  -0.642  1.00  0.00     0.166 A 
ATOM     12  C   UNL     1       8.339  -2.559  -1.982  1.00  0.00     0.165 A 
ATOM     13  O   UNL     1       8.617  -3.446   0.053  1.00  0.00    -0.454 OA
ATOM     14  O   UNL     1       8.999  -3.783  -2.103  1.00  0.00    -0.454 OA
ATOM     15  C   UNL     1       8.902  -4.491  -0.889  1.00  0.00     0.468 C 
ENDBRANCH   6   7
ENDBRANCH   1   6
TORSDOF 4
ENDMDL
MODEL 5
REMARK VINA RESULT:      -7.4      1.036      2.141
REMARK SMILES O=C(O)CCc1ccc2c(c1)OCO2
REMARK SMILES IDX 4 1 2 2 1 3 3 4 5 6 6 7 7 8 11 9 8 10 10 11 9 12 12 13 14 14
REMARK SMILES IDX 13 15
REMARK H PARENT 3 5
REMARK Flexibility Score: inf
ROOT
ATOM      1  C   UNL     1       5.678   2.571   0.376  1.00  0.00     0.127 C 
ENDROOT
BRANCH   1   2
ATOM      2  C   UNL     1       6.252   3.731   1.041  1.00  0.00     0.303 C 
ATOM      3  O   UNL     1       6.282   3.917   2.259  1.00  0.00    -0.252 OA
BRANCH   2   4
ATOM      4  O   UNL     1       6.819   4.725   0.228  1.00  0.00    -0.481 OA
ATOM      5  H   UNL     1       7.356   5.435   0.702  1.00  0.00     0.296 HD
ENDBRANCH   2   4
ENDBRANCH   1   2
BRANCH   1   6
ATOM      6  C   UNL     1       5.922   1.294   1.080  1.00  0.00     0.047 C 
BRANCH   6   7
ATOM      7  C   UNL     1       6.591   0.226   0.333  1.00  0.00    -0.043 A 
ATOM      8  C   UNL     1       6.569   0.188  -1.053  1.00  0.00     0.008 A 
ATOM      9  C   UNL     1       7.227  -0.794   0.989  1.00  0.00     0.054 A 
ATOM     10  C   UNL     1       7.166  -0.835  -1.755  1.00  0.00     0.051 A 
ATOM     11  C   UNL     1       7.834  -1.830   0.305  1.00  0.00     0.166 A 
ATOM     12  C   UNL     1       7.806  -1.855  -1.068  1.00  0.00     0.165 A 
ATOM     13  O   UNL     1       8.523  -2.946   0.749  1.00  0.00    -0.454 OA
ATOM     14  O   UNL     1       8.490  -3.005  -1.465  1.00  0.00    -0.454 OA
ATOM     15  C   UNL     1       8.669  -3.853  -0.354  1.00  0.00     0.468 C 
ENDBRANCH   6   7
ENDBRANCH   1   6
TORSDOF 4
ENDMDL
