@<TRIPOS>MOLECULE
/home/cewinharhar/GITHUB/reincatalyze/data/processed/docking_pred/2023-May-17-1006_maxeplen10_maxtrainstep1000_seadep16_gamma099_lrac9e-4_lrcr1e-3_sub6/681e80220216c71ec10eb1429598bf11558fcb24_ligand_6.pdbqt
 15 16 0 0 0
SMALL
GASTEIGER

@<TRIPOS>ATOM
      1  C          5.6780    2.5710    0.3760 C.3     1  UNL1        0.1270
      2  C          6.2520    3.7310    1.0410 C.2     1  UNL1        0.3030
      3  O          6.2820    3.9170    2.2590 O.2     1  UNL1       -0.2520
      4  O          6.8190    4.7250    0.2280 O.3     1  UNL1       -0.4810
      5  H          7.3560    5.4350    0.7020 H       1  UNL1        0.2960
      6  C          5.9220    1.2940    1.0800 C.3     1  UNL1        0.0470
      7  C          6.5910    0.2260    0.3330 C.2     1  UNL1       -0.0430
      8  C          6.5690    0.1880   -1.0530 C.2     1  UNL1        0.0080
      9  C          7.2270   -0.7940    0.9890 C.2     1  UNL1        0.0540
     10  C          7.1660   -0.8350   -1.7550 C.2     1  UNL1        0.0510
     11  C          7.8340   -1.8300    0.3050 C.2     1  UNL1        0.1660
     12  C          7.8060   -1.8550   -1.0680 C.2     1  UNL1        0.1650
     13  O          8.5230   -2.9460    0.7490 O.2     1  UNL1       -0.4540
     14  O          8.4900   -3.0050   -1.4650 O.2     1  UNL1       -0.4540
     15  C          8.6690   -3.8530   -0.3540 C.3     1  UNL1        0.4680
@<TRIPOS>BOND
     1    10    12    2
     2    10     8    1
     3    14    12    1
     4    14    15    1
     5    12    11    1
     6     8     7    2
     7    15    13    1
     8     4     5    1
     9     4     2    1
    10    11    13    1
    11    11     9    2
    12     7     9    1
    13     7     6    1
    14     1     2    1
    15     1     6    1
    16     2     3    2
