@<TRIPOS>MOLECULE
/home/cewinharhar/GITHUB/reincatalyze/data/processed/docking_pred/2023-May-17-1006_maxeplen10_maxtrainstep1000_seadep16_gamma099_lrac9e-4_lrcr1e-3_sub6/681e80220216c71ec10eb1429598bf11558fcb24_ligand_6.pdbqt
 15 16 0 0 0
SMALL
GASTEIGER

@<TRIPOS>ATOM
      1  C          6.4840    1.3020    0.8020 C.3     1  UNL1        0.1270
      2  C          5.2670    1.1810    1.5890 C.2     1  UNL1        0.3030
      3  O          5.0500    0.3230    2.4470 O.2     1  UNL1       -0.2520
      4  O          4.2520    2.1220    1.3550 O.3     1  UNL1       -0.4810
      5  H          4.0680    2.7750    2.1010 H       1  UNL1        0.2960
      6  C          6.3190    0.9260   -0.6190 C.3     1  UNL1        0.0470
      7  C          7.0360   -0.2600   -1.0930 C.2     1  UNL1       -0.0430
      8  C          7.2750   -0.4710   -2.4420 C.2     1  UNL1        0.0080
      9  C          7.4610   -1.2200   -0.2130 C.2     1  UNL1        0.0540
     10  C          7.9170   -1.6030   -2.8920 C.2     1  UNL1        0.0510
     11  C          8.1080   -2.3630   -0.6420 C.2     1  UNL1        0.1660
     12  C          8.3390   -2.5590   -1.9820 C.2     1  UNL1        0.1650
     13  O          8.6170   -3.4460    0.0530 O.2     1  UNL1       -0.4540
     14  O          8.9990   -3.7830   -2.1030 O.2     1  UNL1       -0.4540
     15  C          8.9020   -4.4910   -0.8890 C.3     1  UNL1        0.4680
@<TRIPOS>BOND
     1    10     8    1
     2    10    12    2
     3     8     7    2
     4    14    12    1
     5    14    15    1
     6    12    11    1
     7     7     6    1
     8     7     9    1
     9    15    13    1
    10    11     9    2
    11    11    13    1
    12     6     1    1
    13     1     2    1
    14     4     2    1
    15     4     5    1
    16     2     3    2
