@<TRIPOS>MOLECULE
/home/cewinharhar/GITHUB/reincatalyze/data/processed/docking_pred/2023-May-17-1006_maxeplen10_maxtrainstep1000_seadep16_gamma099_lrac9e-4_lrcr1e-3_sub6/681e80220216c71ec10eb1429598bf11558fcb24_ligand_6.pdbqt
 15 16 0 0 0
SMALL
GASTEIGER

@<TRIPOS>ATOM
      1  C          4.7040    1.8720    0.6860 C.3     1  UNL1        0.1270
      2  C          4.3850    1.1710    1.9190 C.2     1  UNL1        0.3030
      3  O          5.1000    0.3340    2.4740 O.2     1  UNL1       -0.2520
      4  O          3.1580    1.4700    2.5320 O.3     1  UNL1       -0.4810
      5  H          2.5110    2.0200    1.9880 H       1  UNL1        0.2960
      6  C          6.1320    2.2330    0.5530 C.3     1  UNL1        0.0470
      7  C          6.9900    1.3300   -0.2160 C.2     1  UNL1       -0.0430
      8  C          8.3520    1.5570   -0.3440 C.2     1  UNL1        0.0080
      9  C          6.4610    0.2480   -0.8690 C.2     1  UNL1        0.0540
     10  C          9.1540    0.7280   -1.0970 C.2     1  UNL1        0.0510
     11  C          7.2470   -0.5980   -1.6290 C.2     1  UNL1        0.1660
     12  C          8.5950   -0.3610   -1.7460 C.2     1  UNL1        0.1650
     13  O          6.9360   -1.7300   -2.3620 O.2     1  UNL1       -0.4540
     14  O          9.1120   -1.3670   -2.5640 O.2     1  UNL1       -0.4540
     15  C          8.0540   -2.0400   -3.2070 C.3     1  UNL1        0.4680
@<TRIPOS>BOND
     1    15    14    1
     2    15    13    1
     3    14    12    1
     4    13    11    1
     5    12    11    2
     6    12    10    1
     7    11     9    1
     8    10     8    2
     9     9     7    2
    10     8     7    1
    11     7     6    1
    12     6     1    1
    13     1     2    1
    14     2     3    2
    15     2     4    1
    16     5     4    1
