@<TRIPOS>MOLECULE
/home/cewinharhar/GITHUB/reincatalyze/data/processed/docking_pred/2023-May-17-1006_maxeplen10_maxtrainstep1000_seadep16_gamma099_lrac9e-4_lrcr1e-3_sub6/69e2ce579100b0ee4b56c8bb4a95d1562fd611af_ligand_6.pdbqt
 15 16 0 0 0
SMALL
GASTEIGER

@<TRIPOS>ATOM
      1  C          5.4630    2.6820    0.0280 C.3     1  UNL1        0.1270
      2  C          6.1240    3.6890    0.8430 C.2     1  UNL1        0.3030
      3  O          6.1600    3.7040    2.0750 O.2     1  UNL1       -0.2520
      4  O          6.7780    4.7340    0.1720 O.3     1  UNL1       -0.4810
      5  H          6.1910    5.4820   -0.1660 H       1  UNL1        0.2960
      6  C          5.4660    1.3290    0.6250 C.3     1  UNL1        0.0470
      7  C          6.2890    0.3050   -0.0210 C.2     1  UNL1       -0.0430
      8  C          6.4590    0.2730   -1.3960 C.2     1  UNL1        0.0080
      9  C          6.8890   -0.6800    0.7180 C.2     1  UNL1        0.0540
     10  C          7.2040   -0.7110   -2.0080 C.2     1  UNL1        0.0510
     11  C          7.6410   -1.6770    0.1260 C.2     1  UNL1        0.1660
     12  C          7.8010   -1.6960   -1.2380 C.2     1  UNL1        0.1650
     13  O          8.3260   -2.7530    0.6630 O.2     1  UNL1       -0.4540
     14  O          8.5980   -2.8030   -1.5350 O.2     1  UNL1       -0.4540
     15  C          8.6720   -3.6440   -0.4080 C.3     1  UNL1        0.4680
@<TRIPOS>BOND
     1    10     8    1
     2    10    12    2
     3    14    12    1
     4    14    15    1
     5     8     7    2
     6    12    11    1
     7    15    13    1
     8     5     4    1
     9     7     6    1
    10     7     9    1
    11     1     6    1
    12     1     2    1
    13    11    13    1
    14    11     9    2
    15     4     2    1
    16     2     3    2
