@<TRIPOS>MOLECULE
/home/cewinharhar/GITHUB/reincatalyze/data/processed/docking_pred/2023-May-17-1006_maxeplen10_maxtrainstep1000_seadep16_gamma099_lrac9e-4_lrcr1e-3_sub6/69e2ce579100b0ee4b56c8bb4a95d1562fd611af_ligand_6.pdbqt
 15 16 0 0 0
SMALL
GASTEIGER

@<TRIPOS>ATOM
      1  C          8.2840   -0.1880   -2.8460 C.3     1  UNL1        0.1270
      2  C          8.5070   -1.6140   -3.0270 C.2     1  UNL1        0.3030
      3  O          9.5940   -2.1870   -2.9400 O.2     1  UNL1       -0.2520
      4  O          7.3880   -2.4080   -3.3260 O.3     1  UNL1       -0.4810
      5  H          7.0430   -2.9900   -2.5780 H       1  UNL1        0.2960
      6  C          8.7170    0.3250   -1.5290 C.3     1  UNL1        0.0470
      7  C          7.7640    0.2370   -0.4210 C.2     1  UNL1       -0.0430
      8  C          7.7630   -0.8410    0.4510 C.2     1  UNL1        0.0080
      9  C          6.8130    1.2060   -0.2370 C.2     1  UNL1        0.0540
     10  C          6.8440   -0.9430    1.4710 C.2     1  UNL1        0.0510
     11  C          5.8810    1.1250    0.7810 C.2     1  UNL1        0.1660
     12  C          5.8930    0.0510    1.6380 C.2     1  UNL1        0.1650
     13  O          4.8490    1.9700    1.1500 O.2     1  UNL1       -0.4540
     14  O          4.8500    0.2470    2.5440 O.2     1  UNL1       -0.4540
     15  C          4.0000    1.2660    2.0690 C.3     1  UNL1        0.4680
@<TRIPOS>BOND
     1     4     2    1
     2     4     5    1
     3     2     3    2
     4     2     1    1
     5     1     6    1
     6     6     7    1
     7     7     9    2
     8     7     8    1
     9     9    11    1
    10     8    10    2
    11    11    13    1
    12    11    12    2
    13    13    15    1
    14    10    12    1
    15    12    14    1
    16    15    14    1
