@<TRIPOS>MOLECULE
/home/cewinharhar/GITHUB/reincatalyze/data/processed/docking_pred/2023-May-17-1006_maxeplen10_maxtrainstep1000_seadep16_gamma099_lrac9e-4_lrcr1e-3_sub6/69e2ce579100b0ee4b56c8bb4a95d1562fd611af_ligand_6.pdbqt
 15 16 0 0 0
SMALL
GASTEIGER

@<TRIPOS>ATOM
      1  C          6.4110    1.3260    0.6460 C.3     1  UNL1        0.1270
      2  C          5.1840    1.3270    1.4270 C.2     1  UNL1        0.3030
      3  O          4.2600    2.1330    1.3110 O.2     1  UNL1       -0.2520
      4  O          5.0380    0.3240    2.3990 O.3     1  UNL1       -0.4810
      5  H          5.8220    0.1870    3.0180 H       1  UNL1        0.2960
      6  C          6.2310    0.8830   -0.7530 C.3     1  UNL1        0.0470
      7  C          6.9730   -0.3020   -1.1880 C.2     1  UNL1       -0.0430
      8  C          7.2800   -0.5150   -2.5240 C.2     1  UNL1        0.0080
      9  C          7.3540   -1.2600   -0.2870 C.2     1  UNL1        0.0540
     10  C          7.9460   -1.6470   -2.9390 C.2     1  UNL1        0.0510
     11  C          8.0230   -2.4030   -0.6800 C.2     1  UNL1        0.1660
     12  C          8.3220   -2.6010   -2.0070 C.2     1  UNL1        0.1650
     13  O          8.4970   -3.4850    0.0410 O.2     1  UNL1       -0.4540
     14  O          8.9890   -3.8240   -2.0930 O.2     1  UNL1       -0.4540
     15  C          8.8310   -4.5310   -0.8840 C.3     1  UNL1        0.4680
@<TRIPOS>BOND
     1    10     8    1
     2    10    12    2
     3     8     7    2
     4    14    12    1
     5    14    15    1
     6    12    11    1
     7     7     6    1
     8     7     9    1
     9    15    13    1
    10     6     1    1
    11    11     9    2
    12    11    13    1
    13     1     2    1
    14     3     2    2
    15     2     4    1
    16     4     5    1
