MODEL 1
REMARK VINA RESULT:      -7.7      0.000      0.000
REMARK SMILES O=C(O)CCc1ccc2c(c1)OCO2
REMARK SMILES IDX 4 1 2 2 1 3 3 4 5 6 6 7 7 8 11 9 8 10 10 11 9 12 12 13 14 14
REMARK SMILES IDX 13 15
REMARK H PARENT 3 5
REMARK Flexibility Score: inf
ROOT
ATOM      1  C   UNL     1       5.411   2.865   0.134  1.00  0.00     0.127 C 
ENDROOT
BRANCH   1   2
ATOM      2  C   UNL     1       6.245   3.851   0.804  1.00  0.00     0.303 C 
ATOM      3  O   UNL     1       6.874   4.754   0.249  1.00  0.00    -0.252 OA
BRANCH   2   4
ATOM      4  O   UNL     1       6.344   3.769   2.202  1.00  0.00    -0.481 OA
ATOM      5  H   UNL     1       7.278   3.750   2.582  1.00  0.00     0.296 HD
ENDBRANCH   2   4
ENDBRANCH   1   2
BRANCH   1   6
ATOM      6  C   UNL     1       5.351   1.560   0.827  1.00  0.00     0.047 C 
BRANCH   6   7
ATOM      7  C   UNL     1       6.131   0.457   0.261  1.00  0.00    -0.043 A 
ATOM      8  C   UNL     1       6.601  -0.580   1.053  1.00  0.00     0.008 A 
ATOM      9  C   UNL     1       6.452   0.437  -1.070  1.00  0.00     0.054 A 
ATOM     10  C   UNL     1       7.364  -1.599   0.529  1.00  0.00     0.051 A 
ATOM     11  C   UNL     1       7.216  -0.576  -1.618  1.00  0.00     0.166 A 
ATOM     12  C   UNL     1       7.675  -1.597  -0.821  1.00  0.00     0.165 A 
ATOM     13  O   UNL     1       7.656  -0.798  -2.911  1.00  0.00    -0.454 OA
ATOM     14  O   UNL     1       8.405  -2.454  -1.645  1.00  0.00    -0.454 OA
ATOM     15  C   UNL     1       8.668  -1.816  -2.873  1.00  0.00     0.468 C 
ENDBRANCH   6   7
ENDBRANCH   1   6
TORSDOF 4
ENDMDL
MODEL 2
REMARK VINA RESULT:      -7.6      2.136      2.524
REMARK SMILES O=C(O)CCc1ccc2c(c1)OCO2
REMARK SMILES IDX 4 1 2 2 1 3 3 4 5 6 6 7 7 8 11 9 8 10 10 11 9 12 12 13 14 14
REMARK SMILES IDX 13 15
REMARK H PARENT 3 5
REMARK Flexibility Score: inf
ROOT
ATOM      1  C   UNL     1       4.753   1.889   0.708  1.00  0.00     0.127 C 
ENDROOT
BRANCH   1   2
ATOM      2  C   UNL     1       4.419   1.159   1.921  1.00  0.00     0.303 C 
ATOM      3  O   UNL     1       5.126   0.309   2.464  1.00  0.00    -0.252 OA
BRANCH   2   4
ATOM      4  O   UNL     1       3.185   1.446   2.526  1.00  0.00    -0.481 OA
ATOM      5  H   UNL     1       2.372   1.026   2.102  1.00  0.00     0.296 HD
ENDBRANCH   2   4
ENDBRANCH   1   2
BRANCH   1   6
ATOM      6  C   UNL     1       6.189   2.217   0.581  1.00  0.00     0.047 C 
BRANCH   6   7
ATOM      7  C   UNL     1       7.023   1.314  -0.214  1.00  0.00    -0.043 A 
ATOM      8  C   UNL     1       8.380   1.542  -0.384  1.00  0.00     0.008 A 
ATOM      9  C   UNL     1       6.475   0.231  -0.849  1.00  0.00     0.054 A 
ATOM     10  C   UNL     1       9.158   0.714  -1.162  1.00  0.00     0.051 A 
ATOM     11  C   UNL     1       7.236  -0.614  -1.633  1.00  0.00     0.166 A 
ATOM     12  C   UNL     1       8.580  -0.376  -1.792  1.00  0.00     0.165 A 
ATOM     13  O   UNL     1       6.903  -1.747  -2.354  1.00  0.00    -0.454 OA
ATOM     14  O   UNL     1       9.072  -1.383  -2.625  1.00  0.00    -0.454 OA
ATOM     15  C   UNL     1       7.995  -2.057  -3.234  1.00  0.00     0.468 C 
ENDBRANCH   6   7
ENDBRANCH   1   6
TORSDOF 4
ENDMDL
MODEL 3
REMARK VINA RESULT:      -7.4      1.954      2.868
REMARK SMILES O=C(O)CCc1ccc2c(c1)OCO2
REMARK SMILES IDX 4 1 2 2 1 3 3 4 5 6 6 7 7 8 11 9 8 10 10 11 9 12 12 13 14 14
REMARK SMILES IDX 13 15
REMARK H PARENT 3 5
REMARK Flexibility Score: inf
ROOT
ATOM      1  C   UNL     1       6.411   1.326   0.646  1.00  0.00     0.127 C 
ENDROOT
BRANCH   1   2
ATOM      2  C   UNL     1       5.184   1.327   1.427  1.00  0.00     0.303 C 
ATOM      3  O   UNL     1       4.260   2.133   1.311  1.00  0.00    -0.252 OA
BRANCH   2   4
ATOM      4  O   UNL     1       5.038   0.324   2.399  1.00  0.00    -0.481 OA
ATOM      5  H   UNL     1       5.822   0.187   3.018  1.00  0.00     0.296 HD
ENDBRANCH   2   4
ENDBRANCH   1   2
BRANCH   1   6
ATOM      6  C   UNL     1       6.231   0.883  -0.753  1.00  0.00     0.047 C 
BRANCH   6   7
ATOM      7  C   UNL     1       6.973  -0.302  -1.188  1.00  0.00    -0.043 A 
ATOM      8  C   UNL     1       7.280  -0.515  -2.524  1.00  0.00     0.008 A 
ATOM      9  C   UNL     1       7.354  -1.260  -0.287  1.00  0.00     0.054 A 
ATOM     10  C   UNL     1       7.946  -1.647  -2.939  1.00  0.00     0.051 A 
ATOM     11  C   UNL     1       8.023  -2.403  -0.680  1.00  0.00     0.166 A 
ATOM     12  C   UNL     1       8.322  -2.601  -2.007  1.00  0.00     0.165 A 
ATOM     13  O   UNL     1       8.497  -3.485   0.041  1.00  0.00    -0.454 OA
ATOM     14  O   UNL     1       8.989  -3.824  -2.093  1.00  0.00    -0.454 OA
ATOM     15  C   UNL     1       8.831  -4.531  -0.884  1.00  0.00     0.468 C 
ENDBRANCH   6   7
ENDBRANCH   1   6
TORSDOF 4
ENDMDL
MODEL 4
REMARK VINA RESULT:      -7.4      1.791      5.248
REMARK SMILES O=C(O)CCc1ccc2c(c1)OCO2
REMARK SMILES IDX 4 1 2 2 1 3 3 4 5 6 6 7 7 8 11 9 8 10 10 11 9 12 12 13 14 14
REMARK SMILES IDX 13 15
REMARK H PARENT 3 5
REMARK Flexibility Score: inf
ROOT
ATOM      1  C   UNL     1       8.284  -0.188  -2.846  1.00  0.00     0.127 C 
ENDROOT
BRANCH   1   2
ATOM      2  C   UNL     1       8.507  -1.614  -3.027  1.00  0.00     0.303 C 
ATOM      3  O   UNL     1       9.594  -2.187  -2.940  1.00  0.00    -0.252 OA
BRANCH   2   4
ATOM      4  O   UNL     1       7.388  -2.408  -3.326  1.00  0.00    -0.481 OA
ATOM      5  H   UNL     1       7.043  -2.990  -2.578  1.00  0.00     0.296 HD
ENDBRANCH   2   4
ENDBRANCH   1   2
BRANCH   1   6
ATOM      6  C   UNL     1       8.717   0.325  -1.529  1.00  0.00     0.047 C 
BRANCH   6   7
ATOM      7  C   UNL     1       7.764   0.237  -0.421  1.00  0.00    -0.043 A 
ATOM      8  C   UNL     1       7.763  -0.841   0.451  1.00  0.00     0.008 A 
ATOM      9  C   UNL     1       6.813   1.206  -0.237  1.00  0.00     0.054 A 
ATOM     10  C   UNL     1       6.844  -0.943   1.471  1.00  0.00     0.051 A 
ATOM     11  C   UNL     1       5.881   1.125   0.781  1.00  0.00     0.166 A 
ATOM     12  C   UNL     1       5.893   0.051   1.638  1.00  0.00     0.165 A 
ATOM     13  O   UNL     1       4.849   1.970   1.150  1.00  0.00    -0.454 OA
ATOM     14  O   UNL     1       4.850   0.247   2.544  1.00  0.00    -0.454 OA
ATOM     15  C   UNL     1       4.000   1.266   2.069  1.00  0.00     0.468 C 
ENDBRANCH   6   7
ENDBRANCH   1   6
TORSDOF 4
ENDMDL
MODEL 5
REMARK VINA RESULT:      -7.4      0.937      2.077
REMARK SMILES O=C(O)CCc1ccc2c(c1)OCO2
REMARK SMILES IDX 4 1 2 2 1 3 3 4 5 6 6 7 7 8 11 9 8 10 10 11 9 12 12 13 14 14
REMARK SMILES IDX 13 15
REMARK H PARENT 3 5
REMARK Flexibility Score: inf
ROOT
ATOM      1  C   UNL     1       5.463   2.682   0.028  1.00  0.00     0.127 C 
ENDROOT
BRANCH   1   2
ATOM      2  C   UNL     1       6.124   3.689   0.843  1.00  0.00     0.303 C 
ATOM      3  O   UNL     1       6.160   3.704   2.075  1.00  0.00    -0.252 OA
BRANCH   2   4
ATOM      4  O   UNL     1       6.778   4.734   0.172  1.00  0.00    -0.481 OA
ATOM      5  H   UNL     1       6.191   5.482  -0.166  1.00  0.00     0.296 HD
ENDBRANCH   2   4
ENDBRANCH   1   2
BRANCH   1   6
ATOM      6  C   UNL     1       5.466   1.329   0.625  1.00  0.00     0.047 C 
BRANCH   6   7
ATOM      7  C   UNL     1       6.289   0.305  -0.021  1.00  0.00    -0.043 A 
ATOM      8  C   UNL     1       6.459   0.273  -1.396  1.00  0.00     0.008 A 
ATOM      9  C   UNL     1       6.889  -0.680   0.718  1.00  0.00     0.054 A 
ATOM     10  C   UNL     1       7.204  -0.711  -2.008  1.00  0.00     0.051 A 
ATOM     11  C   UNL     1       7.641  -1.677   0.126  1.00  0.00     0.166 A 
ATOM     12  C   UNL     1       7.801  -1.696  -1.238  1.00  0.00     0.165 A 
ATOM     13  O   UNL     1       8.326  -2.753   0.663  1.00  0.00    -0.454 OA
ATOM     14  O   UNL     1       8.598  -2.803  -1.535  1.00  0.00    -0.454 OA
ATOM     15  C   UNL     1       8.672  -3.644  -0.408  1.00  0.00     0.468 C 
ENDBRANCH   6   7
ENDBRANCH   1   6
TORSDOF 4
ENDMDL
