@<TRIPOS>MOLECULE
/home/cewinharhar/GITHUB/reincatalyze/data/processed/docking_pred/2023-May-17-1006_maxeplen10_maxtrainstep1000_seadep16_gamma099_lrac9e-4_lrcr1e-3_sub6/69e2ce579100b0ee4b56c8bb4a95d1562fd611af_ligand_6.pdbqt
 15 16 0 0 0
SMALL
GASTEIGER

@<TRIPOS>ATOM
      1  C          4.7530    1.8890    0.7080 C.3     1  UNL1        0.1270
      2  C          4.4190    1.1590    1.9210 C.2     1  UNL1        0.3030
      3  O          5.1260    0.3090    2.4640 O.2     1  UNL1       -0.2520
      4  O          3.1850    1.4460    2.5260 O.3     1  UNL1       -0.4810
      5  H          2.3720    1.0260    2.1020 H       1  UNL1        0.2960
      6  C          6.1890    2.2170    0.5810 C.3     1  UNL1        0.0470
      7  C          7.0230    1.3140   -0.2140 C.2     1  UNL1       -0.0430
      8  C          8.3800    1.5420   -0.3840 C.2     1  UNL1        0.0080
      9  C          6.4750    0.2310   -0.8490 C.2     1  UNL1        0.0540
     10  C          9.1580    0.7140   -1.1620 C.2     1  UNL1        0.0510
     11  C          7.2360   -0.6140   -1.6330 C.2     1  UNL1        0.1660
     12  C          8.5800   -0.3760   -1.7920 C.2     1  UNL1        0.1650
     13  O          6.9030   -1.7470   -2.3540 O.2     1  UNL1       -0.4540
     14  O          9.0720   -1.3830   -2.6250 O.2     1  UNL1       -0.4540
     15  C          7.9950   -2.0570   -3.2340 C.3     1  UNL1        0.4680
@<TRIPOS>BOND
     1    15    14    1
     2    15    13    1
     3    14    12    1
     4    13    11    1
     5    12    11    2
     6    12    10    1
     7    11     9    1
     8    10     8    2
     9     9     7    2
    10     8     7    1
    11     7     6    1
    12     6     1    1
    13     1     2    1
    14     2     3    2
    15     2     4    1
    16     5     4    1
