@<TRIPOS>MOLECULE
/home/cewinharhar/GITHUB/reincatalyze/data/processed/docking_pred/2023-May-17-1006_maxeplen10_maxtrainstep1000_seadep16_gamma099_lrac9e-4_lrcr1e-3_sub6/6b061a7890d75c8b26c884693b3b8f9ee5a9c423_ligand_6.pdbqt
 15 16 0 0 0
SMALL
GASTEIGER

@<TRIPOS>ATOM
      1  C          8.2930   -0.1860   -2.8100 C.3     1  UNL1        0.1270
      2  C          8.5050   -1.6090   -3.0200 C.2     1  UNL1        0.3030
      3  O          9.5890   -2.1910   -2.9460 O.2     1  UNL1       -0.2520
      4  O          7.3810   -2.3890   -3.3340 O.3     1  UNL1       -0.4810
      5  H          6.6050   -1.9020   -3.7550 H       1  UNL1        0.2960
      6  C          8.7240    0.2950   -1.4800 C.3     1  UNL1        0.0470
      7  C          7.7580    0.2090   -0.3830 C.2     1  UNL1       -0.0430
      8  C          7.7550   -0.8620    0.4980 C.2     1  UNL1        0.0080
      9  C          6.7980    1.1720   -0.2170 C.2     1  UNL1        0.0540
     10  C          6.8240   -0.9630    1.5080 C.2     1  UNL1        0.0510
     11  C          5.8550    1.0930    0.7900 C.2     1  UNL1        0.1660
     12  C          5.8650    0.0260    1.6560 C.2     1  UNL1        0.1650
     13  O          4.8120    1.9320    1.1410 O.2     1  UNL1       -0.4540
     14  O          4.8090    0.2210    2.5480 O.2     1  UNL1       -0.4540
     15  C          3.9570    1.2290    2.0550 C.3     1  UNL1        0.4680
@<TRIPOS>BOND
     1     5     4    1
     2     4     2    1
     3     2     3    2
     4     2     1    1
     5     1     6    1
     6     6     7    1
     7     7     9    2
     8     7     8    1
     9     9    11    1
    10     8    10    2
    11    11    13    1
    12    11    12    2
    13    13    15    1
    14    10    12    1
    15    12    14    1
    16    15    14    1
