@<TRIPOS>MOLECULE
/home/cewinharhar/GITHUB/reincatalyze/data/processed/docking_pred/2023-May-17-1006_maxeplen10_maxtrainstep1000_seadep16_gamma099_lrac9e-4_lrcr1e-3_sub6/6b061a7890d75c8b26c884693b3b8f9ee5a9c423_ligand_6.pdbqt
 15 16 0 0 0
SMALL
GASTEIGER

@<TRIPOS>ATOM
      1  C          6.4160    1.3160    0.7010 C.3     1  UNL1        0.1270
      2  C          5.1830    1.3250    1.4730 C.2     1  UNL1        0.3030
      3  O          4.2540    2.1220    1.3320 O.2     1  UNL1       -0.2520
      4  O          5.0380    0.3430    2.4650 O.3     1  UNL1       -0.4810
      5  H          4.2960    0.4900    3.1320 H       1  UNL1        0.2960
      6  C          6.2450    0.8620   -0.6960 C.3     1  UNL1        0.0470
      7  C          6.9910   -0.3250   -1.1190 C.2     1  UNL1       -0.0430
      8  C          7.2890   -0.5560   -2.4530 C.2     1  UNL1        0.0080
      9  C          7.3860   -1.2660   -0.2060 C.2     1  UNL1        0.0540
     10  C          7.9590   -1.6900   -2.8560 C.2     1  UNL1        0.0510
     11  C          8.0600   -2.4110   -0.5870 C.2     1  UNL1        0.1660
     12  C          8.3490   -2.6270   -1.9120 C.2     1  UNL1        0.1650
     13  O          8.5460   -3.4780    0.1480 O.2     1  UNL1       -0.4540
     14  O          9.0230   -3.8470   -1.9840 O.2     1  UNL1       -0.4540
     15  C          8.8800   -4.5360   -0.7630 C.3     1  UNL1        0.4680
@<TRIPOS>BOND
     1    10     8    1
     2    10    12    2
     3     8     7    2
     4    14    12    1
     5    14    15    1
     6    12    11    1
     7     7     6    1
     8     7     9    1
     9    15    13    1
    10     6     1    1
    11    11     9    2
    12    11    13    1
    13     1     2    1
    14     3     2    2
    15     2     4    1
    16     4     5    1
