MODEL 1
REMARK VINA RESULT:      -7.6      0.000      0.000
REMARK SMILES O=C(O)CCc1ccc2c(c1)OCO2
REMARK SMILES IDX 4 1 2 2 1 3 3 4 5 6 6 7 7 8 11 9 8 10 10 11 9 12 12 13 14 14
REMARK SMILES IDX 13 15
REMARK H PARENT 3 5
REMARK Flexibility Score: inf
ROOT
ATOM      1  C   UNL     1       5.420   2.875   0.137  1.00  0.00     0.127 C 
ENDROOT
BRANCH   1   2
ATOM      2  C   UNL     1       6.336   3.793   0.796  1.00  0.00     0.303 C 
ATOM      3  O   UNL     1       6.867   4.775   0.274  1.00  0.00    -0.252 OA
BRANCH   2   4
ATOM      4  O   UNL     1       6.642   3.541   2.143  1.00  0.00    -0.481 OA
ATOM      5  H   UNL     1       6.198   4.142   2.820  1.00  0.00     0.296 HD
ENDBRANCH   2   4
ENDBRANCH   1   2
BRANCH   1   6
ATOM      6  C   UNL     1       5.306   1.560   0.802  1.00  0.00     0.047 C 
BRANCH   6   7
ATOM      7  C   UNL     1       6.079   0.449   0.244  1.00  0.00    -0.043 A 
ATOM      8  C   UNL     1       6.517  -0.600   1.038  1.00  0.00     0.008 A 
ATOM      9  C   UNL     1       6.427   0.434  -1.081  1.00  0.00     0.054 A 
ATOM     10  C   UNL     1       7.275  -1.627   0.521  1.00  0.00     0.051 A 
ATOM     11  C   UNL     1       7.186  -0.587  -1.621  1.00  0.00     0.166 A 
ATOM     12  C   UNL     1       7.613  -1.620  -0.823  1.00  0.00     0.165 A 
ATOM     13  O   UNL     1       7.648  -0.806  -2.907  1.00  0.00    -0.454 OA
ATOM     14  O   UNL     1       8.347  -2.483  -1.638  1.00  0.00    -0.454 OA
ATOM     15  C   UNL     1       8.643  -1.840  -2.857  1.00  0.00     0.468 C 
ENDBRANCH   6   7
ENDBRANCH   1   6
TORSDOF 4
ENDMDL
MODEL 2
REMARK VINA RESULT:      -7.6      2.115      2.545
REMARK SMILES O=C(O)CCc1ccc2c(c1)OCO2
REMARK SMILES IDX 4 1 2 2 1 3 3 4 5 6 6 7 7 8 11 9 8 10 10 11 9 12 12 13 14 14
REMARK SMILES IDX 13 15
REMARK H PARENT 3 5
REMARK Flexibility Score: inf
ROOT
ATOM      1  C   UNL     1       4.703   1.886   0.680  1.00  0.00     0.127 C 
ENDROOT
BRANCH   1   2
ATOM      2  C   UNL     1       4.405   1.173   1.912  1.00  0.00     0.303 C 
ATOM      3  O   UNL     1       5.139   0.347   2.458  1.00  0.00    -0.252 OA
BRANCH   2   4
ATOM      4  O   UNL     1       3.178   1.448   2.535  1.00  0.00    -0.481 OA
ATOM      5  H   UNL     1       2.652   0.649   2.855  1.00  0.00     0.296 HD
ENDBRANCH   2   4
ENDBRANCH   1   2
BRANCH   1   6
ATOM      6  C   UNL     1       6.129   2.247   0.525  1.00  0.00     0.047 C 
BRANCH   6   7
ATOM      7  C   UNL     1       6.978   1.337  -0.246  1.00  0.00    -0.043 A 
ATOM      8  C   UNL     1       8.340   1.556  -0.381  1.00  0.00     0.008 A 
ATOM      9  C   UNL     1       6.440   0.256  -0.893  1.00  0.00     0.054 A 
ATOM     10  C   UNL     1       9.134   0.721  -1.135  1.00  0.00     0.051 A 
ATOM     11  C   UNL     1       7.217  -0.596  -1.654  1.00  0.00     0.166 A 
ATOM     12  C   UNL     1       8.566  -0.366  -1.778  1.00  0.00     0.165 A 
ATOM     13  O   UNL     1       6.896  -1.728  -2.382  1.00  0.00    -0.454 OA
ATOM     14  O   UNL     1       9.073  -1.378  -2.596  1.00  0.00    -0.454 OA
ATOM     15  C   UNL     1       8.009  -2.047  -3.232  1.00  0.00     0.468 C 
ENDBRANCH   6   7
ENDBRANCH   1   6
TORSDOF 4
ENDMDL
MODEL 3
REMARK VINA RESULT:      -7.5      1.972      2.866
REMARK SMILES O=C(O)CCc1ccc2c(c1)OCO2
REMARK SMILES IDX 4 1 2 2 1 3 3 4 5 6 6 7 7 8 11 9 8 10 10 11 9 12 12 13 14 14
REMARK SMILES IDX 13 15
REMARK H PARENT 3 5
REMARK Flexibility Score: inf
ROOT
ATOM      1  C   UNL     1       6.416   1.316   0.701  1.00  0.00     0.127 C 
ENDROOT
BRANCH   1   2
ATOM      2  C   UNL     1       5.183   1.325   1.473  1.00  0.00     0.303 C 
ATOM      3  O   UNL     1       4.254   2.122   1.332  1.00  0.00    -0.252 OA
BRANCH   2   4
ATOM      4  O   UNL     1       5.038   0.343   2.465  1.00  0.00    -0.481 OA
ATOM      5  H   UNL     1       4.296   0.490   3.132  1.00  0.00     0.296 HD
ENDBRANCH   2   4
ENDBRANCH   1   2
BRANCH   1   6
ATOM      6  C   UNL     1       6.245   0.862  -0.696  1.00  0.00     0.047 C 
BRANCH   6   7
ATOM      7  C   UNL     1       6.991  -0.325  -1.119  1.00  0.00    -0.043 A 
ATOM      8  C   UNL     1       7.289  -0.556  -2.453  1.00  0.00     0.008 A 
ATOM      9  C   UNL     1       7.386  -1.266  -0.206  1.00  0.00     0.054 A 
ATOM     10  C   UNL     1       7.959  -1.690  -2.856  1.00  0.00     0.051 A 
ATOM     11  C   UNL     1       8.060  -2.411  -0.587  1.00  0.00     0.166 A 
ATOM     12  C   UNL     1       8.349  -2.627  -1.912  1.00  0.00     0.165 A 
ATOM     13  O   UNL     1       8.546  -3.478   0.148  1.00  0.00    -0.454 OA
ATOM     14  O   UNL     1       9.023  -3.847  -1.984  1.00  0.00    -0.454 OA
ATOM     15  C   UNL     1       8.880  -4.536  -0.763  1.00  0.00     0.468 C 
ENDBRANCH   6   7
ENDBRANCH   1   6
TORSDOF 4
ENDMDL
MODEL 4
REMARK VINA RESULT:      -7.4      1.819      5.214
REMARK SMILES O=C(O)CCc1ccc2c(c1)OCO2
REMARK SMILES IDX 4 1 2 2 1 3 3 4 5 6 6 7 7 8 11 9 8 10 10 11 9 12 12 13 14 14
REMARK SMILES IDX 13 15
REMARK H PARENT 3 5
REMARK Flexibility Score: inf
ROOT
ATOM      1  C   UNL     1       8.293  -0.186  -2.810  1.00  0.00     0.127 C 
ENDROOT
BRANCH   1   2
ATOM      2  C   UNL     1       8.505  -1.609  -3.020  1.00  0.00     0.303 C 
ATOM      3  O   UNL     1       9.589  -2.191  -2.946  1.00  0.00    -0.252 OA
BRANCH   2   4
ATOM      4  O   UNL     1       7.381  -2.389  -3.334  1.00  0.00    -0.481 OA
ATOM      5  H   UNL     1       6.605  -1.902  -3.755  1.00  0.00     0.296 HD
ENDBRANCH   2   4
ENDBRANCH   1   2
BRANCH   1   6
ATOM      6  C   UNL     1       8.724   0.295  -1.480  1.00  0.00     0.047 C 
BRANCH   6   7
ATOM      7  C   UNL     1       7.758   0.209  -0.383  1.00  0.00    -0.043 A 
ATOM      8  C   UNL     1       7.755  -0.862   0.498  1.00  0.00     0.008 A 
ATOM      9  C   UNL     1       6.798   1.172  -0.217  1.00  0.00     0.054 A 
ATOM     10  C   UNL     1       6.824  -0.963   1.508  1.00  0.00     0.051 A 
ATOM     11  C   UNL     1       5.855   1.093   0.790  1.00  0.00     0.166 A 
ATOM     12  C   UNL     1       5.865   0.026   1.656  1.00  0.00     0.165 A 
ATOM     13  O   UNL     1       4.812   1.932   1.141  1.00  0.00    -0.454 OA
ATOM     14  O   UNL     1       4.809   0.221   2.548  1.00  0.00    -0.454 OA
ATOM     15  C   UNL     1       3.957   1.229   2.055  1.00  0.00     0.468 C 
ENDBRANCH   6   7
ENDBRANCH   1   6
TORSDOF 4
ENDMDL
MODEL 5
REMARK VINA RESULT:      -7.3      0.959      2.104
REMARK SMILES O=C(O)CCc1ccc2c(c1)OCO2
REMARK SMILES IDX 4 1 2 2 1 3 3 4 5 6 6 7 7 8 11 9 8 10 10 11 9 12 12 13 14 14
REMARK SMILES IDX 13 15
REMARK H PARENT 3 5
REMARK Flexibility Score: inf
ROOT
ATOM      1  C   UNL     1       5.403   2.822   0.116  1.00  0.00     0.127 C 
ENDROOT
BRANCH   1   2
ATOM      2  C   UNL     1       6.110   3.865   0.842  1.00  0.00     0.303 C 
ATOM      3  O   UNL     1       6.101   4.020   2.065  1.00  0.00    -0.252 OA
BRANCH   2   4
ATOM      4  O   UNL     1       6.868   4.775   0.089  1.00  0.00    -0.481 OA
ATOM      5  H   UNL     1       7.123   5.634   0.552  1.00  0.00     0.296 HD
ENDBRANCH   2   4
ENDBRANCH   1   2
BRANCH   1   6
ATOM      6  C   UNL     1       5.438   1.501   0.778  1.00  0.00     0.047 C 
BRANCH   6   7
ATOM      7  C   UNL     1       6.263   0.458   0.165  1.00  0.00    -0.043 A 
ATOM      8  C   UNL     1       6.528   0.449  -1.196  1.00  0.00     0.008 A 
ATOM      9  C   UNL     1       6.768  -0.569   0.919  1.00  0.00     0.054 A 
ATOM     10  C   UNL     1       7.274  -0.551  -1.779  1.00  0.00     0.051 A 
ATOM     11  C   UNL     1       7.520  -1.582   0.355  1.00  0.00     0.166 A 
ATOM     12  C   UNL     1       7.775  -1.577  -0.995  1.00  0.00     0.165 A 
ATOM     13  O   UNL     1       8.121  -2.698   0.911  1.00  0.00    -0.454 OA
ATOM     14  O   UNL     1       8.545  -2.710  -1.264  1.00  0.00    -0.454 OA
ATOM     15  C   UNL     1       8.506  -3.579  -0.156  1.00  0.00     0.468 C 
ENDBRANCH   6   7
ENDBRANCH   1   6
TORSDOF 4
ENDMDL
