@<TRIPOS>MOLECULE
/home/cewinharhar/GITHUB/reincatalyze/data/processed/docking_pred/2023-May-17-1006_maxeplen10_maxtrainstep1000_seadep16_gamma099_lrac9e-4_lrcr1e-3_sub6/6b061a7890d75c8b26c884693b3b8f9ee5a9c423_ligand_6.pdbqt
 15 16 0 0 0
SMALL
GASTEIGER

@<TRIPOS>ATOM
      1  C          5.4030    2.8220    0.1160 C.3     1  UNL1        0.1270
      2  C          6.1100    3.8650    0.8420 C.2     1  UNL1        0.3030
      3  O          6.1010    4.0200    2.0650 O.2     1  UNL1       -0.2520
      4  O          6.8680    4.7750    0.0890 O.3     1  UNL1       -0.4810
      5  H          7.1230    5.6340    0.5520 H       1  UNL1        0.2960
      6  C          5.4380    1.5010    0.7780 C.3     1  UNL1        0.0470
      7  C          6.2630    0.4580    0.1650 C.2     1  UNL1       -0.0430
      8  C          6.5280    0.4490   -1.1960 C.2     1  UNL1        0.0080
      9  C          6.7680   -0.5690    0.9190 C.2     1  UNL1        0.0540
     10  C          7.2740   -0.5510   -1.7790 C.2     1  UNL1        0.0510
     11  C          7.5200   -1.5820    0.3550 C.2     1  UNL1        0.1660
     12  C          7.7750   -1.5770   -0.9950 C.2     1  UNL1        0.1650
     13  O          8.1210   -2.6980    0.9110 O.2     1  UNL1       -0.4540
     14  O          8.5450   -2.7100   -1.2640 O.2     1  UNL1       -0.4540
     15  C          8.5060   -3.5790   -0.1560 C.3     1  UNL1        0.4680
@<TRIPOS>BOND
     1    10     8    1
     2    10    12    2
     3    14    12    1
     4    14    15    1
     5     8     7    2
     6    12    11    1
     7    15    13    1
     8     4     5    1
     9     4     2    1
    10     1     6    1
    11     1     2    1
    12     7     6    1
    13     7     9    1
    14    11    13    1
    15    11     9    2
    16     2     3    2
