@<TRIPOS>MOLECULE
/home/cewinharhar/GITHUB/reincatalyze/data/processed/docking_pred/2023-May-17-1006_maxeplen10_maxtrainstep1000_seadep16_gamma099_lrac9e-4_lrcr1e-3_sub6/6b061a7890d75c8b26c884693b3b8f9ee5a9c423_ligand_6.pdbqt
 15 16 0 0 0
SMALL
GASTEIGER

@<TRIPOS>ATOM
      1  C          4.7030    1.8860    0.6800 C.3     1  UNL1        0.1270
      2  C          4.4050    1.1730    1.9120 C.2     1  UNL1        0.3030
      3  O          5.1390    0.3470    2.4580 O.2     1  UNL1       -0.2520
      4  O          3.1780    1.4480    2.5350 O.3     1  UNL1       -0.4810
      5  H          2.6520    0.6490    2.8550 H       1  UNL1        0.2960
      6  C          6.1290    2.2470    0.5250 C.3     1  UNL1        0.0470
      7  C          6.9780    1.3370   -0.2460 C.2     1  UNL1       -0.0430
      8  C          8.3400    1.5560   -0.3810 C.2     1  UNL1        0.0080
      9  C          6.4400    0.2560   -0.8930 C.2     1  UNL1        0.0540
     10  C          9.1340    0.7210   -1.1350 C.2     1  UNL1        0.0510
     11  C          7.2170   -0.5960   -1.6540 C.2     1  UNL1        0.1660
     12  C          8.5660   -0.3660   -1.7780 C.2     1  UNL1        0.1650
     13  O          6.8960   -1.7280   -2.3820 O.2     1  UNL1       -0.4540
     14  O          9.0730   -1.3780   -2.5960 O.2     1  UNL1       -0.4540
     15  C          8.0090   -2.0470   -3.2320 C.3     1  UNL1        0.4680
@<TRIPOS>BOND
     1    15    14    1
     2    15    13    1
     3    14    12    1
     4    13    11    1
     5    12    11    2
     6    12    10    1
     7    11     9    1
     8    10     8    2
     9     9     7    2
    10     8     7    1
    11     7     6    1
    12     6     1    1
    13     1     2    1
    14     2     3    2
    15     2     4    1
    16     4     5    1
