@<TRIPOS>MOLECULE
/home/cewinharhar/GITHUB/reincatalyze/data/processed/docking_pred/2023-May-17-1006_maxeplen10_maxtrainstep1000_seadep16_gamma099_lrac9e-4_lrcr1e-3_sub6/6b061a7890d75c8b26c884693b3b8f9ee5a9c423_ligand_6.pdbqt
 15 16 0 0 0
SMALL
GASTEIGER

@<TRIPOS>ATOM
      1  C          5.4200    2.8750    0.1370 C.3     1  UNL1        0.1270
      2  C          6.3360    3.7930    0.7960 C.2     1  UNL1        0.3030
      3  O          6.8670    4.7750    0.2740 O.2     1  UNL1       -0.2520
      4  O          6.6420    3.5410    2.1430 O.3     1  UNL1       -0.4810
      5  H          6.1980    4.1420    2.8200 H       1  UNL1        0.2960
      6  C          5.3060    1.5600    0.8020 C.3     1  UNL1        0.0470
      7  C          6.0790    0.4490    0.2440 C.2     1  UNL1       -0.0430
      8  C          6.5170   -0.6000    1.0380 C.2     1  UNL1        0.0080
      9  C          6.4270    0.4340   -1.0810 C.2     1  UNL1        0.0540
     10  C          7.2750   -1.6270    0.5210 C.2     1  UNL1        0.0510
     11  C          7.1860   -0.5870   -1.6210 C.2     1  UNL1        0.1660
     12  C          7.6130   -1.6200   -0.8230 C.2     1  UNL1        0.1650
     13  O          7.6480   -0.8060   -2.9070 O.2     1  UNL1       -0.4540
     14  O          8.3470   -2.4830   -1.6380 O.2     1  UNL1       -0.4540
     15  C          8.6430   -1.8400   -2.8570 C.3     1  UNL1        0.4680
@<TRIPOS>BOND
     1    13    15    1
     2    13    11    1
     3    15    14    1
     4    14    12    1
     5    11     9    1
     6    11    12    2
     7     9     7    2
     8    12    10    1
     9     1     2    1
    10     1     6    1
    11     7     6    1
    12     7     8    1
    13     3     2    2
    14    10     8    2
    15     2     4    1
    16     4     5    1
