@<TRIPOS>MOLECULE
/home/cewinharhar/GITHUB/reincatalyze/data/processed/docking_pred/2023-May-17-1006_maxeplen10_maxtrainstep1000_seadep16_gamma099_lrac9e-4_lrcr1e-3_sub6/6b66a19e3843729fbb18dde59d8ef2ce5f9236cc_ligand_6.pdbqt
 15 16 0 0 0
SMALL
GASTEIGER

@<TRIPOS>ATOM
      1  C          4.7060    1.8870    0.6780 C.3     1  UNL1        0.1270
      2  C          4.3890    1.1800    1.9100 C.2     1  UNL1        0.3030
      3  O          5.1060    0.3410    2.4590 O.2     1  UNL1       -0.2520
      4  O          3.1640    1.4760    2.5260 O.3     1  UNL1       -0.4810
      5  H          3.1990    2.1260    3.2970 H       1  UNL1        0.2960
      6  C          6.1340    2.2450    0.5420 C.3     1  UNL1        0.0470
      7  C          6.9870    1.3440   -0.2360 C.2     1  UNL1       -0.0430
      8  C          8.3450    1.5800   -0.3830 C.2     1  UNL1        0.0080
      9  C          6.4560    0.2560   -0.8760 C.2     1  UNL1        0.0540
     10  C          9.1420    0.7530   -1.1440 C.2     1  UNL1        0.0510
     11  C          7.2360   -0.5870   -1.6440 C.2     1  UNL1        0.1660
     12  C          8.5810   -0.3420   -1.7810 C.2     1  UNL1        0.1650
     13  O          6.9220   -1.7240   -2.3680 O.2     1  UNL1       -0.4540
     14  O          9.0930   -1.3480   -2.6020 O.2     1  UNL1       -0.4540
     15  C          8.0310   -2.0300   -3.2270 C.3     1  UNL1        0.4680
@<TRIPOS>BOND
     1    15    14    1
     2    15    13    1
     3    14    12    1
     4    13    11    1
     5    12    11    2
     6    12    10    1
     7    11     9    1
     8    10     8    2
     9     9     7    2
    10     8     7    1
    11     7     6    1
    12     6     1    1
    13     1     2    1
    14     2     3    2
    15     2     4    1
    16     4     5    1
