@<TRIPOS>MOLECULE
/home/cewinharhar/GITHUB/reincatalyze/data/processed/docking_pred/2023-May-17-1006_maxeplen10_maxtrainstep1000_seadep16_gamma099_lrac9e-4_lrcr1e-3_sub6/6b66a19e3843729fbb18dde59d8ef2ce5f9236cc_ligand_6.pdbqt
 15 16 0 0 0
SMALL
GASTEIGER

@<TRIPOS>ATOM
      1  C          8.3040   -0.3250   -2.8510 C.3     1  UNL1        0.1270
      2  C          8.4670   -1.7530   -3.0730 C.2     1  UNL1        0.3030
      3  O          9.5350   -2.3670   -3.0370 O.2     1  UNL1       -0.2520
      4  O          7.3100   -2.4980   -3.3520 O.3     1  UNL1       -0.4810
      5  H          6.7970   -2.2300   -4.1770 H       1  UNL1        0.2960
      6  C          8.7630    0.1320   -1.5220 C.3     1  UNL1        0.0470
      7  C          7.7980    0.0940   -0.4210 C.2     1  UNL1       -0.0430
      8  C          7.7570   -0.9670    0.4700 C.2     1  UNL1        0.0080
      9  C          6.8750    1.0930   -0.2650 C.2     1  UNL1        0.0540
     10  C          6.8260   -1.0230    1.4830 C.2     1  UNL1        0.0510
     11  C          5.9310    1.0590    0.7450 C.2     1  UNL1        0.1660
     12  C          5.9040    0.0020    1.6220 C.2     1  UNL1        0.1650
     13  O          4.9210    1.9410    1.0890 O.2     1  UNL1       -0.4540
     14  O          4.8580    0.2460    2.5140 O.2     1  UNL1       -0.4540
     15  C          4.0430    1.2800    2.0130 C.3     1  UNL1        0.4680
@<TRIPOS>BOND
     1     5     4    1
     2     4     2    1
     3     2     3    2
     4     2     1    1
     5     1     6    1
     6     6     7    1
     7     7     9    2
     8     7     8    1
     9     9    11    1
    10     8    10    2
    11    11    13    1
    12    11    12    2
    13    13    15    1
    14    10    12    1
    15    12    14    1
    16    15    14    1
