@<TRIPOS>MOLECULE
/home/cewinharhar/GITHUB/reincatalyze/data/processed/docking_pred/2023-May-17-1006_maxeplen10_maxtrainstep1000_seadep16_gamma099_lrac9e-4_lrcr1e-3_sub6/6b66a19e3843729fbb18dde59d8ef2ce5f9236cc_ligand_6.pdbqt
 15 16 0 0 0
SMALL
GASTEIGER

@<TRIPOS>ATOM
      1  C          5.6750    2.6070    0.4220 C.3     1  UNL1        0.1270
      2  C          6.2210    3.8030    1.0450 C.2     1  UNL1        0.3030
      3  O          6.1990    4.0570    2.2500 O.2     1  UNL1       -0.2520
      4  O          6.8230    4.7500    0.2020 O.3     1  UNL1       -0.4810
      5  H          6.2890    5.5850    0.0180 H       1  UNL1        0.2960
      6  C          6.0310    1.3520    1.1190 C.3     1  UNL1        0.0470
      7  C          6.6380    0.2840    0.3220 C.2     1  UNL1       -0.0430
      8  C          6.5200    0.2530   -1.0590 C.2     1  UNL1        0.0080
      9  C          7.3130   -0.7440    0.9270 C.2     1  UNL1        0.0540
     10  C          7.0600   -0.7700   -1.8060 C.2     1  UNL1        0.0510
     11  C          7.8640   -1.7800    0.1970 C.2     1  UNL1        0.1660
     12  C          7.7390   -1.7970   -1.1710 C.2     1  UNL1        0.1650
     13  O          8.5740   -2.9020    0.5860 O.2     1  UNL1       -0.4540
     14  O          8.3860   -2.9500   -1.6200 O.2     1  UNL1       -0.4540
     15  C          8.6370   -3.8040   -0.5280 C.3     1  UNL1        0.4680
@<TRIPOS>BOND
     1    10    12    2
     2    10     8    1
     3    14    12    1
     4    14    15    1
     5    12    11    1
     6     8     7    2
     7    15    13    1
     8     5     4    1
     9    11    13    1
    10    11     9    2
    11     4     2    1
    12     7     9    1
    13     7     6    1
    14     1     2    1
    15     1     6    1
    16     2     3    2
