@<TRIPOS>MOLECULE
/home/cewinharhar/GITHUB/reincatalyze/data/processed/docking_pred/2023-May-17-1006_maxeplen10_maxtrainstep1000_seadep16_gamma099_lrac9e-4_lrcr1e-3_sub6/6b66a19e3843729fbb18dde59d8ef2ce5f9236cc_ligand_6.pdbqt
 15 16 0 0 0
SMALL
GASTEIGER

@<TRIPOS>ATOM
      1  C          6.4660    1.3020    0.7390 C.3     1  UNL1        0.1270
      2  C          5.2740    1.1820    1.5640 C.2     1  UNL1        0.3030
      3  O          5.0860    0.3280    2.4320 O.2     1  UNL1       -0.2520
      4  O          4.2480    2.1180    1.3550 O.3     1  UNL1       -0.4810
      5  H          3.4500    2.0470    1.9670 H       1  UNL1        0.2960
      6  C          6.2700    0.8780   -0.6640 C.3     1  UNL1        0.0470
      7  C          7.0070   -0.3020   -1.1230 C.2     1  UNL1       -0.0430
      8  C          7.2710   -0.5120   -2.4680 C.2     1  UNL1        0.0080
      9  C          7.4240   -1.2570   -0.2350 C.2     1  UNL1        0.0540
     10  C          7.9320   -1.6390   -2.9050 C.2     1  UNL1        0.0510
     11  C          8.0890   -2.3950   -0.6500 C.2     1  UNL1        0.1660
     12  C          8.3460   -2.5900   -1.9860 C.2     1  UNL1        0.1650
     13  O          8.5950   -3.4730    0.0550 O.2     1  UNL1       -0.4540
     14  O          9.0190   -3.8080   -2.0930 O.2     1  UNL1       -0.4540
     15  C          8.9060   -4.5160   -0.8800 C.3     1  UNL1        0.4680
@<TRIPOS>BOND
     1    10     8    1
     2    10    12    2
     3     8     7    2
     4    14    12    1
     5    14    15    1
     6    12    11    1
     7     7     6    1
     8     7     9    1
     9    15    13    1
    10     6     1    1
    11    11     9    2
    12    11    13    1
    13     1     2    1
    14     4     2    1
    15     4     5    1
    16     2     3    2
