@<TRIPOS>MOLECULE
/home/cewinharhar/GITHUB/reincatalyze/data/processed/docking_pred/2023-May-17-1006_maxeplen10_maxtrainstep1000_seadep16_gamma099_lrac9e-4_lrcr1e-3_sub6/6b66a19e3843729fbb18dde59d8ef2ce5f9236cc_ligand_6.pdbqt
 15 16 0 0 0
SMALL
GASTEIGER

@<TRIPOS>ATOM
      1  C          5.4490    2.8650    0.1220 C.3     1  UNL1        0.1270
      2  C          6.2490    3.8790    0.7910 C.2     1  UNL1        0.3030
      3  O          6.9390    4.7330    0.2310 O.2     1  UNL1       -0.2520
      4  O          6.2360    3.8880    2.1950 O.3     1  UNL1       -0.4810
      5  H          6.9040    3.2860    2.6500 H       1  UNL1        0.2960
      6  C          5.4120    1.5670    0.8290 C.3     1  UNL1        0.0470
      7  C          6.1660    0.4560    0.2450 C.2     1  UNL1       -0.0430
      8  C          6.5900   -0.6160    1.0150 C.2     1  UNL1        0.0080
      9  C          6.5080    0.4630   -1.0810 C.2     1  UNL1        0.0540
     10  C          7.3300   -1.6440    0.4740 C.2     1  UNL1        0.0510
     11  C          7.2490   -0.5590   -1.6460 C.2     1  UNL1        0.1660
     12  C          7.6620   -1.6150   -0.8710 C.2     1  UNL1        0.1650
     13  O          7.7030   -0.7590   -2.9380 O.2     1  UNL1       -0.4540
     14  O          8.3800   -2.4720   -1.7070 O.2     1  UNL1       -0.4540
     15  C          8.6810   -1.8090   -2.9130 C.3     1  UNL1        0.4680
@<TRIPOS>BOND
     1    13    15    1
     2    13    11    1
     3    15    14    1
     4    14    12    1
     5    11     9    1
     6    11    12    2
     7     9     7    2
     8    12    10    1
     9     1     2    1
    10     1     6    1
    11     3     2    2
    12     7     6    1
    13     7     8    1
    14    10     8    2
    15     2     4    1
    16     4     5    1
