MODEL 1
REMARK VINA RESULT:      -7.6      0.000      0.000
REMARK SMILES O=C(O)CCc1ccc2c(c1)OCO2
REMARK SMILES IDX 4 1 2 2 1 3 3 4 5 6 6 7 7 8 11 9 8 10 10 11 9 12 12 13 14 14
REMARK SMILES IDX 13 15
REMARK H PARENT 3 5
REMARK Flexibility Score: inf
ROOT
ATOM      1  C   UNL     1       5.449   2.865   0.122  1.00  0.00     0.127 C 
ENDROOT
BRANCH   1   2
ATOM      2  C   UNL     1       6.249   3.879   0.791  1.00  0.00     0.303 C 
ATOM      3  O   UNL     1       6.939   4.733   0.231  1.00  0.00    -0.252 OA
BRANCH   2   4
ATOM      4  O   UNL     1       6.236   3.888   2.195  1.00  0.00    -0.481 OA
ATOM      5  H   UNL     1       6.904   3.286   2.650  1.00  0.00     0.296 HD
ENDBRANCH   2   4
ENDBRANCH   1   2
BRANCH   1   6
ATOM      6  C   UNL     1       5.412   1.567   0.829  1.00  0.00     0.047 C 
BRANCH   6   7
ATOM      7  C   UNL     1       6.166   0.456   0.245  1.00  0.00    -0.043 A 
ATOM      8  C   UNL     1       6.590  -0.616   1.015  1.00  0.00     0.008 A 
ATOM      9  C   UNL     1       6.508   0.463  -1.081  1.00  0.00     0.054 A 
ATOM     10  C   UNL     1       7.330  -1.644   0.474  1.00  0.00     0.051 A 
ATOM     11  C   UNL     1       7.249  -0.559  -1.646  1.00  0.00     0.166 A 
ATOM     12  C   UNL     1       7.662  -1.615  -0.871  1.00  0.00     0.165 A 
ATOM     13  O   UNL     1       7.703  -0.759  -2.938  1.00  0.00    -0.454 OA
ATOM     14  O   UNL     1       8.380  -2.472  -1.707  1.00  0.00    -0.454 OA
ATOM     15  C   UNL     1       8.681  -1.809  -2.913  1.00  0.00     0.468 C 
ENDBRANCH   6   7
ENDBRANCH   1   6
TORSDOF 4
ENDMDL
MODEL 2
REMARK VINA RESULT:      -7.6      2.142      2.528
REMARK SMILES O=C(O)CCc1ccc2c(c1)OCO2
REMARK SMILES IDX 4 1 2 2 1 3 3 4 5 6 6 7 7 8 11 9 8 10 10 11 9 12 12 13 14 14
REMARK SMILES IDX 13 15
REMARK H PARENT 3 5
REMARK Flexibility Score: inf
ROOT
ATOM      1  C   UNL     1       4.706   1.887   0.678  1.00  0.00     0.127 C 
ENDROOT
BRANCH   1   2
ATOM      2  C   UNL     1       4.389   1.180   1.910  1.00  0.00     0.303 C 
ATOM      3  O   UNL     1       5.106   0.341   2.459  1.00  0.00    -0.252 OA
BRANCH   2   4
ATOM      4  O   UNL     1       3.164   1.476   2.526  1.00  0.00    -0.481 OA
ATOM      5  H   UNL     1       3.199   2.126   3.297  1.00  0.00     0.296 HD
ENDBRANCH   2   4
ENDBRANCH   1   2
BRANCH   1   6
ATOM      6  C   UNL     1       6.134   2.245   0.542  1.00  0.00     0.047 C 
BRANCH   6   7
ATOM      7  C   UNL     1       6.987   1.344  -0.236  1.00  0.00    -0.043 A 
ATOM      8  C   UNL     1       8.345   1.580  -0.383  1.00  0.00     0.008 A 
ATOM      9  C   UNL     1       6.456   0.256  -0.876  1.00  0.00     0.054 A 
ATOM     10  C   UNL     1       9.142   0.753  -1.144  1.00  0.00     0.051 A 
ATOM     11  C   UNL     1       7.236  -0.587  -1.644  1.00  0.00     0.166 A 
ATOM     12  C   UNL     1       8.581  -0.342  -1.781  1.00  0.00     0.165 A 
ATOM     13  O   UNL     1       6.922  -1.724  -2.368  1.00  0.00    -0.454 OA
ATOM     14  O   UNL     1       9.093  -1.348  -2.602  1.00  0.00    -0.454 OA
ATOM     15  C   UNL     1       8.031  -2.030  -3.227  1.00  0.00     0.468 C 
ENDBRANCH   6   7
ENDBRANCH   1   6
TORSDOF 4
ENDMDL
MODEL 3
REMARK VINA RESULT:      -7.5      1.808      5.292
REMARK SMILES O=C(O)CCc1ccc2c(c1)OCO2
REMARK SMILES IDX 4 1 2 2 1 3 3 4 5 6 6 7 7 8 11 9 8 10 10 11 9 12 12 13 14 14
REMARK SMILES IDX 13 15
REMARK H PARENT 3 5
REMARK Flexibility Score: inf
ROOT
ATOM      1  C   UNL     1       8.304  -0.325  -2.851  1.00  0.00     0.127 C 
ENDROOT
BRANCH   1   2
ATOM      2  C   UNL     1       8.467  -1.753  -3.073  1.00  0.00     0.303 C 
ATOM      3  O   UNL     1       9.535  -2.367  -3.037  1.00  0.00    -0.252 OA
BRANCH   2   4
ATOM      4  O   UNL     1       7.310  -2.498  -3.352  1.00  0.00    -0.481 OA
ATOM      5  H   UNL     1       6.797  -2.230  -4.177  1.00  0.00     0.296 HD
ENDBRANCH   2   4
ENDBRANCH   1   2
BRANCH   1   6
ATOM      6  C   UNL     1       8.763   0.132  -1.522  1.00  0.00     0.047 C 
BRANCH   6   7
ATOM      7  C   UNL     1       7.798   0.094  -0.421  1.00  0.00    -0.043 A 
ATOM      8  C   UNL     1       7.757  -0.967   0.470  1.00  0.00     0.008 A 
ATOM      9  C   UNL     1       6.875   1.093  -0.265  1.00  0.00     0.054 A 
ATOM     10  C   UNL     1       6.826  -1.023   1.483  1.00  0.00     0.051 A 
ATOM     11  C   UNL     1       5.931   1.059   0.745  1.00  0.00     0.166 A 
ATOM     12  C   UNL     1       5.904   0.002   1.622  1.00  0.00     0.165 A 
ATOM     13  O   UNL     1       4.921   1.941   1.089  1.00  0.00    -0.454 OA
ATOM     14  O   UNL     1       4.858   0.246   2.514  1.00  0.00    -0.454 OA
ATOM     15  C   UNL     1       4.043   1.280   2.013  1.00  0.00     0.468 C 
ENDBRANCH   6   7
ENDBRANCH   1   6
TORSDOF 4
ENDMDL
MODEL 4
REMARK VINA RESULT:      -7.5      1.978      2.956
REMARK SMILES O=C(O)CCc1ccc2c(c1)OCO2
REMARK SMILES IDX 4 1 2 2 1 3 3 4 5 6 6 7 7 8 11 9 8 10 10 11 9 12 12 13 14 14
REMARK SMILES IDX 13 15
REMARK H PARENT 3 5
REMARK Flexibility Score: inf
ROOT
ATOM      1  C   UNL     1       6.466   1.302   0.739  1.00  0.00     0.127 C 
ENDROOT
BRANCH   1   2
ATOM      2  C   UNL     1       5.274   1.182   1.564  1.00  0.00     0.303 C 
ATOM      3  O   UNL     1       5.086   0.328   2.432  1.00  0.00    -0.252 OA
BRANCH   2   4
ATOM      4  O   UNL     1       4.248   2.118   1.355  1.00  0.00    -0.481 OA
ATOM      5  H   UNL     1       3.450   2.047   1.967  1.00  0.00     0.296 HD
ENDBRANCH   2   4
ENDBRANCH   1   2
BRANCH   1   6
ATOM      6  C   UNL     1       6.270   0.878  -0.664  1.00  0.00     0.047 C 
BRANCH   6   7
ATOM      7  C   UNL     1       7.007  -0.302  -1.123  1.00  0.00    -0.043 A 
ATOM      8  C   UNL     1       7.271  -0.512  -2.468  1.00  0.00     0.008 A 
ATOM      9  C   UNL     1       7.424  -1.257  -0.235  1.00  0.00     0.054 A 
ATOM     10  C   UNL     1       7.932  -1.639  -2.905  1.00  0.00     0.051 A 
ATOM     11  C   UNL     1       8.089  -2.395  -0.650  1.00  0.00     0.166 A 
ATOM     12  C   UNL     1       8.346  -2.590  -1.986  1.00  0.00     0.165 A 
ATOM     13  O   UNL     1       8.595  -3.473   0.055  1.00  0.00    -0.454 OA
ATOM     14  O   UNL     1       9.019  -3.808  -2.093  1.00  0.00    -0.454 OA
ATOM     15  C   UNL     1       8.906  -4.516  -0.880  1.00  0.00     0.468 C 
ENDBRANCH   6   7
ENDBRANCH   1   6
TORSDOF 4
ENDMDL
MODEL 5
REMARK VINA RESULT:      -7.3      0.996      2.096
REMARK SMILES O=C(O)CCc1ccc2c(c1)OCO2
REMARK SMILES IDX 4 1 2 2 1 3 3 4 5 6 6 7 7 8 11 9 8 10 10 11 9 12 12 13 14 14
REMARK SMILES IDX 13 15
REMARK H PARENT 3 5
REMARK Flexibility Score: inf
ROOT
ATOM      1  C   UNL     1       5.675   2.607   0.422  1.00  0.00     0.127 C 
ENDROOT
BRANCH   1   2
ATOM      2  C   UNL     1       6.221   3.803   1.045  1.00  0.00     0.303 C 
ATOM      3  O   UNL     1       6.199   4.057   2.250  1.00  0.00    -0.252 OA
BRANCH   2   4
ATOM      4  O   UNL     1       6.823   4.750   0.202  1.00  0.00    -0.481 OA
ATOM      5  H   UNL     1       6.289   5.585   0.018  1.00  0.00     0.296 HD
ENDBRANCH   2   4
ENDBRANCH   1   2
BRANCH   1   6
ATOM      6  C   UNL     1       6.031   1.352   1.119  1.00  0.00     0.047 C 
BRANCH   6   7
ATOM      7  C   UNL     1       6.638   0.284   0.322  1.00  0.00    -0.043 A 
ATOM      8  C   UNL     1       6.520   0.253  -1.059  1.00  0.00     0.008 A 
ATOM      9  C   UNL     1       7.313  -0.744   0.927  1.00  0.00     0.054 A 
ATOM     10  C   UNL     1       7.060  -0.770  -1.806  1.00  0.00     0.051 A 
ATOM     11  C   UNL     1       7.864  -1.780   0.197  1.00  0.00     0.166 A 
ATOM     12  C   UNL     1       7.739  -1.797  -1.171  1.00  0.00     0.165 A 
ATOM     13  O   UNL     1       8.574  -2.902   0.586  1.00  0.00    -0.454 OA
ATOM     14  O   UNL     1       8.386  -2.950  -1.620  1.00  0.00    -0.454 OA
ATOM     15  C   UNL     1       8.637  -3.804  -0.528  1.00  0.00     0.468 C 
ENDBRANCH   6   7
ENDBRANCH   1   6
TORSDOF 4
ENDMDL
