@<TRIPOS>MOLECULE
/home/cewinharhar/GITHUB/reincatalyze/data/processed/docking_pred/2023-May-17-1006_maxeplen10_maxtrainstep1000_seadep16_gamma099_lrac9e-4_lrcr1e-3_sub6/6ceeb54199aca0c96a32aff90fdf9e1d9b8e1f8c_ligand_6.pdbqt
 15 16 0 0 0
SMALL
GASTEIGER

@<TRIPOS>ATOM
      1  C          6.4320    1.3430    0.6640 C.3     1  UNL1        0.1270
      2  C          5.1980    1.3380    1.4340 C.2     1  UNL1        0.3030
      3  O          4.2690    2.1380    1.3060 O.2     1  UNL1       -0.2520
      4  O          5.0490    0.3380    2.4080 O.3     1  UNL1       -0.4810
      5  H          5.3520    0.5760    3.3400 H       1  UNL1        0.2960
      6  C          6.2640    0.9180   -0.7410 C.3     1  UNL1        0.0470
      7  C          6.9930   -0.2740   -1.1800 C.2     1  UNL1       -0.0430
      8  C          7.2920   -0.4900   -2.5160 C.2     1  UNL1        0.0080
      9  C          7.3690   -1.2360   -0.2800 C.2     1  UNL1        0.0540
     10  C          7.9460   -1.6280   -2.9340 C.2     1  UNL1        0.0510
     11  C          8.0260   -2.3850   -0.6760 C.2     1  UNL1        0.1660
     12  C          8.3170   -2.5850   -2.0040 C.2     1  UNL1        0.1650
     13  O          8.4940   -3.4710    0.0430 O.2     1  UNL1       -0.4540
     14  O          8.9720   -3.8140   -2.0920 O.2     1  UNL1       -0.4540
     15  C          8.8140   -4.5200   -0.8830 C.3     1  UNL1        0.4680
@<TRIPOS>BOND
     1    10     8    1
     2    10    12    2
     3     8     7    2
     4    14    12    1
     5    14    15    1
     6    12    11    1
     7     7     6    1
     8     7     9    1
     9    15    13    1
    10     6     1    1
    11    11     9    2
    12    11    13    1
    13     1     2    1
    14     3     2    2
    15     2     4    1
    16     4     5    1
