@<TRIPOS>MOLECULE
/home/cewinharhar/GITHUB/reincatalyze/data/processed/docking_pred/2023-May-17-1006_maxeplen10_maxtrainstep1000_seadep16_gamma099_lrac9e-4_lrcr1e-3_sub6/6ceeb54199aca0c96a32aff90fdf9e1d9b8e1f8c_ligand_6.pdbqt
 15 16 0 0 0
SMALL
GASTEIGER

@<TRIPOS>ATOM
      1  C          5.5630    2.5810    0.0550 C.3     1  UNL1        0.1270
      2  C          6.1410    3.6600    0.8420 C.2     1  UNL1        0.3030
      3  O          6.1120    3.7460    2.0710 O.2     1  UNL1       -0.2520
      4  O          6.7860    4.6920    0.1430 O.3     1  UNL1       -0.4810
      5  H          7.3820    4.4090   -0.6190 H       1  UNL1        0.2960
      6  C          5.6660    1.2510    0.6940 C.3     1  UNL1        0.0470
      7  C          6.4290    0.2180   -0.0100 C.2     1  UNL1       -0.0430
      8  C          6.5270    0.2060   -1.3930 C.2     1  UNL1        0.0080
      9  C          7.0390   -0.7950    0.6810 C.2     1  UNL1        0.0540
     10  C          7.2140   -0.7850   -2.0590 C.2     1  UNL1        0.0510
     11  C          7.7330   -1.7990    0.0340 C.2     1  UNL1        0.1660
     12  C          7.8240   -1.7980   -1.3370 C.2     1  UNL1        0.1650
     13  O          8.4160   -2.9020    0.5170 O.2     1  UNL1       -0.4540
     14  O          8.5740   -2.9200   -1.6930 O.2     1  UNL1       -0.4540
     15  C          8.6840   -3.7830   -0.5850 C.3     1  UNL1        0.4680
@<TRIPOS>BOND
     1    10     8    1
     2    10    12    2
     3    14    12    1
     4    14    15    1
     5     8     7    2
     6    12    11    1
     7     5     4    1
     8    15    13    1
     9     7     9    1
    10     7     6    1
    11    11    13    1
    12    11     9    2
    13     1     6    1
    14     1     2    1
    15     4     2    1
    16     2     3    2
