@<TRIPOS>MOLECULE
/home/cewinharhar/GITHUB/reincatalyze/data/processed/docking_pred/2023-May-17-1006_maxeplen10_maxtrainstep1000_seadep16_gamma099_lrac9e-4_lrcr1e-3_sub6/6ceeb54199aca0c96a32aff90fdf9e1d9b8e1f8c_ligand_6.pdbqt
 15 16 0 0 0
SMALL
GASTEIGER

@<TRIPOS>ATOM
      1  C          5.4220    2.8810    0.1090 C.3     1  UNL1        0.1270
      2  C          6.2510    3.8560    0.7990 C.2     1  UNL1        0.3030
      3  O          6.8770    4.7730    0.2640 O.2     1  UNL1       -0.2520
      4  O          6.3480    3.7460    2.1950 O.3     1  UNL1       -0.4810
      5  H          6.7250    4.5450    2.6800 H       1  UNL1        0.2960
      6  C          5.3470    1.5690    0.7870 C.3     1  UNL1        0.0470
      7  C          6.1250    0.4670    0.2170 C.2     1  UNL1       -0.0430
      8  C          6.5820   -0.5800    1.0030 C.2     1  UNL1        0.0080
      9  C          6.4580    0.4580   -1.1110 C.2     1  UNL1        0.0540
     10  C          7.3440   -1.5980    0.4760 C.2     1  UNL1        0.0510
     11  C          7.2210   -0.5540   -1.6630 C.2     1  UNL1        0.1660
     12  C          7.6670   -1.5850   -0.8720 C.2     1  UNL1        0.1650
     13  O          7.6710   -0.7660   -2.9540 O.2     1  UNL1       -0.4540
     14  O          8.4000   -2.4390   -1.6980 O.2     1  UNL1       -0.4540
     15  C          8.6770   -1.7900   -2.9170 C.3     1  UNL1        0.4680
@<TRIPOS>BOND
     1    13    15    1
     2    13    11    1
     3    15    14    1
     4    14    12    1
     5    11     9    1
     6    11    12    2
     7     9     7    2
     8    12    10    1
     9     1     6    1
    10     1     2    1
    11     7     6    1
    12     7     8    1
    13     3     2    2
    14    10     8    2
    15     2     4    1
    16     4     5    1
