@<TRIPOS>MOLECULE
/home/cewinharhar/GITHUB/reincatalyze/data/processed/docking_pred/2023-May-17-1006_maxeplen10_maxtrainstep1000_seadep16_gamma099_lrac9e-4_lrcr1e-3_sub6/6ceeb54199aca0c96a32aff90fdf9e1d9b8e1f8c_ligand_6.pdbqt
 15 16 0 0 0
SMALL
GASTEIGER

@<TRIPOS>ATOM
      1  C          4.7010    1.8810    0.6790 C.3     1  UNL1        0.1270
      2  C          4.3950    1.1730    1.9130 C.2     1  UNL1        0.3030
      3  O          5.1210    0.3430    2.4620 O.2     1  UNL1       -0.2520
      4  O          3.1680    1.4590    2.5320 O.3     1  UNL1       -0.4810
      5  H          3.1590    1.4250    3.5400 H       1  UNL1        0.2960
      6  C          6.1280    2.2400    0.5320 C.3     1  UNL1        0.0470
      7  C          6.9790    1.3320   -0.2390 C.2     1  UNL1       -0.0430
      8  C          8.3400    1.5560   -0.3760 C.2     1  UNL1        0.0080
      9  C          6.4440    0.2480   -0.8830 C.2     1  UNL1        0.0540
     10  C          9.1360    0.7230   -1.1310 C.2     1  UNL1        0.0510
     11  C          7.2230   -0.6020   -1.6440 C.2     1  UNL1        0.1660
     12  C          8.5710   -0.3680   -1.7710 C.2     1  UNL1        0.1650
     13  O          6.9050   -1.7370   -2.3700 O.2     1  UNL1       -0.4540
     14  O          9.0810   -1.3780   -2.5880 O.2     1  UNL1       -0.4540
     15  C          8.0180   -2.0530   -3.2210 C.3     1  UNL1        0.4680
@<TRIPOS>BOND
     1    15    14    1
     2    15    13    1
     3    14    12    1
     4    13    11    1
     5    12    11    2
     6    12    10    1
     7    11     9    1
     8    10     8    2
     9     9     7    2
    10     8     7    1
    11     7     6    1
    12     6     1    1
    13     1     2    1
    14     2     3    2
    15     2     4    1
    16     4     5    1
