@<TRIPOS>MOLECULE
/home/cewinharhar/GITHUB/reincatalyze/data/processed/docking_pred/2023-May-17-1006_maxeplen10_maxtrainstep1000_seadep16_gamma099_lrac9e-4_lrcr1e-3_sub6/6ceeb54199aca0c96a32aff90fdf9e1d9b8e1f8c_ligand_6.pdbqt
 15 16 0 0 0
SMALL
GASTEIGER

@<TRIPOS>ATOM
      1  C          8.3020   -0.1870   -2.8140 C.3     1  UNL1        0.1270
      2  C          8.5050   -1.6150   -2.9960 C.2     1  UNL1        0.3030
      3  O          9.5860   -2.2020   -2.9180 O.2     1  UNL1       -0.2520
      4  O          7.3740   -2.3950   -3.2840 O.3     1  UNL1       -0.4810
      5  H          7.0830   -3.0400   -2.5650 H       1  UNL1        0.2960
      6  C          8.7330    0.3180   -1.4930 C.3     1  UNL1        0.0470
      7  C          7.7690    0.2450   -0.3930 C.2     1  UNL1       -0.0430
      8  C          7.7670   -0.8150    0.5000 C.2     1  UNL1        0.0080
      9  C          6.8110    1.2110   -0.2370 C.2     1  UNL1        0.0540
     10  C          6.8380   -0.9030    1.5130 C.2     1  UNL1        0.0510
     11  C          5.8690    1.1440    0.7720 C.2     1  UNL1        0.1660
     12  C          5.8790    0.0870    1.6500 C.2     1  UNL1        0.1650
     13  O          4.8270    1.9880    1.1150 O.2     1  UNL1       -0.4540
     14  O          4.8260    0.2940    2.5420 O.2     1  UNL1       -0.4540
     15  C          3.9740    1.2970    2.0390 C.3     1  UNL1        0.4680
@<TRIPOS>BOND
     1     4     2    1
     2     4     5    1
     3     2     3    2
     4     2     1    1
     5     1     6    1
     6     6     7    1
     7     7     9    2
     8     7     8    1
     9     9    11    1
    10     8    10    2
    11    11    13    1
    12    11    12    2
    13    13    15    1
    14    10    12    1
    15    12    14    1
    16    15    14    1
