@<TRIPOS>MOLECULE
/home/cewinharhar/GITHUB/reincatalyze/data/processed/docking_pred/2023-May-17-1006_maxeplen10_maxtrainstep1000_seadep16_gamma099_lrac9e-4_lrcr1e-3_sub6/6d158fe290fd5017d73aec191e5eef2bb245b649_ligand_6.pdbqt
 15 16 0 0 0
SMALL
GASTEIGER

@<TRIPOS>ATOM
      1  C          8.3120   -0.3190   -2.8390 C.3     1  UNL1        0.1270
      2  C          8.4700   -1.7470   -3.0660 C.2     1  UNL1        0.3030
      3  O          9.5360   -2.3650   -3.0340 O.2     1  UNL1       -0.2520
      4  O          7.3100   -2.4870   -3.3470 O.3     1  UNL1       -0.4810
      5  H          6.4910   -1.9530   -3.5940 H       1  UNL1        0.2960
      6  C          8.7660    0.1300   -1.5050 C.3     1  UNL1        0.0470
      7  C          7.7940    0.0940   -0.4110 C.2     1  UNL1       -0.0430
      8  C          7.7400   -0.9700    0.4770 C.2     1  UNL1        0.0080
      9  C          6.8770    1.0990   -0.2550 C.2     1  UNL1        0.0540
     10  C          6.8020   -1.0230    1.4840 C.2     1  UNL1        0.0510
     11  C          5.9270    1.0690    0.7480 C.2     1  UNL1        0.1660
     12  C          5.8870    0.0080    1.6210 C.2     1  UNL1        0.1650
     13  O          4.9220    1.9560    1.0900 O.2     1  UNL1       -0.4540
     14  O          4.8380    0.2560    2.5080 O.2     1  UNL1       -0.4540
     15  C          4.0330    1.2980    2.0050 C.3     1  UNL1        0.4680
@<TRIPOS>BOND
     1     5     4    1
     2     4     2    1
     3     2     3    2
     4     2     1    1
     5     1     6    1
     6     6     7    1
     7     7     9    2
     8     7     8    1
     9     9    11    1
    10     8    10    2
    11    11    13    1
    12    11    12    2
    13    13    15    1
    14    10    12    1
    15    12    14    1
    16    15    14    1
