@<TRIPOS>MOLECULE
/home/cewinharhar/GITHUB/reincatalyze/data/processed/docking_pred/2023-May-17-1006_maxeplen10_maxtrainstep1000_seadep16_gamma099_lrac9e-4_lrcr1e-3_sub6/6d158fe290fd5017d73aec191e5eef2bb245b649_ligand_6.pdbqt
 15 16 0 0 0
SMALL
GASTEIGER

@<TRIPOS>ATOM
      1  C          6.4090    1.3700    0.5920 C.3     1  UNL1        0.1270
      2  C          5.2200    1.3700    1.4300 C.2     1  UNL1        0.3030
      3  O          4.2720    2.1510    1.3300 O.2     1  UNL1       -0.2520
      4  O          5.1440    0.3980    2.4400 O.3     1  UNL1       -0.4810
      5  H          5.9580    0.3000    3.0260 H       1  UNL1        0.2960
      6  C          6.1810    0.8470   -0.7720 C.3     1  UNL1        0.0470
      7  C          6.9550   -0.3270   -1.1850 C.2     1  UNL1       -0.0430
      8  C          7.2590   -0.5620   -2.5160 C.2     1  UNL1        0.0080
      9  C          7.3690   -1.2510   -0.2630 C.2     1  UNL1        0.0540
     10  C          7.9550   -1.6840   -2.9100 C.2     1  UNL1        0.0510
     11  C          8.0690   -2.3840   -0.6340 C.2     1  UNL1        0.1660
     12  C          8.3640   -2.6040   -1.9580 C.2     1  UNL1        0.1650
     13  O          8.5790   -3.4340    0.1090 O.2     1  UNL1       -0.4540
     14  O          9.0660   -3.8090   -2.0190 O.2     1  UNL1       -0.4540
     15  C          8.9370   -4.4910   -0.7930 C.3     1  UNL1        0.4680
@<TRIPOS>BOND
     1    10     8    1
     2    10    12    2
     3     8     7    2
     4    14    12    1
     5    14    15    1
     6    12    11    1
     7     7     6    1
     8     7     9    1
     9    15    13    1
    10     6     1    1
    11    11     9    2
    12    11    13    1
    13     1     2    1
    14     3     2    2
    15     2     4    1
    16     4     5    1
