@<TRIPOS>MOLECULE
/home/cewinharhar/GITHUB/reincatalyze/data/processed/docking_pred/2023-May-17-1006_maxeplen10_maxtrainstep1000_seadep16_gamma099_lrac9e-4_lrcr1e-3_sub6/6d158fe290fd5017d73aec191e5eef2bb245b649_ligand_6.pdbqt
 15 16 0 0 0
SMALL
GASTEIGER

@<TRIPOS>ATOM
      1  C          5.4950    2.6980    0.0990 C.3     1  UNL1        0.1270
      2  C          6.2080    3.6660    0.9170 C.2     1  UNL1        0.3030
      3  O          6.3020    3.6350    2.1460 O.2     1  UNL1       -0.2520
      4  O          6.8440    4.7260    0.2540 O.3     1  UNL1       -0.4810
      5  H          7.6990    5.0630    0.6690 H       1  UNL1        0.2960
      6  C          5.4290    1.3440    0.6900 C.3     1  UNL1        0.0470
      7  C          6.2620    0.3010    0.0880 C.2     1  UNL1       -0.0430
      8  C          6.4990    0.2610   -1.2770 C.2     1  UNL1        0.0080
      9  C          6.8030   -0.6940    0.8580 C.2     1  UNL1        0.0540
     10  C          7.2520   -0.7400   -1.8490 C.2     1  UNL1        0.0510
     11  C          7.5620   -1.7080    0.3060 C.2     1  UNL1        0.1660
     12  C          7.7900   -1.7350   -1.0490 C.2     1  UNL1        0.1650
     13  O          8.1970   -2.7970    0.8780 O.2     1  UNL1       -0.4540
     14  O          8.5760   -2.8590   -1.3040 O.2     1  UNL1       -0.4540
     15  C          8.5770   -3.6990   -0.1720 C.3     1  UNL1        0.4680
@<TRIPOS>BOND
     1    10     8    1
     2    10    12    2
     3    14    12    1
     4    14    15    1
     5     8     7    2
     6    12    11    1
     7    15    13    1
     8     7     6    1
     9     7     9    1
    10     1     6    1
    11     1     2    1
    12     4     5    1
    13     4     2    1
    14    11     9    2
    15    11    13    1
    16     2     3    2
