@<TRIPOS>MOLECULE
/home/cewinharhar/GITHUB/reincatalyze/data/processed/docking_pred/2023-May-17-1006_maxeplen10_maxtrainstep1000_seadep16_gamma099_lrac9e-4_lrcr1e-3_sub6/6d158fe290fd5017d73aec191e5eef2bb245b649_ligand_6.pdbqt
 15 16 0 0 0
SMALL
GASTEIGER

@<TRIPOS>ATOM
      1  C          5.4160    2.8700    0.1250 C.3     1  UNL1        0.1270
      2  C          6.2440    3.8510    0.8090 C.2     1  UNL1        0.3030
      3  O          6.8860    4.7510    0.2650 O.2     1  UNL1       -0.2520
      4  O          6.3190    3.7670    2.2080 O.3     1  UNL1       -0.4810
      5  H          7.1710    4.1050    2.6290 H       1  UNL1        0.2960
      6  C          5.3430    1.5620    0.8120 C.3     1  UNL1        0.0470
      7  C          6.1250    0.4580    0.2520 C.2     1  UNL1       -0.0430
      8  C          6.5770   -0.5850    1.0450 C.2     1  UNL1        0.0080
      9  C          6.4670    0.4450   -1.0740 C.2     1  UNL1        0.0540
     10  C          7.3430   -1.6050    0.5260 C.2     1  UNL1        0.0510
     11  C          7.2340   -0.5690   -1.6170 C.2     1  UNL1        0.1660
     12  C          7.6750   -1.5970   -0.8190 C.2     1  UNL1        0.1650
     13  O          7.6930   -0.7860   -2.9040 O.2     1  UNL1       -0.4540
     14  O          8.4140   -2.4530   -1.6370 O.2     1  UNL1       -0.4540
     15  C          8.6980   -1.8090   -2.8570 C.3     1  UNL1        0.4680
@<TRIPOS>BOND
     1    13    15    1
     2    13    11    1
     3    15    14    1
     4    14    12    1
     5    11     9    1
     6    11    12    2
     7     9     7    2
     8    12    10    1
     9     1     2    1
    10     1     6    1
    11     7     6    1
    12     7     8    1
    13     3     2    2
    14    10     8    2
    15     2     4    1
    16     4     5    1
