@<TRIPOS>MOLECULE
/home/cewinharhar/GITHUB/reincatalyze/data/processed/docking_pred/2023-May-17-1006_maxeplen10_maxtrainstep1000_seadep16_gamma099_lrac9e-4_lrcr1e-3_sub6/6d158fe290fd5017d73aec191e5eef2bb245b649_ligand_6.pdbqt
 15 16 0 0 0
SMALL
GASTEIGER

@<TRIPOS>ATOM
      1  C          4.7000    1.8600    0.6850 C.3     1  UNL1        0.1270
      2  C          4.4100    1.1470    1.9190 C.2     1  UNL1        0.3030
      3  O          5.1480    0.3240    2.4620 O.2     1  UNL1       -0.2520
      4  O          3.1840    1.4190    2.5470 O.3     1  UNL1       -0.4810
      5  H          2.7000    0.6270    2.9400 H       1  UNL1        0.2960
      6  C          6.1230    2.2320    0.5270 C.3     1  UNL1        0.0470
      7  C          6.9790    1.3240   -0.2390 C.2     1  UNL1       -0.0430
      8  C          8.3420    1.5450   -0.3630 C.2     1  UNL1        0.0080
      9  C          6.4470    0.2450   -0.8930 C.2     1  UNL1        0.0540
     10  C          9.1420    0.7130   -1.1130 C.2     1  UNL1        0.0510
     11  C          7.2310   -0.6040   -1.6510 C.2     1  UNL1        0.1660
     12  C          8.5810   -0.3740   -1.7640 C.2     1  UNL1        0.1650
     13  O          6.9170   -1.7350   -2.3840 O.2     1  UNL1       -0.4540
     14  O          9.0950   -1.3820   -2.5800 O.2     1  UNL1       -0.4540
     15  C          8.0360   -2.0500   -3.2260 C.3     1  UNL1        0.4680
@<TRIPOS>BOND
     1    15    14    1
     2    15    13    1
     3    14    12    1
     4    13    11    1
     5    12    11    2
     6    12    10    1
     7    11     9    1
     8    10     8    2
     9     9     7    2
    10     8     7    1
    11     7     6    1
    12     6     1    1
    13     1     2    1
    14     2     3    2
    15     2     4    1
    16     4     5    1
