@<TRIPOS>MOLECULE
/home/cewinharhar/GITHUB/reincatalyze/data/processed/docking_pred/2023-May-17-1006_maxeplen10_maxtrainstep1000_seadep16_gamma099_lrac9e-4_lrcr1e-3_sub6/6dc168e099aae66a1c19408847f7f9495b2b5216_ligand_6.pdbqt
 15 16 0 0 0
SMALL
GASTEIGER

@<TRIPOS>ATOM
      1  C          5.4110    2.8750    0.1220 C.3     1  UNL1        0.1270
      2  C          6.2340    3.8550    0.8150 C.2     1  UNL1        0.3030
      3  O          6.8570    4.7740    0.2810 O.2     1  UNL1       -0.2520
      4  O          6.3270    3.7460    2.2110 O.3     1  UNL1       -0.4810
      5  H          6.3390    4.6130    2.7260 H       1  UNL1        0.2960
      6  C          5.3380    1.5640    0.8020 C.3     1  UNL1        0.0470
      7  C          6.1210    0.4640    0.2360 C.2     1  UNL1       -0.0430
      8  C          6.5940   -0.5720    1.0280 C.2     1  UNL1        0.0080
      9  C          6.4450    0.4460   -1.0950 C.2     1  UNL1        0.0540
     10  C          7.3610   -1.5880    0.5040 C.2     1  UNL1        0.0510
     11  C          7.2120   -0.5640   -1.6430 C.2     1  UNL1        0.1660
     12  C          7.6730   -1.5840   -0.8460 C.2     1  UNL1        0.1650
     13  O          7.6540   -0.7840   -2.9360 O.2     1  UNL1       -0.4540
     14  O          8.4070   -2.4390   -1.6700 O.2     1  UNL1       -0.4540
     15  C          8.6690   -1.7990   -2.8980 C.3     1  UNL1        0.4680
@<TRIPOS>BOND
     1    13    15    1
     2    13    11    1
     3    15    14    1
     4    14    12    1
     5    11     9    1
     6    11    12    2
     7     9     7    2
     8    12    10    1
     9     1     6    1
    10     1     2    1
    11     7     6    1
    12     7     8    1
    13     3     2    2
    14    10     8    2
    15     2     4    1
    16     4     5    1
