@<TRIPOS>MOLECULE
/home/cewinharhar/GITHUB/reincatalyze/data/processed/docking_pred/2023-May-17-1006_maxeplen10_maxtrainstep1000_seadep16_gamma099_lrac9e-4_lrcr1e-3_sub6/6dc168e099aae66a1c19408847f7f9495b2b5216_ligand_6.pdbqt
 15 16 0 0 0
SMALL
GASTEIGER

@<TRIPOS>ATOM
      1  C          8.2220   -0.2410   -2.8330 C.3     1  UNL1        0.1270
      2  C          8.4630   -1.6610   -3.0370 C.2     1  UNL1        0.3030
      3  O          9.5530   -2.2260   -2.9340 O.2     1  UNL1       -0.2520
      4  O          7.3600   -2.4590   -3.3810 O.3     1  UNL1       -0.4810
      5  H          6.5140   -1.9680   -3.6250 H       1  UNL1        0.2960
      6  C          8.6770    0.2620   -1.5200 C.3     1  UNL1        0.0470
      7  C          7.7250    0.2110   -0.4080 C.2     1  UNL1       -0.0430
      8  C          7.7470   -0.8220    0.5180 C.2     1  UNL1        0.0080
      9  C          6.7550    1.1670   -0.2720 C.2     1  UNL1        0.0540
     10  C          6.8310   -0.8910    1.5430 C.2     1  UNL1        0.0510
     11  C          5.8250    1.1190    0.7500 C.2     1  UNL1        0.1660
     12  C          5.8590    0.0900    1.6600 C.2     1  UNL1        0.1650
     13  O          4.7750    1.9590    1.0770 O.2     1  UNL1       -0.4540
     14  O          4.8120    0.3100    2.5560 O.2     1  UNL1       -0.4540
     15  C          3.9410    1.2850    2.0310 C.3     1  UNL1        0.4680
@<TRIPOS>BOND
     1     5     4    1
     2     4     2    1
     3     2     3    2
     4     2     1    1
     5     1     6    1
     6     6     7    1
     7     7     9    2
     8     7     8    1
     9     9    11    1
    10     8    10    2
    11    11    13    1
    12    11    12    2
    13    13    15    1
    14    10    12    1
    15    12    14    1
    16    15    14    1
