MODEL 1
REMARK VINA RESULT:      -7.7      0.000      0.000
REMARK SMILES O=C(O)CCc1ccc2c(c1)OCO2
REMARK SMILES IDX 4 1 2 2 1 3 3 4 5 6 6 7 7 8 11 9 8 10 10 11 9 12 12 13 14 14
REMARK SMILES IDX 13 15
REMARK H PARENT 3 5
REMARK Flexibility Score: inf
ROOT
ATOM      1  C   UNL     1       5.411   2.875   0.122  1.00  0.00     0.127 C 
ENDROOT
BRANCH   1   2
ATOM      2  C   UNL     1       6.234   3.855   0.815  1.00  0.00     0.303 C 
ATOM      3  O   UNL     1       6.857   4.774   0.281  1.00  0.00    -0.252 OA
BRANCH   2   4
ATOM      4  O   UNL     1       6.327   3.746   2.211  1.00  0.00    -0.481 OA
ATOM      5  H   UNL     1       6.339   4.613   2.726  1.00  0.00     0.296 HD
ENDBRANCH   2   4
ENDBRANCH   1   2
BRANCH   1   6
ATOM      6  C   UNL     1       5.338   1.564   0.802  1.00  0.00     0.047 C 
BRANCH   6   7
ATOM      7  C   UNL     1       6.121   0.464   0.236  1.00  0.00    -0.043 A 
ATOM      8  C   UNL     1       6.594  -0.572   1.028  1.00  0.00     0.008 A 
ATOM      9  C   UNL     1       6.445   0.446  -1.095  1.00  0.00     0.054 A 
ATOM     10  C   UNL     1       7.361  -1.588   0.504  1.00  0.00     0.051 A 
ATOM     11  C   UNL     1       7.212  -0.564  -1.643  1.00  0.00     0.166 A 
ATOM     12  C   UNL     1       7.673  -1.584  -0.846  1.00  0.00     0.165 A 
ATOM     13  O   UNL     1       7.654  -0.784  -2.936  1.00  0.00    -0.454 OA
ATOM     14  O   UNL     1       8.407  -2.439  -1.670  1.00  0.00    -0.454 OA
ATOM     15  C   UNL     1       8.669  -1.799  -2.898  1.00  0.00     0.468 C 
ENDBRANCH   6   7
ENDBRANCH   1   6
TORSDOF 4
ENDMDL
MODEL 2
REMARK VINA RESULT:      -7.6      2.124      2.516
REMARK SMILES O=C(O)CCc1ccc2c(c1)OCO2
REMARK SMILES IDX 4 1 2 2 1 3 3 4 5 6 6 7 7 8 11 9 8 10 10 11 9 12 12 13 14 14
REMARK SMILES IDX 13 15
REMARK H PARENT 3 5
REMARK Flexibility Score: inf
ROOT
ATOM      1  C   UNL     1       4.703   1.859   0.693  1.00  0.00     0.127 C 
ENDROOT
BRANCH   1   2
ATOM      2  C   UNL     1       4.395   1.154   1.928  1.00  0.00     0.303 C 
ATOM      3  O   UNL     1       5.120   0.324   2.479  1.00  0.00    -0.252 OA
BRANCH   2   4
ATOM      4  O   UNL     1       3.169   1.442   2.546  1.00  0.00    -0.481 OA
ATOM      5  H   UNL     1       2.859   0.787   3.247  1.00  0.00     0.296 HD
ENDBRANCH   2   4
ENDBRANCH   1   2
BRANCH   1   6
ATOM      6  C   UNL     1       6.128   2.225   0.550  1.00  0.00     0.047 C 
BRANCH   6   7
ATOM      7  C   UNL     1       6.984   1.325  -0.227  1.00  0.00    -0.043 A 
ATOM      8  C   UNL     1       8.341   1.564  -0.374  1.00  0.00     0.008 A 
ATOM      9  C   UNL     1       6.455   0.236  -0.868  1.00  0.00     0.054 A 
ATOM     10  C   UNL     1       9.140   0.739  -1.134  1.00  0.00     0.051 A 
ATOM     11  C   UNL     1       7.238  -0.606  -1.635  1.00  0.00     0.166 A 
ATOM     12  C   UNL     1       8.583  -0.358  -1.770  1.00  0.00     0.165 A 
ATOM     13  O   UNL     1       6.927  -1.744  -2.359  1.00  0.00    -0.454 OA
ATOM     14  O   UNL     1       9.097  -1.363  -2.591  1.00  0.00    -0.454 OA
ATOM     15  C   UNL     1       8.037  -2.048  -3.217  1.00  0.00     0.468 C 
ENDBRANCH   6   7
ENDBRANCH   1   6
TORSDOF 4
ENDMDL
MODEL 3
REMARK VINA RESULT:      -7.5      1.991      2.983
REMARK SMILES O=C(O)CCc1ccc2c(c1)OCO2
REMARK SMILES IDX 4 1 2 2 1 3 3 4 5 6 6 7 7 8 11 9 8 10 10 11 9 12 12 13 14 14
REMARK SMILES IDX 13 15
REMARK H PARENT 3 5
REMARK Flexibility Score: inf
ROOT
ATOM      1  C   UNL     1       6.445   1.281   0.745  1.00  0.00     0.127 C 
ENDROOT
BRANCH   1   2
ATOM      2  C   UNL     1       5.260   1.153   1.578  1.00  0.00     0.303 C 
ATOM      3  O   UNL     1       5.083   0.298   2.448  1.00  0.00    -0.252 OA
BRANCH   2   4
ATOM      4  O   UNL     1       4.226   2.081   1.375  1.00  0.00    -0.481 OA
ATOM      5  H   UNL     1       4.334   2.974   1.831  1.00  0.00     0.296 HD
ENDBRANCH   2   4
ENDBRANCH   1   2
BRANCH   1   6
ATOM      6  C   UNL     1       6.251   0.830  -0.649  1.00  0.00     0.047 C 
BRANCH   6   7
ATOM      7  C   UNL     1       6.997  -0.352  -1.088  1.00  0.00    -0.043 A 
ATOM      8  C   UNL     1       7.286  -0.571  -2.426  1.00  0.00     0.008 A 
ATOM      9  C   UNL     1       7.400  -1.301  -0.186  1.00  0.00     0.054 A 
ATOM     10  C   UNL     1       7.955  -1.699  -2.845  1.00  0.00     0.051 A 
ATOM     11  C   UNL     1       8.074  -2.440  -0.583  1.00  0.00     0.166 A 
ATOM     12  C   UNL     1       8.354  -2.643  -1.913  1.00  0.00     0.165 A 
ATOM     13  O   UNL     1       8.569  -3.513   0.138  1.00  0.00    -0.454 OA
ATOM     14  O   UNL     1       9.030  -3.861  -2.000  1.00  0.00    -0.454 OA
ATOM     15  C   UNL     1       8.897  -4.562  -0.785  1.00  0.00     0.468 C 
ENDBRANCH   6   7
ENDBRANCH   1   6
TORSDOF 4
ENDMDL
MODEL 4
REMARK VINA RESULT:      -7.5      1.807      5.274
REMARK SMILES O=C(O)CCc1ccc2c(c1)OCO2
REMARK SMILES IDX 4 1 2 2 1 3 3 4 5 6 6 7 7 8 11 9 8 10 10 11 9 12 12 13 14 14
REMARK SMILES IDX 13 15
REMARK H PARENT 3 5
REMARK Flexibility Score: inf
ROOT
ATOM      1  C   UNL     1       8.222  -0.241  -2.833  1.00  0.00     0.127 C 
ENDROOT
BRANCH   1   2
ATOM      2  C   UNL     1       8.463  -1.661  -3.037  1.00  0.00     0.303 C 
ATOM      3  O   UNL     1       9.553  -2.226  -2.934  1.00  0.00    -0.252 OA
BRANCH   2   4
ATOM      4  O   UNL     1       7.360  -2.459  -3.381  1.00  0.00    -0.481 OA
ATOM      5  H   UNL     1       6.514  -1.968  -3.625  1.00  0.00     0.296 HD
ENDBRANCH   2   4
ENDBRANCH   1   2
BRANCH   1   6
ATOM      6  C   UNL     1       8.677   0.262  -1.520  1.00  0.00     0.047 C 
BRANCH   6   7
ATOM      7  C   UNL     1       7.725   0.211  -0.408  1.00  0.00    -0.043 A 
ATOM      8  C   UNL     1       7.747  -0.822   0.518  1.00  0.00     0.008 A 
ATOM      9  C   UNL     1       6.755   1.167  -0.272  1.00  0.00     0.054 A 
ATOM     10  C   UNL     1       6.831  -0.891   1.543  1.00  0.00     0.051 A 
ATOM     11  C   UNL     1       5.825   1.119   0.750  1.00  0.00     0.166 A 
ATOM     12  C   UNL     1       5.859   0.090   1.660  1.00  0.00     0.165 A 
ATOM     13  O   UNL     1       4.775   1.959   1.077  1.00  0.00    -0.454 OA
ATOM     14  O   UNL     1       4.812   0.310   2.556  1.00  0.00    -0.454 OA
ATOM     15  C   UNL     1       3.941   1.285   2.031  1.00  0.00     0.468 C 
ENDBRANCH   6   7
ENDBRANCH   1   6
TORSDOF 4
ENDMDL
MODEL 5
REMARK VINA RESULT:      -7.5      0.964      2.125
REMARK SMILES O=C(O)CCc1ccc2c(c1)OCO2
REMARK SMILES IDX 4 1 2 2 1 3 3 4 5 6 6 7 7 8 11 9 8 10 10 11 9 12 12 13 14 14
REMARK SMILES IDX 13 15
REMARK H PARENT 3 5
REMARK Flexibility Score: inf
ROOT
ATOM      1  C   UNL     1       5.456   2.745   0.177  1.00  0.00     0.127 C 
ENDROOT
BRANCH   1   2
ATOM      2  C   UNL     1       6.209   3.709   0.964  1.00  0.00     0.303 C 
ATOM      3  O   UNL     1       6.338   3.689   2.190  1.00  0.00    -0.252 OA
BRANCH   2   4
ATOM      4  O   UNL     1       6.842   4.752   0.272  1.00  0.00    -0.481 OA
ATOM      5  H   UNL     1       7.742   4.538  -0.131  1.00  0.00     0.296 HD
ENDBRANCH   2   4
ENDBRANCH   1   2
BRANCH   1   6
ATOM      6  C   UNL     1       5.409   1.391   0.770  1.00  0.00     0.047 C 
BRANCH   6   7
ATOM      7  C   UNL     1       6.243   0.355   0.157  1.00  0.00    -0.043 A 
ATOM      8  C   UNL     1       6.495   0.339  -1.206  1.00  0.00     0.008 A 
ATOM      9  C   UNL     1       6.770  -0.658   0.914  1.00  0.00     0.054 A 
ATOM     10  C   UNL     1       7.249  -0.655  -1.789  1.00  0.00     0.051 A 
ATOM     11  C   UNL     1       7.530  -1.666   0.351  1.00  0.00     0.166 A 
ATOM     12  C   UNL     1       7.772  -1.668  -1.001  1.00  0.00     0.165 A 
ATOM     13  O   UNL     1       8.152  -2.769   0.910  1.00  0.00    -0.454 OA
ATOM     14  O   UNL     1       8.555  -2.793  -1.268  1.00  0.00    -0.454 OA
ATOM     15  C   UNL     1       8.539  -3.653  -0.153  1.00  0.00     0.468 C 
ENDBRANCH   6   7
ENDBRANCH   1   6
TORSDOF 4
ENDMDL
