@<TRIPOS>MOLECULE
/home/cewinharhar/GITHUB/reincatalyze/data/processed/docking_pred/2023-May-17-1006_maxeplen10_maxtrainstep1000_seadep16_gamma099_lrac9e-4_lrcr1e-3_sub6/6dc168e099aae66a1c19408847f7f9495b2b5216_ligand_6.pdbqt
 15 16 0 0 0
SMALL
GASTEIGER

@<TRIPOS>ATOM
      1  C          4.7030    1.8590    0.6930 C.3     1  UNL1        0.1270
      2  C          4.3950    1.1540    1.9280 C.2     1  UNL1        0.3030
      3  O          5.1200    0.3240    2.4790 O.2     1  UNL1       -0.2520
      4  O          3.1690    1.4420    2.5460 O.3     1  UNL1       -0.4810
      5  H          2.8590    0.7870    3.2470 H       1  UNL1        0.2960
      6  C          6.1280    2.2250    0.5500 C.3     1  UNL1        0.0470
      7  C          6.9840    1.3250   -0.2270 C.2     1  UNL1       -0.0430
      8  C          8.3410    1.5640   -0.3740 C.2     1  UNL1        0.0080
      9  C          6.4550    0.2360   -0.8680 C.2     1  UNL1        0.0540
     10  C          9.1400    0.7390   -1.1340 C.2     1  UNL1        0.0510
     11  C          7.2380   -0.6060   -1.6350 C.2     1  UNL1        0.1660
     12  C          8.5830   -0.3580   -1.7700 C.2     1  UNL1        0.1650
     13  O          6.9270   -1.7440   -2.3590 O.2     1  UNL1       -0.4540
     14  O          9.0970   -1.3630   -2.5910 O.2     1  UNL1       -0.4540
     15  C          8.0370   -2.0480   -3.2170 C.3     1  UNL1        0.4680
@<TRIPOS>BOND
     1    15    14    1
     2    15    13    1
     3    14    12    1
     4    13    11    1
     5    12    11    2
     6    12    10    1
     7    11     9    1
     8    10     8    2
     9     9     7    2
    10     8     7    1
    11     7     6    1
    12     6     1    1
    13     1     2    1
    14     2     3    2
    15     2     4    1
    16     4     5    1
