@<TRIPOS>MOLECULE
/home/cewinharhar/GITHUB/reincatalyze/data/processed/docking_pred/2023-May-17-1006_maxeplen10_maxtrainstep1000_seadep16_gamma099_lrac9e-4_lrcr1e-3_sub6/6dc168e099aae66a1c19408847f7f9495b2b5216_ligand_6.pdbqt
 15 16 0 0 0
SMALL
GASTEIGER

@<TRIPOS>ATOM
      1  C          5.4560    2.7450    0.1770 C.3     1  UNL1        0.1270
      2  C          6.2090    3.7090    0.9640 C.2     1  UNL1        0.3030
      3  O          6.3380    3.6890    2.1900 O.2     1  UNL1       -0.2520
      4  O          6.8420    4.7520    0.2720 O.3     1  UNL1       -0.4810
      5  H          7.7420    4.5380   -0.1310 H       1  UNL1        0.2960
      6  C          5.4090    1.3910    0.7700 C.3     1  UNL1        0.0470
      7  C          6.2430    0.3550    0.1570 C.2     1  UNL1       -0.0430
      8  C          6.4950    0.3390   -1.2060 C.2     1  UNL1        0.0080
      9  C          6.7700   -0.6580    0.9140 C.2     1  UNL1        0.0540
     10  C          7.2490   -0.6550   -1.7890 C.2     1  UNL1        0.0510
     11  C          7.5300   -1.6660    0.3510 C.2     1  UNL1        0.1660
     12  C          7.7720   -1.6680   -1.0010 C.2     1  UNL1        0.1650
     13  O          8.1520   -2.7690    0.9100 O.2     1  UNL1       -0.4540
     14  O          8.5550   -2.7930   -1.2680 O.2     1  UNL1       -0.4540
     15  C          8.5390   -3.6530   -0.1530 C.3     1  UNL1        0.4680
@<TRIPOS>BOND
     1    10     8    1
     2    10    12    2
     3    14    12    1
     4    14    15    1
     5     8     7    2
     6    12    11    1
     7    15    13    1
     8     5     4    1
     9     7     6    1
    10     7     9    1
    11     1     6    1
    12     1     2    1
    13     4     2    1
    14    11    13    1
    15    11     9    2
    16     2     3    2
