@<TRIPOS>MOLECULE
/home/cewinharhar/GITHUB/reincatalyze/data/processed/docking_pred/2023-May-17-1006_maxeplen10_maxtrainstep1000_seadep16_gamma099_lrac9e-4_lrcr1e-3_sub6/6dc168e099aae66a1c19408847f7f9495b2b5216_ligand_6.pdbqt
 15 16 0 0 0
SMALL
GASTEIGER

@<TRIPOS>ATOM
      1  C          6.4450    1.2810    0.7450 C.3     1  UNL1        0.1270
      2  C          5.2600    1.1530    1.5780 C.2     1  UNL1        0.3030
      3  O          5.0830    0.2980    2.4480 O.2     1  UNL1       -0.2520
      4  O          4.2260    2.0810    1.3750 O.3     1  UNL1       -0.4810
      5  H          4.3340    2.9740    1.8310 H       1  UNL1        0.2960
      6  C          6.2510    0.8300   -0.6490 C.3     1  UNL1        0.0470
      7  C          6.9970   -0.3520   -1.0880 C.2     1  UNL1       -0.0430
      8  C          7.2860   -0.5710   -2.4260 C.2     1  UNL1        0.0080
      9  C          7.4000   -1.3010   -0.1860 C.2     1  UNL1        0.0540
     10  C          7.9550   -1.6990   -2.8450 C.2     1  UNL1        0.0510
     11  C          8.0740   -2.4400   -0.5830 C.2     1  UNL1        0.1660
     12  C          8.3540   -2.6430   -1.9130 C.2     1  UNL1        0.1650
     13  O          8.5690   -3.5130    0.1380 O.2     1  UNL1       -0.4540
     14  O          9.0300   -3.8610   -2.0000 O.2     1  UNL1       -0.4540
     15  C          8.8970   -4.5620   -0.7850 C.3     1  UNL1        0.4680
@<TRIPOS>BOND
     1    10     8    1
     2    10    12    2
     3     8     7    2
     4    14    12    1
     5    14    15    1
     6    12    11    1
     7     7     6    1
     8     7     9    1
     9    15    13    1
    10     6     1    1
    11    11     9    2
    12    11    13    1
    13     1     2    1
    14     4     2    1
    15     4     5    1
    16     2     3    2
