@<TRIPOS>MOLECULE
/home/cewinharhar/GITHUB/reincatalyze/data/processed/docking_pred/2023-May-17-1006_maxeplen10_maxtrainstep1000_seadep16_gamma099_lrac9e-4_lrcr1e-3_sub6/6e01533e6265e20f53eb8495178921d7241890ed_ligand_6.pdbqt
 15 16 0 0 0
SMALL
GASTEIGER

@<TRIPOS>ATOM
      1  C          8.3080   -0.3160   -2.8530 C.3     1  UNL1        0.1270
      2  C          8.4670   -1.7450   -3.0740 C.2     1  UNL1        0.3030
      3  O          9.5320   -2.3620   -3.0360 O.2     1  UNL1       -0.2520
      4  O          7.3080   -2.4860   -3.3560 O.3     1  UNL1       -0.4810
      5  H          7.3660   -3.4800   -3.1980 H       1  UNL1        0.2960
      6  C          8.7610    0.1390   -1.5210 C.3     1  UNL1        0.0470
      7  C          7.7900    0.0990   -0.4250 C.2     1  UNL1       -0.0430
      8  C          7.7360   -0.9690    0.4570 C.2     1  UNL1        0.0080
      9  C          6.8750    1.1050   -0.2640 C.2     1  UNL1        0.0540
     10  C          6.8000   -1.0250    1.4660 C.2     1  UNL1        0.0510
     11  C          5.9270    1.0710    0.7410 C.2     1  UNL1        0.1660
     12  C          5.8860    0.0060    1.6090 C.2     1  UNL1        0.1650
     13  O          4.9230    1.9580    1.0880 O.2     1  UNL1       -0.4540
     14  O          4.8390    0.2520    2.4990 O.2     1  UNL1       -0.4540
     15  C          4.0350    1.2970    2.0020 C.3     1  UNL1        0.4680
@<TRIPOS>BOND
     1     4     5    1
     2     4     2    1
     3     2     3    2
     4     2     1    1
     5     1     6    1
     6     6     7    1
     7     7     9    2
     8     7     8    1
     9     9    11    1
    10     8    10    2
    11    11    13    1
    12    11    12    2
    13    13    15    1
    14    10    12    1
    15    12    14    1
    16    15    14    1
