@<TRIPOS>MOLECULE
/home/cewinharhar/GITHUB/reincatalyze/data/processed/docking_pred/2023-May-17-1006_maxeplen10_maxtrainstep1000_seadep16_gamma099_lrac9e-4_lrcr1e-3_sub6/6e01533e6265e20f53eb8495178921d7241890ed_ligand_6.pdbqt
 15 16 0 0 0
SMALL
GASTEIGER

@<TRIPOS>ATOM
      1  C          4.7180    1.8610    0.6900 C.3     1  UNL1        0.1270
      2  C          4.4110    1.1500    1.9210 C.2     1  UNL1        0.3030
      3  O          5.1380    0.3200    2.4700 O.2     1  UNL1       -0.2520
      4  O          3.1820    1.4310    2.5390 O.3     1  UNL1       -0.4810
      5  H          2.5010    0.6870    2.5350 H       1  UNL1        0.2960
      6  C          6.1440    2.2240    0.5470 C.3     1  UNL1        0.0470
      7  C          6.9970    1.3230   -0.2310 C.2     1  UNL1       -0.0430
      8  C          8.3550    1.5590   -0.3820 C.2     1  UNL1        0.0080
      9  C          6.4660    0.2330   -0.8690 C.2     1  UNL1        0.0540
     10  C          9.1510    0.7330   -1.1430 C.2     1  UNL1        0.0510
     11  C          7.2460   -0.6110   -1.6370 C.2     1  UNL1        0.1660
     12  C          8.5900   -0.3640   -1.7770 C.2     1  UNL1        0.1650
     13  O          6.9320   -1.7490   -2.3580 O.2     1  UNL1       -0.4540
     14  O          9.1010   -1.3710   -2.5970 O.2     1  UNL1       -0.4540
     15  C          8.0390   -2.0560   -3.2190 C.3     1  UNL1        0.4680
@<TRIPOS>BOND
     1    15    14    1
     2    15    13    1
     3    14    12    1
     4    13    11    1
     5    12    11    2
     6    12    10    1
     7    11     9    1
     8    10     8    2
     9     9     7    2
    10     8     7    1
    11     7     6    1
    12     6     1    1
    13     1     2    1
    14     2     3    2
    15     2     4    1
    16     5     4    1
