@<TRIPOS>MOLECULE
/home/cewinharhar/GITHUB/reincatalyze/data/processed/docking_pred/2023-May-17-1006_maxeplen10_maxtrainstep1000_seadep16_gamma099_lrac9e-4_lrcr1e-3_sub6/6e01533e6265e20f53eb8495178921d7241890ed_ligand_6.pdbqt
 15 16 0 0 0
SMALL
GASTEIGER

@<TRIPOS>ATOM
      1  C          5.4140    2.8670    0.1250 C.3     1  UNL1        0.1270
      2  C          6.2430    3.8510    0.8040 C.2     1  UNL1        0.3030
      3  O          6.8800    4.7520    0.2560 O.2     1  UNL1       -0.2520
      4  O          6.3260    3.7680    2.2030 O.3     1  UNL1       -0.4810
      5  H          5.5690    4.1880    2.7190 H       1  UNL1        0.2960
      6  C          5.3510    1.5590    0.8110 C.3     1  UNL1        0.0470
      7  C          6.1310    0.4570    0.2420 C.2     1  UNL1       -0.0430
      8  C          6.5900   -0.5880    1.0290 C.2     1  UNL1        0.0080
      9  C          6.4640    0.4480   -1.0870 C.2     1  UNL1        0.0540
     10  C          7.3540   -1.6060    0.5020 C.2     1  UNL1        0.0510
     11  C          7.2280   -0.5630   -1.6370 C.2     1  UNL1        0.1660
     12  C          7.6750   -1.5930   -0.8460 C.2     1  UNL1        0.1650
     13  O          7.6780   -0.7750   -2.9290 O.2     1  UNL1       -0.4540
     14  O          8.4100   -2.4460   -1.6710 O.2     1  UNL1       -0.4540
     15  C          8.6850   -1.7980   -2.8920 C.3     1  UNL1        0.4680
@<TRIPOS>BOND
     1    13    15    1
     2    13    11    1
     3    15    14    1
     4    14    12    1
     5    11     9    1
     6    11    12    2
     7     9     7    2
     8    12    10    1
     9     1     2    1
    10     1     6    1
    11     7     6    1
    12     7     8    1
    13     3     2    2
    14    10     8    2
    15     2     4    1
    16     4     5    1
