@<TRIPOS>MOLECULE
/home/cewinharhar/GITHUB/reincatalyze/data/processed/docking_pred/2023-May-17-1006_maxeplen10_maxtrainstep1000_seadep16_gamma099_lrac9e-4_lrcr1e-3_sub6/6e01533e6265e20f53eb8495178921d7241890ed_ligand_6.pdbqt
 15 16 0 0 0
SMALL
GASTEIGER

@<TRIPOS>ATOM
      1  C          5.4430    2.7170    0.1100 C.3     1  UNL1        0.1270
      2  C          6.1810    3.6800    0.9120 C.2     1  UNL1        0.3030
      3  O          6.3110    3.6430    2.1370 O.2     1  UNL1       -0.2520
      4  O          6.8000    4.7420    0.2350 O.3     1  UNL1       -0.4810
      5  H          7.5040    4.4890   -0.4420 H       1  UNL1        0.2960
      6  C          5.4300    1.3500    0.6740 C.3     1  UNL1        0.0470
      7  C          6.2580    0.3380    0.0150 C.2     1  UNL1       -0.0430
      8  C          6.4190    0.3180   -1.3620 C.2     1  UNL1        0.0080
      9  C          6.8700   -0.6490    0.7420 C.2     1  UNL1        0.0540
     10  C          7.1680   -0.6550   -1.9860 C.2     1  UNL1        0.0510
     11  C          7.6260   -1.6340    0.1370 C.2     1  UNL1        0.1660
     12  C          7.7780   -1.6410   -1.2280 C.2     1  UNL1        0.1650
     13  O          8.3230   -2.7090    0.6610 O.2     1  UNL1       -0.4540
     14  O          8.5810   -2.7400   -1.5390 O.2     1  UNL1       -0.4540
     15  C          8.6700   -3.5900   -0.4190 C.3     1  UNL1        0.4680
@<TRIPOS>BOND
     1    10     8    1
     2    10    12    2
     3    14    12    1
     4    14    15    1
     5     8     7    2
     6    12    11    1
     7     5     4    1
     8    15    13    1
     9     7     6    1
    10     7     9    1
    11     1     6    1
    12     1     2    1
    13    11    13    1
    14    11     9    2
    15     4     2    1
    16     2     3    2
