@<TRIPOS>MOLECULE
/home/cewinharhar/GITHUB/reincatalyze/data/processed/docking_pred/2023-May-17-1006_maxeplen10_maxtrainstep1000_seadep16_gamma099_lrac9e-4_lrcr1e-3_sub6/6e01533e6265e20f53eb8495178921d7241890ed_ligand_6.pdbqt
 15 16 0 0 0
SMALL
GASTEIGER

@<TRIPOS>ATOM
      1  C          6.3860    1.2650    0.6460 C.3     1  UNL1        0.1270
      2  C          5.1600    1.3190    1.4270 C.2     1  UNL1        0.3030
      3  O          4.2670    2.1600    1.3030 O.2     1  UNL1       -0.2520
      4  O          4.9750    0.3300    2.4060 O.3     1  UNL1       -0.4810
      5  H          4.2620   -0.3570    2.2150 H       1  UNL1        0.2960
      6  C          6.1950    0.7790   -0.7370 C.3     1  UNL1        0.0470
      7  C          6.9640   -0.3960   -1.1550 C.2     1  UNL1       -0.0430
      8  C          7.2740   -0.6240   -2.4870 C.2     1  UNL1        0.0080
      9  C          7.3700   -1.3290   -0.2380 C.2     1  UNL1        0.0540
     10  C          7.9660   -1.7460   -2.8840 C.2     1  UNL1        0.0510
     11  C          8.0660   -2.4620   -0.6130 C.2     1  UNL1        0.1660
     12  C          8.3660   -2.6740   -1.9370 C.2     1  UNL1        0.1650
     13  O          8.5680   -3.5190    0.1250 O.2     1  UNL1       -0.4540
     14  O          9.0620   -3.8830   -2.0040 O.2     1  UNL1       -0.4540
     15  C          8.9250   -4.5720   -0.7830 C.3     1  UNL1        0.4680
@<TRIPOS>BOND
     1    10     8    1
     2    10    12    2
     3     8     7    2
     4    14    12    1
     5    14    15    1
     6    12    11    1
     7     7     6    1
     8     7     9    1
     9    15    13    1
    10     6     1    1
    11    11     9    2
    12    11    13    1
    13     1     2    1
    14     3     2    2
    15     2     4    1
    16     5     4    1
