MODEL 1
REMARK VINA RESULT:      -7.6      0.000      0.000
REMARK SMILES O=C(O)CCc1ccc2c(c1)OCO2
REMARK SMILES IDX 4 1 2 2 1 3 3 4 5 6 6 7 7 8 11 9 8 10 10 11 9 12 12 13 14 14
REMARK SMILES IDX 13 15
REMARK H PARENT 3 5
REMARK Flexibility Score: inf
ROOT
ATOM      1  C   UNL     1       5.414   2.867   0.125  1.00  0.00     0.127 C 
ENDROOT
BRANCH   1   2
ATOM      2  C   UNL     1       6.243   3.851   0.804  1.00  0.00     0.303 C 
ATOM      3  O   UNL     1       6.880   4.752   0.256  1.00  0.00    -0.252 OA
BRANCH   2   4
ATOM      4  O   UNL     1       6.326   3.768   2.203  1.00  0.00    -0.481 OA
ATOM      5  H   UNL     1       5.569   4.188   2.719  1.00  0.00     0.296 HD
ENDBRANCH   2   4
ENDBRANCH   1   2
BRANCH   1   6
ATOM      6  C   UNL     1       5.351   1.559   0.811  1.00  0.00     0.047 C 
BRANCH   6   7
ATOM      7  C   UNL     1       6.131   0.457   0.242  1.00  0.00    -0.043 A 
ATOM      8  C   UNL     1       6.590  -0.588   1.029  1.00  0.00     0.008 A 
ATOM      9  C   UNL     1       6.464   0.448  -1.087  1.00  0.00     0.054 A 
ATOM     10  C   UNL     1       7.354  -1.606   0.502  1.00  0.00     0.051 A 
ATOM     11  C   UNL     1       7.228  -0.563  -1.637  1.00  0.00     0.166 A 
ATOM     12  C   UNL     1       7.675  -1.593  -0.846  1.00  0.00     0.165 A 
ATOM     13  O   UNL     1       7.678  -0.775  -2.929  1.00  0.00    -0.454 OA
ATOM     14  O   UNL     1       8.410  -2.446  -1.671  1.00  0.00    -0.454 OA
ATOM     15  C   UNL     1       8.685  -1.798  -2.892  1.00  0.00     0.468 C 
ENDBRANCH   6   7
ENDBRANCH   1   6
TORSDOF 4
ENDMDL
MODEL 2
REMARK VINA RESULT:      -7.6      2.127      2.521
REMARK SMILES O=C(O)CCc1ccc2c(c1)OCO2
REMARK SMILES IDX 4 1 2 2 1 3 3 4 5 6 6 7 7 8 11 9 8 10 10 11 9 12 12 13 14 14
REMARK SMILES IDX 13 15
REMARK H PARENT 3 5
REMARK Flexibility Score: inf
ROOT
ATOM      1  C   UNL     1       4.718   1.861   0.690  1.00  0.00     0.127 C 
ENDROOT
BRANCH   1   2
ATOM      2  C   UNL     1       4.411   1.150   1.921  1.00  0.00     0.303 C 
ATOM      3  O   UNL     1       5.138   0.320   2.470  1.00  0.00    -0.252 OA
BRANCH   2   4
ATOM      4  O   UNL     1       3.182   1.431   2.539  1.00  0.00    -0.481 OA
ATOM      5  H   UNL     1       2.501   0.687   2.535  1.00  0.00     0.296 HD
ENDBRANCH   2   4
ENDBRANCH   1   2
BRANCH   1   6
ATOM      6  C   UNL     1       6.144   2.224   0.547  1.00  0.00     0.047 C 
BRANCH   6   7
ATOM      7  C   UNL     1       6.997   1.323  -0.231  1.00  0.00    -0.043 A 
ATOM      8  C   UNL     1       8.355   1.559  -0.382  1.00  0.00     0.008 A 
ATOM      9  C   UNL     1       6.466   0.233  -0.869  1.00  0.00     0.054 A 
ATOM     10  C   UNL     1       9.151   0.733  -1.143  1.00  0.00     0.051 A 
ATOM     11  C   UNL     1       7.246  -0.611  -1.637  1.00  0.00     0.166 A 
ATOM     12  C   UNL     1       8.590  -0.364  -1.777  1.00  0.00     0.165 A 
ATOM     13  O   UNL     1       6.932  -1.749  -2.358  1.00  0.00    -0.454 OA
ATOM     14  O   UNL     1       9.101  -1.371  -2.597  1.00  0.00    -0.454 OA
ATOM     15  C   UNL     1       8.039  -2.056  -3.219  1.00  0.00     0.468 C 
ENDBRANCH   6   7
ENDBRANCH   1   6
TORSDOF 4
ENDMDL
MODEL 3
REMARK VINA RESULT:      -7.5      1.968      2.893
REMARK SMILES O=C(O)CCc1ccc2c(c1)OCO2
REMARK SMILES IDX 4 1 2 2 1 3 3 4 5 6 6 7 7 8 11 9 8 10 10 11 9 12 12 13 14 14
REMARK SMILES IDX 13 15
REMARK H PARENT 3 5
REMARK Flexibility Score: inf
ROOT
ATOM      1  C   UNL     1       6.386   1.265   0.646  1.00  0.00     0.127 C 
ENDROOT
BRANCH   1   2
ATOM      2  C   UNL     1       5.160   1.319   1.427  1.00  0.00     0.303 C 
ATOM      3  O   UNL     1       4.267   2.160   1.303  1.00  0.00    -0.252 OA
BRANCH   2   4
ATOM      4  O   UNL     1       4.975   0.330   2.406  1.00  0.00    -0.481 OA
ATOM      5  H   UNL     1       4.262  -0.357   2.215  1.00  0.00     0.296 HD
ENDBRANCH   2   4
ENDBRANCH   1   2
BRANCH   1   6
ATOM      6  C   UNL     1       6.195   0.779  -0.737  1.00  0.00     0.047 C 
BRANCH   6   7
ATOM      7  C   UNL     1       6.964  -0.396  -1.155  1.00  0.00    -0.043 A 
ATOM      8  C   UNL     1       7.274  -0.624  -2.487  1.00  0.00     0.008 A 
ATOM      9  C   UNL     1       7.370  -1.329  -0.238  1.00  0.00     0.054 A 
ATOM     10  C   UNL     1       7.966  -1.746  -2.884  1.00  0.00     0.051 A 
ATOM     11  C   UNL     1       8.066  -2.462  -0.613  1.00  0.00     0.166 A 
ATOM     12  C   UNL     1       8.366  -2.674  -1.937  1.00  0.00     0.165 A 
ATOM     13  O   UNL     1       8.568  -3.519   0.125  1.00  0.00    -0.454 OA
ATOM     14  O   UNL     1       9.062  -3.883  -2.004  1.00  0.00    -0.454 OA
ATOM     15  C   UNL     1       8.925  -4.572  -0.783  1.00  0.00     0.468 C 
ENDBRANCH   6   7
ENDBRANCH   1   6
TORSDOF 4
ENDMDL
MODEL 4
REMARK VINA RESULT:      -7.4      1.789      5.283
REMARK SMILES O=C(O)CCc1ccc2c(c1)OCO2
REMARK SMILES IDX 4 1 2 2 1 3 3 4 5 6 6 7 7 8 11 9 8 10 10 11 9 12 12 13 14 14
REMARK SMILES IDX 13 15
REMARK H PARENT 3 5
REMARK Flexibility Score: inf
ROOT
ATOM      1  C   UNL     1       8.308  -0.316  -2.853  1.00  0.00     0.127 C 
ENDROOT
BRANCH   1   2
ATOM      2  C   UNL     1       8.467  -1.745  -3.074  1.00  0.00     0.303 C 
ATOM      3  O   UNL     1       9.532  -2.362  -3.036  1.00  0.00    -0.252 OA
BRANCH   2   4
ATOM      4  O   UNL     1       7.308  -2.486  -3.356  1.00  0.00    -0.481 OA
ATOM      5  H   UNL     1       7.366  -3.480  -3.198  1.00  0.00     0.296 HD
ENDBRANCH   2   4
ENDBRANCH   1   2
BRANCH   1   6
ATOM      6  C   UNL     1       8.761   0.139  -1.521  1.00  0.00     0.047 C 
BRANCH   6   7
ATOM      7  C   UNL     1       7.790   0.099  -0.425  1.00  0.00    -0.043 A 
ATOM      8  C   UNL     1       7.736  -0.969   0.457  1.00  0.00     0.008 A 
ATOM      9  C   UNL     1       6.875   1.105  -0.264  1.00  0.00     0.054 A 
ATOM     10  C   UNL     1       6.800  -1.025   1.466  1.00  0.00     0.051 A 
ATOM     11  C   UNL     1       5.927   1.071   0.741  1.00  0.00     0.166 A 
ATOM     12  C   UNL     1       5.886   0.006   1.609  1.00  0.00     0.165 A 
ATOM     13  O   UNL     1       4.923   1.958   1.088  1.00  0.00    -0.454 OA
ATOM     14  O   UNL     1       4.839   0.252   2.499  1.00  0.00    -0.454 OA
ATOM     15  C   UNL     1       4.035   1.297   2.002  1.00  0.00     0.468 C 
ENDBRANCH   6   7
ENDBRANCH   1   6
TORSDOF 4
ENDMDL
MODEL 5
REMARK VINA RESULT:      -7.4      0.919      2.068
REMARK SMILES O=C(O)CCc1ccc2c(c1)OCO2
REMARK SMILES IDX 4 1 2 2 1 3 3 4 5 6 6 7 7 8 11 9 8 10 10 11 9 12 12 13 14 14
REMARK SMILES IDX 13 15
REMARK H PARENT 3 5
REMARK Flexibility Score: inf
ROOT
ATOM      1  C   UNL     1       5.443   2.717   0.110  1.00  0.00     0.127 C 
ENDROOT
BRANCH   1   2
ATOM      2  C   UNL     1       6.181   3.680   0.912  1.00  0.00     0.303 C 
ATOM      3  O   UNL     1       6.311   3.643   2.137  1.00  0.00    -0.252 OA
BRANCH   2   4
ATOM      4  O   UNL     1       6.800   4.742   0.235  1.00  0.00    -0.481 OA
ATOM      5  H   UNL     1       7.504   4.489  -0.442  1.00  0.00     0.296 HD
ENDBRANCH   2   4
ENDBRANCH   1   2
BRANCH   1   6
ATOM      6  C   UNL     1       5.430   1.350   0.674  1.00  0.00     0.047 C 
BRANCH   6   7
ATOM      7  C   UNL     1       6.258   0.338   0.015  1.00  0.00    -0.043 A 
ATOM      8  C   UNL     1       6.419   0.318  -1.362  1.00  0.00     0.008 A 
ATOM      9  C   UNL     1       6.870  -0.649   0.742  1.00  0.00     0.054 A 
ATOM     10  C   UNL     1       7.168  -0.655  -1.986  1.00  0.00     0.051 A 
ATOM     11  C   UNL     1       7.626  -1.634   0.137  1.00  0.00     0.166 A 
ATOM     12  C   UNL     1       7.778  -1.641  -1.228  1.00  0.00     0.165 A 
ATOM     13  O   UNL     1       8.323  -2.709   0.661  1.00  0.00    -0.454 OA
ATOM     14  O   UNL     1       8.581  -2.740  -1.539  1.00  0.00    -0.454 OA
ATOM     15  C   UNL     1       8.670  -3.590  -0.419  1.00  0.00     0.468 C 
ENDBRANCH   6   7
ENDBRANCH   1   6
TORSDOF 4
ENDMDL
