MODEL 1
REMARK VINA RESULT:      -7.6      0.000      0.000
REMARK SMILES O=C(O)CCc1ccc2c(c1)OCO2
REMARK SMILES IDX 4 1 2 2 1 3 3 4 5 6 6 7 7 8 11 9 8 10 10 11 9 12 12 13 14 14
REMARK SMILES IDX 13 15
REMARK H PARENT 3 5
REMARK Flexibility Score: inf
ROOT
ATOM      1  C   UNL     1       5.426   2.876   0.115  1.00  0.00     0.127 C 
ENDROOT
BRANCH   1   2
ATOM      2  C   UNL     1       6.257   3.854   0.799  1.00  0.00     0.303 C 
ATOM      3  O   UNL     1       6.887   4.764   0.256  1.00  0.00    -0.252 OA
BRANCH   2   4
ATOM      4  O   UNL     1       6.352   3.756   2.196  1.00  0.00    -0.481 OA
ATOM      5  H   UNL     1       6.344   2.823   2.578  1.00  0.00     0.296 HD
ENDBRANCH   2   4
ENDBRANCH   1   2
BRANCH   1   6
ATOM      6  C   UNL     1       5.358   1.565   0.797  1.00  0.00     0.047 C 
BRANCH   6   7
ATOM      7  C   UNL     1       6.137   0.464   0.225  1.00  0.00    -0.043 A 
ATOM      8  C   UNL     1       6.601  -0.579   1.011  1.00  0.00     0.008 A 
ATOM      9  C   UNL     1       6.463   0.454  -1.105  1.00  0.00     0.054 A 
ATOM     10  C   UNL     1       7.364  -1.597   0.482  1.00  0.00     0.051 A 
ATOM     11  C   UNL     1       7.227  -0.557  -1.658  1.00  0.00     0.166 A 
ATOM     12  C   UNL     1       7.679  -1.585  -0.867  1.00  0.00     0.165 A 
ATOM     13  O   UNL     1       7.670  -0.770  -2.951  1.00  0.00    -0.454 OA
ATOM     14  O   UNL     1       8.411  -2.438  -1.695  1.00  0.00    -0.454 OA
ATOM     15  C   UNL     1       8.679  -1.791  -2.917  1.00  0.00     0.468 C 
ENDBRANCH   6   7
ENDBRANCH   1   6
TORSDOF 4
ENDMDL
MODEL 2
REMARK VINA RESULT:      -7.6      2.122      2.508
REMARK SMILES O=C(O)CCc1ccc2c(c1)OCO2
REMARK SMILES IDX 4 1 2 2 1 3 3 4 5 6 6 7 7 8 11 9 8 10 10 11 9 12 12 13 14 14
REMARK SMILES IDX 13 15
REMARK H PARENT 3 5
REMARK Flexibility Score: inf
ROOT
ATOM      1  C   UNL     1       4.713   1.879   0.696  1.00  0.00     0.127 C 
ENDROOT
BRANCH   1   2
ATOM      2  C   UNL     1       4.422   1.150   1.920  1.00  0.00     0.303 C 
ATOM      3  O   UNL     1       5.161   0.321   2.454  1.00  0.00    -0.252 OA
BRANCH   2   4
ATOM      4  O   UNL     1       3.194   1.410   2.548  1.00  0.00    -0.481 OA
ATOM      5  H   UNL     1       3.037   2.361   2.844  1.00  0.00     0.296 HD
ENDBRANCH   2   4
ENDBRANCH   1   2
BRANCH   1   6
ATOM      6  C   UNL     1       6.138   2.239   0.536  1.00  0.00     0.047 C 
BRANCH   6   7
ATOM      7  C   UNL     1       6.985   1.326  -0.235  1.00  0.00    -0.043 A 
ATOM      8  C   UNL     1       8.349   1.537  -0.363  1.00  0.00     0.008 A 
ATOM      9  C   UNL     1       6.442   0.252  -0.888  1.00  0.00     0.054 A 
ATOM     10  C   UNL     1       9.141   0.699  -1.117  1.00  0.00     0.051 A 
ATOM     11  C   UNL     1       7.217  -0.602  -1.650  1.00  0.00     0.166 A 
ATOM     12  C   UNL     1       8.568  -0.382  -1.767  1.00  0.00     0.165 A 
ATOM     13  O   UNL     1       6.892  -1.730  -2.384  1.00  0.00    -0.454 OA
ATOM     14  O   UNL     1       9.072  -1.393  -2.587  1.00  0.00    -0.454 OA
ATOM     15  C   UNL     1       8.006  -2.052  -3.230  1.00  0.00     0.468 C 
ENDBRANCH   6   7
ENDBRANCH   1   6
TORSDOF 4
ENDMDL
MODEL 3
REMARK VINA RESULT:      -7.5      0.972      2.132
REMARK SMILES O=C(O)CCc1ccc2c(c1)OCO2
REMARK SMILES IDX 4 1 2 2 1 3 3 4 5 6 6 7 7 8 11 9 8 10 10 11 9 12 12 13 14 14
REMARK SMILES IDX 13 15
REMARK H PARENT 3 5
REMARK Flexibility Score: inf
ROOT
ATOM      1  C   UNL     1       5.461   2.791   0.082  1.00  0.00     0.127 C 
ENDROOT
BRANCH   1   2
ATOM      2  C   UNL     1       6.141   3.793   0.887  1.00  0.00     0.303 C 
ATOM      3  O   UNL     1       6.120   3.859   2.118  1.00  0.00    -0.252 OA
BRANCH   2   4
ATOM      4  O   UNL     1       6.885   4.771   0.207  1.00  0.00    -0.481 OA
ATOM      5  H   UNL     1       6.359   5.535  -0.189  1.00  0.00     0.296 HD
ENDBRANCH   2   4
ENDBRANCH   1   2
BRANCH   1   6
ATOM      6  C   UNL     1       5.409   1.452   0.708  1.00  0.00     0.047 C 
BRANCH   6   7
ATOM      7  C   UNL     1       6.233   0.396   0.117  1.00  0.00    -0.043 A 
ATOM      8  C   UNL     1       6.471   0.340  -1.248  1.00  0.00     0.008 A 
ATOM      9  C   UNL     1       6.764  -0.597   0.897  1.00  0.00     0.054 A 
ATOM     10  C   UNL     1       7.215  -0.673  -1.810  1.00  0.00     0.051 A 
ATOM     11  C   UNL     1       7.515  -1.623   0.355  1.00  0.00     0.166 A 
ATOM     12  C   UNL     1       7.743  -1.665  -0.999  1.00  0.00     0.165 A 
ATOM     13  O   UNL     1       8.138  -2.712   0.939  1.00  0.00    -0.454 OA
ATOM     14  O   UNL     1       8.519  -2.799  -1.242  1.00  0.00    -0.454 OA
ATOM     15  C   UNL     1       8.511  -3.628  -0.102  1.00  0.00     0.468 C 
ENDBRANCH   6   7
ENDBRANCH   1   6
TORSDOF 4
ENDMDL
MODEL 4
REMARK VINA RESULT:      -7.5      1.977      2.969
REMARK SMILES O=C(O)CCc1ccc2c(c1)OCO2
REMARK SMILES IDX 4 1 2 2 1 3 3 4 5 6 6 7 7 8 11 9 8 10 10 11 9 12 12 13 14 14
REMARK SMILES IDX 13 15
REMARK H PARENT 3 5
REMARK Flexibility Score: inf
ROOT
ATOM      1  C   UNL     1       6.457   1.272   0.725  1.00  0.00     0.127 C 
ENDROOT
BRANCH   1   2
ATOM      2  C   UNL     1       5.256   1.183   1.542  1.00  0.00     0.303 C 
ATOM      3  O   UNL     1       5.042   0.336   2.410  1.00  0.00    -0.252 OA
BRANCH   2   4
ATOM      4  O   UNL     1       4.256   2.142   1.323  1.00  0.00    -0.481 OA
ATOM      5  H   UNL     1       3.545   1.899   0.650  1.00  0.00     0.296 HD
ENDBRANCH   2   4
ENDBRANCH   1   2
BRANCH   1   6
ATOM      6  C   UNL     1       6.262   0.847  -0.677  1.00  0.00     0.047 C 
BRANCH   6   7
ATOM      7  C   UNL     1       7.007  -0.327  -1.139  1.00  0.00    -0.043 A 
ATOM      8  C   UNL     1       7.277  -0.531  -2.484  1.00  0.00     0.008 A 
ATOM      9  C   UNL     1       7.427  -1.282  -0.253  1.00  0.00     0.054 A 
ATOM     10  C   UNL     1       7.946  -1.652  -2.923  1.00  0.00     0.051 A 
ATOM     11  C   UNL     1       8.101  -2.415  -0.670  1.00  0.00     0.166 A 
ATOM     12  C   UNL     1       8.362  -2.603  -2.006  1.00  0.00     0.165 A 
ATOM     13  O   UNL     1       8.611  -3.492   0.033  1.00  0.00    -0.454 OA
ATOM     14  O   UNL     1       9.043  -3.817  -2.116  1.00  0.00    -0.454 OA
ATOM     15  C   UNL     1       8.931  -4.530  -0.906  1.00  0.00     0.468 C 
ENDBRANCH   6   7
ENDBRANCH   1   6
TORSDOF 4
ENDMDL
MODEL 5
REMARK VINA RESULT:      -7.5      1.799      5.285
REMARK SMILES O=C(O)CCc1ccc2c(c1)OCO2
REMARK SMILES IDX 4 1 2 2 1 3 3 4 5 6 6 7 7 8 11 9 8 10 10 11 9 12 12 13 14 14
REMARK SMILES IDX 13 15
REMARK H PARENT 3 5
REMARK Flexibility Score: inf
ROOT
ATOM      1  C   UNL     1       8.309  -0.319  -2.838  1.00  0.00     0.127 C 
ENDROOT
BRANCH   1   2
ATOM      2  C   UNL     1       8.467  -1.747  -3.067  1.00  0.00     0.303 C 
ATOM      3  O   UNL     1       9.533  -2.365  -3.035  1.00  0.00    -0.252 OA
BRANCH   2   4
ATOM      4  O   UNL     1       7.308  -2.487  -3.351  1.00  0.00    -0.481 OA
ATOM      5  H   UNL     1       6.844  -2.908  -2.561  1.00  0.00     0.296 HD
ENDBRANCH   2   4
ENDBRANCH   1   2
BRANCH   1   6
ATOM      6  C   UNL     1       8.765   0.128  -1.505  1.00  0.00     0.047 C 
BRANCH   6   7
ATOM      7  C   UNL     1       7.794   0.093  -0.409  1.00  0.00    -0.043 A 
ATOM      8  C   UNL     1       7.747  -0.967   0.484  1.00  0.00     0.008 A 
ATOM      9  C   UNL     1       6.873   1.095  -0.257  1.00  0.00     0.054 A 
ATOM     10  C   UNL     1       6.811  -1.019   1.492  1.00  0.00     0.051 A 
ATOM     11  C   UNL     1       5.925   1.064   0.748  1.00  0.00     0.166 A 
ATOM     12  C   UNL     1       5.891   0.008   1.626  1.00  0.00     0.165 A 
ATOM     13  O   UNL     1       4.916   1.949   1.086  1.00  0.00    -0.454 OA
ATOM     14  O   UNL     1       4.842   0.255   2.513  1.00  0.00    -0.454 OA
ATOM     15  C   UNL     1       4.032   1.291   2.006  1.00  0.00     0.468 C 
ENDBRANCH   6   7
ENDBRANCH   1   6
TORSDOF 4
ENDMDL
