@<TRIPOS>MOLECULE
/home/cewinharhar/GITHUB/reincatalyze/data/processed/docking_pred/2023-May-17-1006_maxeplen10_maxtrainstep1000_seadep16_gamma099_lrac9e-4_lrcr1e-3_sub6/6e6a373552f8835a6ba7a6c6fa001d8bbefa4498_ligand_6.pdbqt
 15 16 0 0 0
SMALL
GASTEIGER

@<TRIPOS>ATOM
      1  C          6.4570    1.2720    0.7250 C.3     1  UNL1        0.1270
      2  C          5.2560    1.1830    1.5420 C.2     1  UNL1        0.3030
      3  O          5.0420    0.3360    2.4100 O.2     1  UNL1       -0.2520
      4  O          4.2560    2.1420    1.3230 O.3     1  UNL1       -0.4810
      5  H          3.5450    1.8990    0.6500 H       1  UNL1        0.2960
      6  C          6.2620    0.8470   -0.6770 C.3     1  UNL1        0.0470
      7  C          7.0070   -0.3270   -1.1390 C.2     1  UNL1       -0.0430
      8  C          7.2770   -0.5310   -2.4840 C.2     1  UNL1        0.0080
      9  C          7.4270   -1.2820   -0.2530 C.2     1  UNL1        0.0540
     10  C          7.9460   -1.6520   -2.9230 C.2     1  UNL1        0.0510
     11  C          8.1010   -2.4150   -0.6700 C.2     1  UNL1        0.1660
     12  C          8.3620   -2.6030   -2.0060 C.2     1  UNL1        0.1650
     13  O          8.6110   -3.4920    0.0330 O.2     1  UNL1       -0.4540
     14  O          9.0430   -3.8170   -2.1160 O.2     1  UNL1       -0.4540
     15  C          8.9310   -4.5300   -0.9060 C.3     1  UNL1        0.4680
@<TRIPOS>BOND
     1    10     8    1
     2    10    12    2
     3     8     7    2
     4    14    12    1
     5    14    15    1
     6    12    11    1
     7     7     6    1
     8     7     9    1
     9    15    13    1
    10     6     1    1
    11    11     9    2
    12    11    13    1
    13     5     4    1
    14     1     2    1
    15     4     2    1
    16     2     3    2
