@<TRIPOS>MOLECULE
/home/cewinharhar/GITHUB/reincatalyze/data/processed/docking_pred/2023-May-17-1006_maxeplen10_maxtrainstep1000_seadep16_gamma099_lrac9e-4_lrcr1e-3_sub6/6e6a373552f8835a6ba7a6c6fa001d8bbefa4498_ligand_6.pdbqt
 15 16 0 0 0
SMALL
GASTEIGER

@<TRIPOS>ATOM
      1  C          5.4610    2.7910    0.0820 C.3     1  UNL1        0.1270
      2  C          6.1410    3.7930    0.8870 C.2     1  UNL1        0.3030
      3  O          6.1200    3.8590    2.1180 O.2     1  UNL1       -0.2520
      4  O          6.8850    4.7710    0.2070 O.3     1  UNL1       -0.4810
      5  H          6.3590    5.5350   -0.1890 H       1  UNL1        0.2960
      6  C          5.4090    1.4520    0.7080 C.3     1  UNL1        0.0470
      7  C          6.2330    0.3960    0.1170 C.2     1  UNL1       -0.0430
      8  C          6.4710    0.3400   -1.2480 C.2     1  UNL1        0.0080
      9  C          6.7640   -0.5970    0.8970 C.2     1  UNL1        0.0540
     10  C          7.2150   -0.6730   -1.8100 C.2     1  UNL1        0.0510
     11  C          7.5150   -1.6230    0.3550 C.2     1  UNL1        0.1660
     12  C          7.7430   -1.6650   -0.9990 C.2     1  UNL1        0.1650
     13  O          8.1380   -2.7120    0.9390 O.2     1  UNL1       -0.4540
     14  O          8.5190   -2.7990   -1.2420 O.2     1  UNL1       -0.4540
     15  C          8.5110   -3.6280   -0.1020 C.3     1  UNL1        0.4680
@<TRIPOS>BOND
     1    10     8    1
     2    10    12    2
     3     8     7    2
     4    14    12    1
     5    14    15    1
     6    12    11    1
     7     5     4    1
     8    15    13    1
     9     1     6    1
    10     1     2    1
    11     7     6    1
    12     7     9    1
    13     4     2    1
    14    11     9    2
    15    11    13    1
    16     2     3    2
