@<TRIPOS>MOLECULE
/home/cewinharhar/GITHUB/reincatalyze/data/processed/docking_pred/2023-May-17-1006_maxeplen10_maxtrainstep1000_seadep16_gamma099_lrac9e-4_lrcr1e-3_sub6/6e6a373552f8835a6ba7a6c6fa001d8bbefa4498_ligand_6.pdbqt
 15 16 0 0 0
SMALL
GASTEIGER

@<TRIPOS>ATOM
      1  C          8.3090   -0.3190   -2.8380 C.3     1  UNL1        0.1270
      2  C          8.4670   -1.7470   -3.0670 C.2     1  UNL1        0.3030
      3  O          9.5330   -2.3650   -3.0350 O.2     1  UNL1       -0.2520
      4  O          7.3080   -2.4870   -3.3510 O.3     1  UNL1       -0.4810
      5  H          6.8440   -2.9080   -2.5610 H       1  UNL1        0.2960
      6  C          8.7650    0.1280   -1.5050 C.3     1  UNL1        0.0470
      7  C          7.7940    0.0930   -0.4090 C.2     1  UNL1       -0.0430
      8  C          7.7470   -0.9670    0.4840 C.2     1  UNL1        0.0080
      9  C          6.8730    1.0950   -0.2570 C.2     1  UNL1        0.0540
     10  C          6.8110   -1.0190    1.4920 C.2     1  UNL1        0.0510
     11  C          5.9250    1.0640    0.7480 C.2     1  UNL1        0.1660
     12  C          5.8910    0.0080    1.6260 C.2     1  UNL1        0.1650
     13  O          4.9160    1.9490    1.0860 O.2     1  UNL1       -0.4540
     14  O          4.8420    0.2550    2.5130 O.2     1  UNL1       -0.4540
     15  C          4.0320    1.2910    2.0060 C.3     1  UNL1        0.4680
@<TRIPOS>BOND
     1     4     2    1
     2     4     5    1
     3     2     3    2
     4     2     1    1
     5     1     6    1
     6     6     7    1
     7     7     9    2
     8     7     8    1
     9     9    11    1
    10     8    10    2
    11    11    13    1
    12    11    12    2
    13    13    15    1
    14    10    12    1
    15    12    14    1
    16    15    14    1
