@<TRIPOS>MOLECULE
/home/cewinharhar/GITHUB/reincatalyze/data/processed/docking_pred/2023-May-17-1006_maxeplen10_maxtrainstep1000_seadep16_gamma099_lrac9e-4_lrcr1e-3_sub6/6e6a373552f8835a6ba7a6c6fa001d8bbefa4498_ligand_6.pdbqt
 15 16 0 0 0
SMALL
GASTEIGER

@<TRIPOS>ATOM
      1  C          5.4260    2.8760    0.1150 C.3     1  UNL1        0.1270
      2  C          6.2570    3.8540    0.7990 C.2     1  UNL1        0.3030
      3  O          6.8870    4.7640    0.2560 O.2     1  UNL1       -0.2520
      4  O          6.3520    3.7560    2.1960 O.3     1  UNL1       -0.4810
      5  H          6.3440    2.8230    2.5780 H       1  UNL1        0.2960
      6  C          5.3580    1.5650    0.7970 C.3     1  UNL1        0.0470
      7  C          6.1370    0.4640    0.2250 C.2     1  UNL1       -0.0430
      8  C          6.6010   -0.5790    1.0110 C.2     1  UNL1        0.0080
      9  C          6.4630    0.4540   -1.1050 C.2     1  UNL1        0.0540
     10  C          7.3640   -1.5970    0.4820 C.2     1  UNL1        0.0510
     11  C          7.2270   -0.5570   -1.6580 C.2     1  UNL1        0.1660
     12  C          7.6790   -1.5850   -0.8670 C.2     1  UNL1        0.1650
     13  O          7.6700   -0.7700   -2.9510 O.2     1  UNL1       -0.4540
     14  O          8.4110   -2.4380   -1.6950 O.2     1  UNL1       -0.4540
     15  C          8.6790   -1.7910   -2.9170 C.3     1  UNL1        0.4680
@<TRIPOS>BOND
     1    13    15    1
     2    13    11    1
     3    15    14    1
     4    14    12    1
     5    11     9    1
     6    11    12    2
     7     9     7    2
     8    12    10    1
     9     1     6    1
    10     1     2    1
    11     7     6    1
    12     7     8    1
    13     3     2    2
    14    10     8    2
    15     2     4    1
    16     4     5    1
