@<TRIPOS>MOLECULE
/home/cewinharhar/GITHUB/reincatalyze/data/processed/docking_pred/2023-May-17-1006_maxeplen10_maxtrainstep1000_seadep16_gamma099_lrac9e-4_lrcr1e-3_sub6/6eca206a948153dc2868ed9d680cd756ab453321_ligand_6.pdbqt
 15 16 0 0 0
SMALL
GASTEIGER

@<TRIPOS>ATOM
      1  C          4.6930    1.8760    0.6880 C.3     1  UNL1        0.1270
      2  C          4.4040    1.1590    1.9200 C.2     1  UNL1        0.3030
      3  O          5.1440    0.3340    2.4590 O.2     1  UNL1       -0.2520
      4  O          3.1790    1.4270    2.5490 O.3     1  UNL1       -0.4810
      5  H          2.6650    0.6250    2.8820 H       1  UNL1        0.2960
      6  C          6.1160    2.2460    0.5280 C.3     1  UNL1        0.0470
      7  C          6.9700    1.3370   -0.2390 C.2     1  UNL1       -0.0430
      8  C          8.3330    1.5560   -0.3650 C.2     1  UNL1        0.0080
      9  C          6.4360    0.2580   -0.8910 C.2     1  UNL1        0.0540
     10  C          9.1310    0.7220   -1.1160 C.2     1  UNL1        0.0510
     11  C          7.2170   -0.5930   -1.6500 C.2     1  UNL1        0.1660
     12  C          8.5670   -0.3640   -1.7650 C.2     1  UNL1        0.1650
     13  O          6.9010   -1.7240   -2.3820 O.2     1  UNL1       -0.4540
     14  O          9.0790   -1.3740   -2.5810 O.2     1  UNL1       -0.4540
     15  C          8.0190   -2.0410   -3.2250 C.3     1  UNL1        0.4680
@<TRIPOS>BOND
     1    15    14    1
     2    15    13    1
     3    14    12    1
     4    13    11    1
     5    12    11    2
     6    12    10    1
     7    11     9    1
     8    10     8    2
     9     9     7    2
    10     8     7    1
    11     7     6    1
    12     6     1    1
    13     1     2    1
    14     2     3    2
    15     2     4    1
    16     4     5    1
