MODEL 1
REMARK VINA RESULT:      -7.7      0.000      0.000
REMARK SMILES O=C(O)CCc1ccc2c(c1)OCO2
REMARK SMILES IDX 4 1 2 2 1 3 3 4 5 6 6 7 7 8 11 9 8 10 10 11 9 12 12 13 14 14
REMARK SMILES IDX 13 15
REMARK H PARENT 3 5
REMARK Flexibility Score: inf
ROOT
ATOM      1  C   UNL     1       5.416   2.878   0.116  1.00  0.00     0.127 C 
ENDROOT
BRANCH   1   2
ATOM      2  C   UNL     1       6.240   3.860   0.804  1.00  0.00     0.303 C 
ATOM      3  O   UNL     1       6.868   4.773   0.264  1.00  0.00    -0.252 OA
BRANCH   2   4
ATOM      4  O   UNL     1       6.329   3.762   2.201  1.00  0.00    -0.481 OA
ATOM      5  H   UNL     1       5.999   4.558   2.725  1.00  0.00     0.296 HD
ENDBRANCH   2   4
ENDBRANCH   1   2
BRANCH   1   6
ATOM      6  C   UNL     1       5.348   1.568   0.799  1.00  0.00     0.047 C 
BRANCH   6   7
ATOM      7  C   UNL     1       6.128   0.467   0.229  1.00  0.00    -0.043 A 
ATOM      8  C   UNL     1       6.595  -0.574   1.018  1.00  0.00     0.008 A 
ATOM      9  C   UNL     1       6.453   0.453  -1.101  1.00  0.00     0.054 A 
ATOM     10  C   UNL     1       7.359  -1.591   0.491  1.00  0.00     0.051 A 
ATOM     11  C   UNL     1       7.217  -0.557  -1.652  1.00  0.00     0.166 A 
ATOM     12  C   UNL     1       7.673  -1.583  -0.859  1.00  0.00     0.165 A 
ATOM     13  O   UNL     1       7.660  -0.774  -2.945  1.00  0.00    -0.454 OA
ATOM     14  O   UNL     1       8.405  -2.437  -1.685  1.00  0.00    -0.454 OA
ATOM     15  C   UNL     1       8.671  -1.793  -2.910  1.00  0.00     0.468 C 
ENDBRANCH   6   7
ENDBRANCH   1   6
TORSDOF 4
ENDMDL
MODEL 2
REMARK VINA RESULT:      -7.6      2.122      2.508
REMARK SMILES O=C(O)CCc1ccc2c(c1)OCO2
REMARK SMILES IDX 4 1 2 2 1 3 3 4 5 6 6 7 7 8 11 9 8 10 10 11 9 12 12 13 14 14
REMARK SMILES IDX 13 15
REMARK H PARENT 3 5
REMARK Flexibility Score: inf
ROOT
ATOM      1  C   UNL     1       4.693   1.876   0.688  1.00  0.00     0.127 C 
ENDROOT
BRANCH   1   2
ATOM      2  C   UNL     1       4.404   1.159   1.920  1.00  0.00     0.303 C 
ATOM      3  O   UNL     1       5.144   0.334   2.459  1.00  0.00    -0.252 OA
BRANCH   2   4
ATOM      4  O   UNL     1       3.179   1.427   2.549  1.00  0.00    -0.481 OA
ATOM      5  H   UNL     1       2.665   0.625   2.882  1.00  0.00     0.296 HD
ENDBRANCH   2   4
ENDBRANCH   1   2
BRANCH   1   6
ATOM      6  C   UNL     1       6.116   2.246   0.528  1.00  0.00     0.047 C 
BRANCH   6   7
ATOM      7  C   UNL     1       6.970   1.337  -0.239  1.00  0.00    -0.043 A 
ATOM      8  C   UNL     1       8.333   1.556  -0.365  1.00  0.00     0.008 A 
ATOM      9  C   UNL     1       6.436   0.258  -0.891  1.00  0.00     0.054 A 
ATOM     10  C   UNL     1       9.131   0.722  -1.116  1.00  0.00     0.051 A 
ATOM     11  C   UNL     1       7.217  -0.593  -1.650  1.00  0.00     0.166 A 
ATOM     12  C   UNL     1       8.567  -0.364  -1.765  1.00  0.00     0.165 A 
ATOM     13  O   UNL     1       6.901  -1.724  -2.382  1.00  0.00    -0.454 OA
ATOM     14  O   UNL     1       9.079  -1.374  -2.581  1.00  0.00    -0.454 OA
ATOM     15  C   UNL     1       8.019  -2.041  -3.225  1.00  0.00     0.468 C 
ENDBRANCH   6   7
ENDBRANCH   1   6
TORSDOF 4
ENDMDL
MODEL 3
REMARK VINA RESULT:      -7.5      1.957      2.890
REMARK SMILES O=C(O)CCc1ccc2c(c1)OCO2
REMARK SMILES IDX 4 1 2 2 1 3 3 4 5 6 6 7 7 8 11 9 8 10 10 11 9 12 12 13 14 14
REMARK SMILES IDX 13 15
REMARK H PARENT 3 5
REMARK Flexibility Score: inf
ROOT
ATOM      1  C   UNL     1       6.414   1.321   0.590  1.00  0.00     0.127 C 
ENDROOT
BRANCH   1   2
ATOM      2  C   UNL     1       5.217   1.334   1.417  1.00  0.00     0.303 C 
ATOM      3  O   UNL     1       4.306   2.162   1.348  1.00  0.00    -0.252 OA
BRANCH   2   4
ATOM      4  O   UNL     1       5.086   0.318   2.377  1.00  0.00    -0.481 OA
ATOM      5  H   UNL     1       5.889   0.154   2.964  1.00  0.00     0.296 HD
ENDBRANCH   2   4
ENDBRANCH   1   2
BRANCH   1   6
ATOM      6  C   UNL     1       6.195   0.791  -0.773  1.00  0.00     0.047 C 
BRANCH   6   7
ATOM      7  C   UNL     1       6.971  -0.384  -1.175  1.00  0.00    -0.043 A 
ATOM      8  C   UNL     1       7.306  -0.613  -2.501  1.00  0.00     0.008 A 
ATOM      9  C   UNL     1       7.356  -1.319  -0.250  1.00  0.00     0.054 A 
ATOM     10  C   UNL     1       8.004  -1.736  -2.885  1.00  0.00     0.051 A 
ATOM     11  C   UNL     1       8.058  -2.453  -0.613  1.00  0.00     0.166 A 
ATOM     12  C   UNL     1       8.384  -2.665  -1.930  1.00  0.00     0.165 A 
ATOM     13  O   UNL     1       8.542  -3.512   0.136  1.00  0.00    -0.454 OA
ATOM     14  O   UNL     1       9.079  -3.875  -1.983  1.00  0.00    -0.454 OA
ATOM     15  C   UNL     1       8.916  -4.565  -0.765  1.00  0.00     0.468 C 
ENDBRANCH   6   7
ENDBRANCH   1   6
TORSDOF 4
ENDMDL
MODEL 4
REMARK VINA RESULT:      -7.5      1.792      5.287
REMARK SMILES O=C(O)CCc1ccc2c(c1)OCO2
REMARK SMILES IDX 4 1 2 2 1 3 3 4 5 6 6 7 7 8 11 9 8 10 10 11 9 12 12 13 14 14
REMARK SMILES IDX 13 15
REMARK H PARENT 3 5
REMARK Flexibility Score: inf
ROOT
ATOM      1  C   UNL     1       8.303  -0.319  -2.856  1.00  0.00     0.127 C 
ENDROOT
BRANCH   1   2
ATOM      2  C   UNL     1       8.467  -1.749  -3.068  1.00  0.00     0.303 C 
ATOM      3  O   UNL     1       9.535  -2.363  -3.023  1.00  0.00    -0.252 OA
BRANCH   2   4
ATOM      4  O   UNL     1       7.312  -2.496  -3.348  1.00  0.00    -0.481 OA
ATOM      5  H   UNL     1       6.783  -2.211  -4.158  1.00  0.00     0.296 HD
ENDBRANCH   2   4
ENDBRANCH   1   2
BRANCH   1   6
ATOM      6  C   UNL     1       8.757   0.146  -1.528  1.00  0.00     0.047 C 
BRANCH   6   7
ATOM      7  C   UNL     1       7.789   0.107  -0.430  1.00  0.00    -0.043 A 
ATOM      8  C   UNL     1       7.742  -0.956   0.458  1.00  0.00     0.008 A 
ATOM      9  C   UNL     1       6.869   1.110  -0.271  1.00  0.00     0.054 A 
ATOM     10  C   UNL     1       6.809  -1.012   1.469  1.00  0.00     0.051 A 
ATOM     11  C   UNL     1       5.924   1.076   0.737  1.00  0.00     0.166 A 
ATOM     12  C   UNL     1       5.890   0.016   1.610  1.00  0.00     0.165 A 
ATOM     13  O   UNL     1       4.916   1.960   1.081  1.00  0.00    -0.454 OA
ATOM     14  O   UNL     1       4.844   0.261   2.501  1.00  0.00    -0.454 OA
ATOM     15  C   UNL     1       4.034   1.299   2.001  1.00  0.00     0.468 C 
ENDBRANCH   6   7
ENDBRANCH   1   6
TORSDOF 4
ENDMDL
MODEL 5
REMARK VINA RESULT:      -7.4      0.932      2.104
REMARK SMILES O=C(O)CCc1ccc2c(c1)OCO2
REMARK SMILES IDX 4 1 2 2 1 3 3 4 5 6 6 7 7 8 11 9 8 10 10 11 9 12 12 13 14 14
REMARK SMILES IDX 13 15
REMARK H PARENT 3 5
REMARK Flexibility Score: inf
ROOT
ATOM      1  C   UNL     1       5.320   2.893   0.188  1.00  0.00     0.127 C 
ENDROOT
BRANCH   1   2
ATOM      2  C   UNL     1       6.114   3.892   0.886  1.00  0.00     0.303 C 
ATOM      3  O   UNL     1       6.178   4.032   2.108  1.00  0.00    -0.252 OA
BRANCH   2   4
ATOM      4  O   UNL     1       6.873   4.775   0.101  1.00  0.00    -0.481 OA
ATOM      5  H   UNL     1       6.421   5.139  -0.723  1.00  0.00     0.296 HD
ENDBRANCH   2   4
ENDBRANCH   1   2
BRANCH   1   6
ATOM      6  C   UNL     1       5.343   1.558   0.823  1.00  0.00     0.047 C 
BRANCH   6   7
ATOM      7  C   UNL     1       6.175   0.526   0.200  1.00  0.00    -0.043 A 
ATOM      8  C   UNL     1       6.430   0.526  -1.163  1.00  0.00     0.008 A 
ATOM      9  C   UNL     1       6.696  -0.498   0.945  1.00  0.00     0.054 A 
ATOM     10  C   UNL     1       7.182  -0.464  -1.756  1.00  0.00     0.051 A 
ATOM     11  C   UNL     1       7.453  -1.502   0.372  1.00  0.00     0.166 A 
ATOM     12  C   UNL     1       7.699  -1.488  -0.980  1.00  0.00     0.165 A 
ATOM     13  O   UNL     1       8.070  -2.614   0.919  1.00  0.00    -0.454 OA
ATOM     14  O   UNL     1       8.479  -2.612  -1.259  1.00  0.00    -0.454 OA
ATOM     15  C   UNL     1       8.456  -3.486  -0.154  1.00  0.00     0.468 C 
ENDBRANCH   6   7
ENDBRANCH   1   6
TORSDOF 4
ENDMDL
