@<TRIPOS>MOLECULE
/home/cewinharhar/GITHUB/reincatalyze/data/processed/docking_pred/2023-May-17-1006_maxeplen10_maxtrainstep1000_seadep16_gamma099_lrac9e-4_lrcr1e-3_sub6/6eca206a948153dc2868ed9d680cd756ab453321_ligand_6.pdbqt
 15 16 0 0 0
SMALL
GASTEIGER

@<TRIPOS>ATOM
      1  C          6.4140    1.3210    0.5900 C.3     1  UNL1        0.1270
      2  C          5.2170    1.3340    1.4170 C.2     1  UNL1        0.3030
      3  O          4.3060    2.1620    1.3480 O.2     1  UNL1       -0.2520
      4  O          5.0860    0.3180    2.3770 O.3     1  UNL1       -0.4810
      5  H          5.8890    0.1540    2.9640 H       1  UNL1        0.2960
      6  C          6.1950    0.7910   -0.7730 C.3     1  UNL1        0.0470
      7  C          6.9710   -0.3840   -1.1750 C.2     1  UNL1       -0.0430
      8  C          7.3060   -0.6130   -2.5010 C.2     1  UNL1        0.0080
      9  C          7.3560   -1.3190   -0.2500 C.2     1  UNL1        0.0540
     10  C          8.0040   -1.7360   -2.8850 C.2     1  UNL1        0.0510
     11  C          8.0580   -2.4530   -0.6130 C.2     1  UNL1        0.1660
     12  C          8.3840   -2.6650   -1.9300 C.2     1  UNL1        0.1650
     13  O          8.5420   -3.5120    0.1360 O.2     1  UNL1       -0.4540
     14  O          9.0790   -3.8750   -1.9830 O.2     1  UNL1       -0.4540
     15  C          8.9160   -4.5650   -0.7650 C.3     1  UNL1        0.4680
@<TRIPOS>BOND
     1    10     8    1
     2    10    12    2
     3     8     7    2
     4    14    12    1
     5    14    15    1
     6    12    11    1
     7     7     6    1
     8     7     9    1
     9     6     1    1
    10    15    13    1
    11    11     9    2
    12    11    13    1
    13     1     2    1
    14     3     2    2
    15     2     4    1
    16     4     5    1
