@<TRIPOS>MOLECULE
/home/cewinharhar/GITHUB/reincatalyze/data/processed/docking_pred/2023-May-17-1006_maxeplen10_maxtrainstep1000_seadep16_gamma099_lrac9e-4_lrcr1e-3_sub6/6eca206a948153dc2868ed9d680cd756ab453321_ligand_6.pdbqt
 15 16 0 0 0
SMALL
GASTEIGER

@<TRIPOS>ATOM
      1  C          5.3200    2.8930    0.1880 C.3     1  UNL1        0.1270
      2  C          6.1140    3.8920    0.8860 C.2     1  UNL1        0.3030
      3  O          6.1780    4.0320    2.1080 O.2     1  UNL1       -0.2520
      4  O          6.8730    4.7750    0.1010 O.3     1  UNL1       -0.4810
      5  H          6.4210    5.1390   -0.7230 H       1  UNL1        0.2960
      6  C          5.3430    1.5580    0.8230 C.3     1  UNL1        0.0470
      7  C          6.1750    0.5260    0.2000 C.2     1  UNL1       -0.0430
      8  C          6.4300    0.5260   -1.1630 C.2     1  UNL1        0.0080
      9  C          6.6960   -0.4980    0.9450 C.2     1  UNL1        0.0540
     10  C          7.1820   -0.4640   -1.7560 C.2     1  UNL1        0.0510
     11  C          7.4530   -1.5020    0.3720 C.2     1  UNL1        0.1660
     12  C          7.6990   -1.4880   -0.9800 C.2     1  UNL1        0.1650
     13  O          8.0700   -2.6140    0.9190 O.2     1  UNL1       -0.4540
     14  O          8.4790   -2.6120   -1.2590 O.2     1  UNL1       -0.4540
     15  C          8.4560   -3.4860   -0.1540 C.3     1  UNL1        0.4680
@<TRIPOS>BOND
     1    10     8    1
     2    10    12    2
     3    14    12    1
     4    14    15    1
     5     8     7    2
     6    12    11    1
     7     5     4    1
     8    15    13    1
     9     4     2    1
    10     1     6    1
    11     1     2    1
    12     7     6    1
    13     7     9    1
    14    11    13    1
    15    11     9    2
    16     2     3    2
