@<TRIPOS>MOLECULE
/home/cewinharhar/GITHUB/reincatalyze/data/processed/docking_pred/2023-May-17-1006_maxeplen10_maxtrainstep1000_seadep16_gamma099_lrac9e-4_lrcr1e-3_sub6/6eca206a948153dc2868ed9d680cd756ab453321_ligand_6.pdbqt
 15 16 0 0 0
SMALL
GASTEIGER

@<TRIPOS>ATOM
      1  C          8.3030   -0.3190   -2.8560 C.3     1  UNL1        0.1270
      2  C          8.4670   -1.7490   -3.0680 C.2     1  UNL1        0.3030
      3  O          9.5350   -2.3630   -3.0230 O.2     1  UNL1       -0.2520
      4  O          7.3120   -2.4960   -3.3480 O.3     1  UNL1       -0.4810
      5  H          6.7830   -2.2110   -4.1580 H       1  UNL1        0.2960
      6  C          8.7570    0.1460   -1.5280 C.3     1  UNL1        0.0470
      7  C          7.7890    0.1070   -0.4300 C.2     1  UNL1       -0.0430
      8  C          7.7420   -0.9560    0.4580 C.2     1  UNL1        0.0080
      9  C          6.8690    1.1100   -0.2710 C.2     1  UNL1        0.0540
     10  C          6.8090   -1.0120    1.4690 C.2     1  UNL1        0.0510
     11  C          5.9240    1.0760    0.7370 C.2     1  UNL1        0.1660
     12  C          5.8900    0.0160    1.6100 C.2     1  UNL1        0.1650
     13  O          4.9160    1.9600    1.0810 O.2     1  UNL1       -0.4540
     14  O          4.8440    0.2610    2.5010 O.2     1  UNL1       -0.4540
     15  C          4.0340    1.2990    2.0010 C.3     1  UNL1        0.4680
@<TRIPOS>BOND
     1     5     4    1
     2     4     2    1
     3     2     3    2
     4     2     1    1
     5     1     6    1
     6     6     7    1
     7     7     9    2
     8     7     8    1
     9     9    11    1
    10     8    10    2
    11    11    13    1
    12    11    12    2
    13    13    15    1
    14    10    12    1
    15    12    14    1
    16    15    14    1
