@<TRIPOS>MOLECULE
/home/cewinharhar/GITHUB/reincatalyze/data/processed/docking_pred/2023-May-17-1006_maxeplen10_maxtrainstep1000_seadep16_gamma099_lrac9e-4_lrcr1e-3_sub6/7076afde4386affa59e586c5ec9b2181426a643f_ligand_6.pdbqt
 15 16 0 0 0
SMALL
GASTEIGER

@<TRIPOS>ATOM
      1  C          5.5420    2.6260    0.2100 C.3     1  UNL1        0.1270
      2  C          6.2210    3.6840    0.9420 C.2     1  UNL1        0.3030
      3  O          6.3390    3.7480    2.1670 O.2     1  UNL1       -0.2520
      4  O          6.7900    4.7240    0.1900 O.3     1  UNL1       -0.4810
      5  H          6.2080    5.5330    0.0370 H       1  UNL1        0.2960
      6  C          5.6480    1.2950    0.8450 C.3     1  UNL1        0.0470
      7  C          6.4220    0.2690    0.1420 C.2     1  UNL1       -0.0430
      8  C          6.5260    0.2600   -1.2400 C.2     1  UNL1        0.0080
      9  C          7.0380   -0.7400    0.8340 C.2     1  UNL1        0.0540
     10  C          7.2240   -0.7240   -1.9040 C.2     1  UNL1        0.0510
     11  C          7.7440   -1.7370    0.1890 C.2     1  UNL1        0.1660
     12  C          7.8400   -1.7330   -1.1820 C.2     1  UNL1        0.1650
     13  O          8.4350   -2.8350    0.6730 O.2     1  UNL1       -0.4540
     14  O          8.6010   -2.8480   -1.5360 O.2     1  UNL1       -0.4540
     15  C          8.7140   -3.7120   -0.4290 C.3     1  UNL1        0.4680
@<TRIPOS>BOND
     1    10     8    1
     2    10    12    2
     3    14    12    1
     4    14    15    1
     5     8     7    2
     6    12    11    1
     7    15    13    1
     8     5     4    1
     9     7     9    1
    10     7     6    1
    11    11    13    1
    12    11     9    2
    13     4     2    1
    14     1     6    1
    15     1     2    1
    16     2     3    2
