MODEL 1
REMARK VINA RESULT:      -7.7      0.000      0.000
REMARK SMILES O=C(O)CCc1ccc2c(c1)OCO2
REMARK SMILES IDX 4 1 2 2 1 3 3 4 5 6 6 7 7 8 11 9 8 10 10 11 9 12 12 13 14 14
REMARK SMILES IDX 13 15
REMARK H PARENT 3 5
REMARK Flexibility Score: inf
ROOT
ATOM      1  C   UNL     1       5.407   2.885   0.108  1.00  0.00     0.127 C 
ENDROOT
BRANCH   1   2
ATOM      2  C   UNL     1       6.240   3.860   0.795  1.00  0.00     0.303 C 
ATOM      3  O   UNL     1       6.865   4.775   0.256  1.00  0.00    -0.252 OA
BRANCH   2   4
ATOM      4  O   UNL     1       6.341   3.751   2.191  1.00  0.00    -0.481 OA
ATOM      5  H   UNL     1       5.484   3.559   2.686  1.00  0.00     0.296 HD
ENDBRANCH   2   4
ENDBRANCH   1   2
BRANCH   1   6
ATOM      6  C   UNL     1       5.324   1.578   0.793  1.00  0.00     0.047 C 
BRANCH   6   7
ATOM      7  C   UNL     1       6.103   0.470   0.236  1.00  0.00    -0.043 A 
ATOM      8  C   UNL     1       6.552  -0.572   1.032  1.00  0.00     0.008 A 
ATOM      9  C   UNL     1       6.445   0.452  -1.090  1.00  0.00     0.054 A 
ATOM     10  C   UNL     1       7.316  -1.596   0.516  1.00  0.00     0.051 A 
ATOM     11  C   UNL     1       7.209  -0.565  -1.630  1.00  0.00     0.166 A 
ATOM     12  C   UNL     1       7.647  -1.592  -0.829  1.00  0.00     0.165 A 
ATOM     13  O   UNL     1       7.667  -0.786  -2.917  1.00  0.00    -0.454 OA
ATOM     14  O   UNL     1       8.384  -2.452  -1.645  1.00  0.00    -0.454 OA
ATOM     15  C   UNL     1       8.670  -1.812  -2.867  1.00  0.00     0.468 C 
ENDBRANCH   6   7
ENDBRANCH   1   6
TORSDOF 4
ENDMDL
MODEL 2
REMARK VINA RESULT:      -7.6      2.126      2.515
REMARK SMILES O=C(O)CCc1ccc2c(c1)OCO2
REMARK SMILES IDX 4 1 2 2 1 3 3 4 5 6 6 7 7 8 11 9 8 10 10 11 9 12 12 13 14 14
REMARK SMILES IDX 13 15
REMARK H PARENT 3 5
REMARK Flexibility Score: inf
ROOT
ATOM      1  C   UNL     1       4.650   1.837   0.662  1.00  0.00     0.127 C 
ENDROOT
BRANCH   1   2
ATOM      2  C   UNL     1       4.388   1.149   1.916  1.00  0.00     0.303 C 
ATOM      3  O   UNL     1       5.144   0.345   2.464  1.00  0.00    -0.252 OA
BRANCH   2   4
ATOM      4  O   UNL     1       3.171   1.423   2.559  1.00  0.00    -0.481 OA
ATOM      5  H   UNL     1       2.578   2.109   2.117  1.00  0.00     0.296 HD
ENDBRANCH   2   4
ENDBRANCH   1   2
BRANCH   1   6
ATOM      6  C   UNL     1       6.062   2.239   0.481  1.00  0.00     0.047 C 
BRANCH   6   7
ATOM      7  C   UNL     1       6.935   1.330  -0.263  1.00  0.00    -0.043 A 
ATOM      8  C   UNL     1       8.300   1.552  -0.359  1.00  0.00     0.008 A 
ATOM      9  C   UNL     1       6.418   0.247  -0.923  1.00  0.00     0.054 A 
ATOM     10  C   UNL     1       9.118   0.717  -1.088  1.00  0.00     0.051 A 
ATOM     11  C   UNL     1       7.219  -0.605  -1.661  1.00  0.00     0.166 A 
ATOM     12  C   UNL     1       8.571  -0.373  -1.746  1.00  0.00     0.165 A 
ATOM     13  O   UNL     1       6.923  -1.739  -2.395  1.00  0.00    -0.454 OA
ATOM     14  O   UNL     1       9.104  -1.384  -2.546  1.00  0.00    -0.454 OA
ATOM     15  C   UNL     1       8.060  -2.057  -3.212  1.00  0.00     0.468 C 
ENDBRANCH   6   7
ENDBRANCH   1   6
TORSDOF 4
ENDMDL
MODEL 3
REMARK VINA RESULT:      -7.5      1.819      5.261
REMARK SMILES O=C(O)CCc1ccc2c(c1)OCO2
REMARK SMILES IDX 4 1 2 2 1 3 3 4 5 6 6 7 7 8 11 9 8 10 10 11 9 12 12 13 14 14
REMARK SMILES IDX 13 15
REMARK H PARENT 3 5
REMARK Flexibility Score: inf
ROOT
ATOM      1  C   UNL     1       8.239  -0.219  -2.830  1.00  0.00     0.127 C 
ENDROOT
BRANCH   1   2
ATOM      2  C   UNL     1       8.476  -1.639  -3.041  1.00  0.00     0.303 C 
ATOM      3  O   UNL     1       9.563  -2.209  -2.931  1.00  0.00    -0.252 OA
BRANCH   2   4
ATOM      4  O   UNL     1       7.374  -2.430  -3.401  1.00  0.00    -0.481 OA
ATOM      5  H   UNL     1       7.293  -3.320  -2.934  1.00  0.00     0.296 HD
ENDBRANCH   2   4
ENDBRANCH   1   2
BRANCH   1   6
ATOM      6  C   UNL     1       8.700   0.277  -1.516  1.00  0.00     0.047 C 
BRANCH   6   7
ATOM      7  C   UNL     1       7.754   0.219  -0.400  1.00  0.00    -0.043 A 
ATOM      8  C   UNL     1       7.789  -0.812   0.526  1.00  0.00     0.008 A 
ATOM      9  C   UNL     1       6.776   1.167  -0.261  1.00  0.00     0.054 A 
ATOM     10  C   UNL     1       6.878  -0.889   1.556  1.00  0.00     0.051 A 
ATOM     11  C   UNL     1       5.851   1.111   0.765  1.00  0.00     0.166 A 
ATOM     12  C   UNL     1       5.899   0.084   1.676  1.00  0.00     0.165 A 
ATOM     13  O   UNL     1       4.796   1.943   1.096  1.00  0.00    -0.454 OA
ATOM     14  O   UNL     1       4.853   0.296   2.577  1.00  0.00    -0.454 OA
ATOM     15  C   UNL     1       3.971   1.263   2.055  1.00  0.00     0.468 C 
ENDBRANCH   6   7
ENDBRANCH   1   6
TORSDOF 4
ENDMDL
MODEL 4
REMARK VINA RESULT:      -7.4      1.953      2.854
REMARK SMILES O=C(O)CCc1ccc2c(c1)OCO2
REMARK SMILES IDX 4 1 2 2 1 3 3 4 5 6 6 7 7 8 11 9 8 10 10 11 9 12 12 13 14 14
REMARK SMILES IDX 13 15
REMARK H PARENT 3 5
REMARK Flexibility Score: inf
ROOT
ATOM      1  C   UNL     1       6.424   1.325   0.695  1.00  0.00     0.127 C 
ENDROOT
BRANCH   1   2
ATOM      2  C   UNL     1       5.182   1.349   1.452  1.00  0.00     0.303 C 
ATOM      3  O   UNL     1       4.266   2.158   1.301  1.00  0.00    -0.252 OA
BRANCH   2   4
ATOM      4  O   UNL     1       5.011   0.366   2.439  1.00  0.00    -0.481 OA
ATOM      5  H   UNL     1       4.656   0.685   3.328  1.00  0.00     0.296 HD
ENDBRANCH   2   4
ENDBRANCH   1   2
BRANCH   1   6
ATOM      6  C   UNL     1       6.260   0.912  -0.715  1.00  0.00     0.047 C 
BRANCH   6   7
ATOM      7  C   UNL     1       7.004  -0.266  -1.167  1.00  0.00    -0.043 A 
ATOM      8  C   UNL     1       7.282  -0.477  -2.509  1.00  0.00     0.008 A 
ATOM      9  C   UNL     1       7.415  -1.220  -0.274  1.00  0.00     0.054 A 
ATOM     10  C   UNL     1       7.950  -1.602  -2.939  1.00  0.00     0.051 A 
ATOM     11  C   UNL     1       8.087  -2.356  -0.682  1.00  0.00     0.166 A 
ATOM     12  C   UNL     1       8.357  -2.551  -2.015  1.00  0.00     0.165 A 
ATOM     13  O   UNL     1       8.588  -3.432   0.029  1.00  0.00    -0.454 OA
ATOM     14  O   UNL     1       9.034  -3.767  -2.115  1.00  0.00    -0.454 OA
ATOM     15  C   UNL     1       8.912  -4.475  -0.903  1.00  0.00     0.468 C 
ENDBRANCH   6   7
ENDBRANCH   1   6
TORSDOF 4
ENDMDL
MODEL 5
REMARK VINA RESULT:      -7.4      0.963      2.090
REMARK SMILES O=C(O)CCc1ccc2c(c1)OCO2
REMARK SMILES IDX 4 1 2 2 1 3 3 4 5 6 6 7 7 8 11 9 8 10 10 11 9 12 12 13 14 14
REMARK SMILES IDX 13 15
REMARK H PARENT 3 5
REMARK Flexibility Score: inf
ROOT
ATOM      1  C   UNL     1       5.542   2.626   0.210  1.00  0.00     0.127 C 
ENDROOT
BRANCH   1   2
ATOM      2  C   UNL     1       6.221   3.684   0.942  1.00  0.00     0.303 C 
ATOM      3  O   UNL     1       6.339   3.748   2.167  1.00  0.00    -0.252 OA
BRANCH   2   4
ATOM      4  O   UNL     1       6.790   4.724   0.190  1.00  0.00    -0.481 OA
ATOM      5  H   UNL     1       6.208   5.533   0.037  1.00  0.00     0.296 HD
ENDBRANCH   2   4
ENDBRANCH   1   2
BRANCH   1   6
ATOM      6  C   UNL     1       5.648   1.295   0.845  1.00  0.00     0.047 C 
BRANCH   6   7
ATOM      7  C   UNL     1       6.422   0.269   0.142  1.00  0.00    -0.043 A 
ATOM      8  C   UNL     1       6.526   0.260  -1.240  1.00  0.00     0.008 A 
ATOM      9  C   UNL     1       7.038  -0.740   0.834  1.00  0.00     0.054 A 
ATOM     10  C   UNL     1       7.224  -0.724  -1.904  1.00  0.00     0.051 A 
ATOM     11  C   UNL     1       7.744  -1.737   0.189  1.00  0.00     0.166 A 
ATOM     12  C   UNL     1       7.840  -1.733  -1.182  1.00  0.00     0.165 A 
ATOM     13  O   UNL     1       8.435  -2.835   0.673  1.00  0.00    -0.454 OA
ATOM     14  O   UNL     1       8.601  -2.848  -1.536  1.00  0.00    -0.454 OA
ATOM     15  C   UNL     1       8.714  -3.712  -0.429  1.00  0.00     0.468 C 
ENDBRANCH   6   7
ENDBRANCH   1   6
TORSDOF 4
ENDMDL
