@<TRIPOS>MOLECULE
/home/cewinharhar/GITHUB/reincatalyze/data/processed/docking_pred/2023-May-17-1006_maxeplen10_maxtrainstep1000_seadep16_gamma099_lrac9e-4_lrcr1e-3_sub6/7076afde4386affa59e586c5ec9b2181426a643f_ligand_6.pdbqt
 15 16 0 0 0
SMALL
GASTEIGER

@<TRIPOS>ATOM
      1  C          8.2390   -0.2190   -2.8300 C.3     1  UNL1        0.1270
      2  C          8.4760   -1.6390   -3.0410 C.2     1  UNL1        0.3030
      3  O          9.5630   -2.2090   -2.9310 O.2     1  UNL1       -0.2520
      4  O          7.3740   -2.4300   -3.4010 O.3     1  UNL1       -0.4810
      5  H          7.2930   -3.3200   -2.9340 H       1  UNL1        0.2960
      6  C          8.7000    0.2770   -1.5160 C.3     1  UNL1        0.0470
      7  C          7.7540    0.2190   -0.4000 C.2     1  UNL1       -0.0430
      8  C          7.7890   -0.8120    0.5260 C.2     1  UNL1        0.0080
      9  C          6.7760    1.1670   -0.2610 C.2     1  UNL1        0.0540
     10  C          6.8780   -0.8890    1.5560 C.2     1  UNL1        0.0510
     11  C          5.8510    1.1110    0.7650 C.2     1  UNL1        0.1660
     12  C          5.8990    0.0840    1.6760 C.2     1  UNL1        0.1650
     13  O          4.7960    1.9430    1.0960 O.2     1  UNL1       -0.4540
     14  O          4.8530    0.2960    2.5770 O.2     1  UNL1       -0.4540
     15  C          3.9710    1.2630    2.0550 C.3     1  UNL1        0.4680
@<TRIPOS>BOND
     1     4     2    1
     2     4     5    1
     3     2     3    2
     4     2     1    1
     5     1     6    1
     6     6     7    1
     7     7     9    2
     8     7     8    1
     9     9    11    1
    10     8    10    2
    11    11    13    1
    12    11    12    2
    13    13    15    1
    14    10    12    1
    15    12    14    1
    16    15    14    1
