@<TRIPOS>MOLECULE
/home/cewinharhar/GITHUB/reincatalyze/data/processed/docking_pred/2023-May-17-1006_maxeplen10_maxtrainstep1000_seadep16_gamma099_lrac9e-4_lrcr1e-3_sub6/7076afde4386affa59e586c5ec9b2181426a643f_ligand_6.pdbqt
 15 16 0 0 0
SMALL
GASTEIGER

@<TRIPOS>ATOM
      1  C          6.4240    1.3250    0.6950 C.3     1  UNL1        0.1270
      2  C          5.1820    1.3490    1.4520 C.2     1  UNL1        0.3030
      3  O          4.2660    2.1580    1.3010 O.2     1  UNL1       -0.2520
      4  O          5.0110    0.3660    2.4390 O.3     1  UNL1       -0.4810
      5  H          4.6560    0.6850    3.3280 H       1  UNL1        0.2960
      6  C          6.2600    0.9120   -0.7150 C.3     1  UNL1        0.0470
      7  C          7.0040   -0.2660   -1.1670 C.2     1  UNL1       -0.0430
      8  C          7.2820   -0.4770   -2.5090 C.2     1  UNL1        0.0080
      9  C          7.4150   -1.2200   -0.2740 C.2     1  UNL1        0.0540
     10  C          7.9500   -1.6020   -2.9390 C.2     1  UNL1        0.0510
     11  C          8.0870   -2.3560   -0.6820 C.2     1  UNL1        0.1660
     12  C          8.3570   -2.5510   -2.0150 C.2     1  UNL1        0.1650
     13  O          8.5880   -3.4320    0.0290 O.2     1  UNL1       -0.4540
     14  O          9.0340   -3.7670   -2.1150 O.2     1  UNL1       -0.4540
     15  C          8.9120   -4.4750   -0.9030 C.3     1  UNL1        0.4680
@<TRIPOS>BOND
     1    10     8    1
     2    10    12    2
     3     8     7    2
     4    14    12    1
     5    14    15    1
     6    12    11    1
     7     7     6    1
     8     7     9    1
     9    15    13    1
    10     6     1    1
    11    11     9    2
    12    11    13    1
    13     1     2    1
    14     3     2    2
    15     2     4    1
    16     4     5    1
