MODEL 1
REMARK VINA RESULT:      -7.6      0.000      0.000
REMARK SMILES O=C(O)CCc1ccc2c(c1)OCO2
REMARK SMILES IDX 4 1 2 2 1 3 3 4 5 6 6 7 7 8 11 9 8 10 10 11 9 12 12 13 14 14
REMARK SMILES IDX 13 15
REMARK H PARENT 3 5
REMARK Flexibility Score: inf
ROOT
ATOM      1  C   UNL     1       5.412   2.867   0.129  1.00  0.00     0.127 C 
ENDROOT
BRANCH   1   2
ATOM      2  C   UNL     1       6.239   3.850   0.811  1.00  0.00     0.303 C 
ATOM      3  O   UNL     1       6.874   4.755   0.265  1.00  0.00    -0.252 OA
BRANCH   2   4
ATOM      4  O   UNL     1       6.323   3.764   2.209  1.00  0.00    -0.481 OA
ATOM      5  H   UNL     1       7.031   3.147   2.575  1.00  0.00     0.296 HD
ENDBRANCH   2   4
ENDBRANCH   1   2
BRANCH   1   6
ATOM      6  C   UNL     1       5.347   1.559   0.815  1.00  0.00     0.047 C 
BRANCH   6   7
ATOM      7  C   UNL     1       6.130   0.458   0.250  1.00  0.00    -0.043 A 
ATOM      8  C   UNL     1       6.592  -0.584   1.039  1.00  0.00     0.008 A 
ATOM      9  C   UNL     1       6.464   0.447  -1.079  1.00  0.00     0.054 A 
ATOM     10  C   UNL     1       7.359  -1.601   0.515  1.00  0.00     0.051 A 
ATOM     11  C   UNL     1       7.232  -0.564  -1.626  1.00  0.00     0.166 A 
ATOM     12  C   UNL     1       7.682  -1.590  -0.832  1.00  0.00     0.165 A 
ATOM     13  O   UNL     1       7.683  -0.778  -2.917  1.00  0.00    -0.454 OA
ATOM     14  O   UNL     1       8.419  -2.443  -1.655  1.00  0.00    -0.454 OA
ATOM     15  C   UNL     1       8.693  -1.797  -2.876  1.00  0.00     0.468 C 
ENDBRANCH   6   7
ENDBRANCH   1   6
TORSDOF 4
ENDMDL
MODEL 2
REMARK VINA RESULT:      -7.6      2.135      2.523
REMARK SMILES O=C(O)CCc1ccc2c(c1)OCO2
REMARK SMILES IDX 4 1 2 2 1 3 3 4 5 6 6 7 7 8 11 9 8 10 10 11 9 12 12 13 14 14
REMARK SMILES IDX 13 15
REMARK H PARENT 3 5
REMARK Flexibility Score: inf
ROOT
ATOM      1  C   UNL     1       4.719   1.845   0.698  1.00  0.00     0.127 C 
ENDROOT
BRANCH   1   2
ATOM      2  C   UNL     1       4.410   1.135   1.930  1.00  0.00     0.303 C 
ATOM      3  O   UNL     1       5.134   0.303   2.478  1.00  0.00    -0.252 OA
BRANCH   2   4
ATOM      4  O   UNL     1       3.183   1.422   2.548  1.00  0.00    -0.481 OA
ATOM      5  H   UNL     1       2.356   1.234   2.004  1.00  0.00     0.296 HD
ENDBRANCH   2   4
ENDBRANCH   1   2
BRANCH   1   6
ATOM      6  C   UNL     1       6.146   2.205   0.554  1.00  0.00     0.047 C 
BRANCH   6   7
ATOM      7  C   UNL     1       6.996   1.305  -0.229  1.00  0.00    -0.043 A 
ATOM      8  C   UNL     1       8.352   1.544  -0.385  1.00  0.00     0.008 A 
ATOM      9  C   UNL     1       6.463   0.216  -0.865  1.00  0.00     0.054 A 
ATOM     10  C   UNL     1       9.146   0.719  -1.150  1.00  0.00     0.051 A 
ATOM     11  C   UNL     1       7.240  -0.626  -1.638  1.00  0.00     0.166 A 
ATOM     12  C   UNL     1       8.584  -0.378  -1.783  1.00  0.00     0.165 A 
ATOM     13  O   UNL     1       6.924  -1.764  -2.359  1.00  0.00    -0.454 OA
ATOM     14  O   UNL     1       9.092  -1.383  -2.607  1.00  0.00    -0.454 OA
ATOM     15  C   UNL     1       8.027  -2.068  -3.225  1.00  0.00     0.468 C 
ENDBRANCH   6   7
ENDBRANCH   1   6
TORSDOF 4
ENDMDL
MODEL 3
REMARK VINA RESULT:      -7.5      1.786      5.287
REMARK SMILES O=C(O)CCc1ccc2c(c1)OCO2
REMARK SMILES IDX 4 1 2 2 1 3 3 4 5 6 6 7 7 8 11 9 8 10 10 11 9 12 12 13 14 14
REMARK SMILES IDX 13 15
REMARK H PARENT 3 5
REMARK Flexibility Score: inf
ROOT
ATOM      1  C   UNL     1       8.314  -0.326  -2.842  1.00  0.00     0.127 C 
ENDROOT
BRANCH   1   2
ATOM      2  C   UNL     1       8.473  -1.754  -3.069  1.00  0.00     0.303 C 
ATOM      3  O   UNL     1       9.540  -2.371  -3.037  1.00  0.00    -0.252 OA
BRANCH   2   4
ATOM      4  O   UNL     1       7.315  -2.496  -3.350  1.00  0.00    -0.481 OA
ATOM      5  H   UNL     1       6.495  -1.964  -3.597  1.00  0.00     0.296 HD
ENDBRANCH   2   4
ENDBRANCH   1   2
BRANCH   1   6
ATOM      6  C   UNL     1       8.764   0.123  -1.507  1.00  0.00     0.047 C 
BRANCH   6   7
ATOM      7  C   UNL     1       7.787   0.089  -0.416  1.00  0.00    -0.043 A 
ATOM      8  C   UNL     1       7.725  -0.976   0.469  1.00  0.00     0.008 A 
ATOM      9  C   UNL     1       6.876   1.100  -0.261  1.00  0.00     0.054 A 
ATOM     10  C   UNL     1       6.784  -1.026   1.473  1.00  0.00     0.051 A 
ATOM     11  C   UNL     1       5.923   1.072   0.739  1.00  0.00     0.166 A 
ATOM     12  C   UNL     1       5.873   0.010   1.610  1.00  0.00     0.165 A 
ATOM     13  O   UNL     1       4.921   1.964   1.079  1.00  0.00    -0.454 OA
ATOM     14  O   UNL     1       4.823   0.261   2.493  1.00  0.00    -0.454 OA
ATOM     15  C   UNL     1       4.026   1.309   1.991  1.00  0.00     0.468 C 
ENDBRANCH   6   7
ENDBRANCH   1   6
TORSDOF 4
ENDMDL
MODEL 4
REMARK VINA RESULT:      -7.4      1.952      2.855
REMARK SMILES O=C(O)CCc1ccc2c(c1)OCO2
REMARK SMILES IDX 4 1 2 2 1 3 3 4 5 6 6 7 7 8 11 9 8 10 10 11 9 12 12 13 14 14
REMARK SMILES IDX 13 15
REMARK H PARENT 3 5
REMARK Flexibility Score: inf
ROOT
ATOM      1  C   UNL     1       6.451   1.356   0.703  1.00  0.00     0.127 C 
ENDROOT
BRANCH   1   2
ATOM      2  C   UNL     1       5.209   1.356   1.460  1.00  0.00     0.303 C 
ATOM      3  O   UNL     1       4.280   2.152   1.314  1.00  0.00    -0.252 OA
BRANCH   2   4
ATOM      4  O   UNL     1       5.054   0.365   2.442  1.00  0.00    -0.481 OA
ATOM      5  H   UNL     1       4.795  -0.552   2.112  1.00  0.00     0.296 HD
ENDBRANCH   2   4
ENDBRANCH   1   2
BRANCH   1   6
ATOM      6  C   UNL     1       6.297   0.924  -0.703  1.00  0.00     0.047 C 
BRANCH   6   7
ATOM      7  C   UNL     1       7.019  -0.278  -1.125  1.00  0.00    -0.043 A 
ATOM      8  C   UNL     1       7.283  -0.533  -2.462  1.00  0.00     0.008 A 
ATOM      9  C   UNL     1       7.423  -1.211  -0.207  1.00  0.00     0.054 A 
ATOM     10  C   UNL     1       7.929  -1.680  -2.864  1.00  0.00     0.051 A 
ATOM     11  C   UNL     1       8.074  -2.369  -0.587  1.00  0.00     0.166 A 
ATOM     12  C   UNL     1       8.330  -2.608  -1.916  1.00  0.00     0.165 A 
ATOM     13  O   UNL     1       8.565  -3.431   0.152  1.00  0.00    -0.454 OA
ATOM     14  O   UNL     1       8.987  -3.837  -1.985  1.00  0.00    -0.454 OA
ATOM     15  C   UNL     1       8.864  -4.507  -0.751  1.00  0.00     0.468 C 
ENDBRANCH   6   7
ENDBRANCH   1   6
TORSDOF 4
ENDMDL
