@<TRIPOS>MOLECULE
/home/cewinharhar/GITHUB/reincatalyze/data/processed/docking_pred/2023-May-17-1006_maxeplen10_maxtrainstep1000_seadep16_gamma099_lrac9e-4_lrcr1e-3_sub6/718d515b24ba45f014f0b5b5cf87c837722ccc26_ligand_6.pdbqt
 15 16 0 0 0
SMALL
GASTEIGER

@<TRIPOS>ATOM
      1  C          5.4120    2.8670    0.1290 C.3     1  UNL1        0.1270
      2  C          6.2390    3.8500    0.8110 C.2     1  UNL1        0.3030
      3  O          6.8740    4.7550    0.2650 O.2     1  UNL1       -0.2520
      4  O          6.3230    3.7640    2.2090 O.3     1  UNL1       -0.4810
      5  H          7.0310    3.1470    2.5750 H       1  UNL1        0.2960
      6  C          5.3470    1.5590    0.8150 C.3     1  UNL1        0.0470
      7  C          6.1300    0.4580    0.2500 C.2     1  UNL1       -0.0430
      8  C          6.5920   -0.5840    1.0390 C.2     1  UNL1        0.0080
      9  C          6.4640    0.4470   -1.0790 C.2     1  UNL1        0.0540
     10  C          7.3590   -1.6010    0.5150 C.2     1  UNL1        0.0510
     11  C          7.2320   -0.5640   -1.6260 C.2     1  UNL1        0.1660
     12  C          7.6820   -1.5900   -0.8320 C.2     1  UNL1        0.1650
     13  O          7.6830   -0.7780   -2.9170 O.2     1  UNL1       -0.4540
     14  O          8.4190   -2.4430   -1.6550 O.2     1  UNL1       -0.4540
     15  C          8.6930   -1.7970   -2.8760 C.3     1  UNL1        0.4680
@<TRIPOS>BOND
     1    13    15    1
     2    13    11    1
     3    15    14    1
     4    14    12    1
     5    11     9    1
     6    11    12    2
     7     9     7    2
     8    12    10    1
     9     1     2    1
    10     1     6    1
    11     7     6    1
    12     7     8    1
    13     3     2    2
    14    10     8    2
    15     2     4    1
    16     4     5    1
