@<TRIPOS>MOLECULE
/home/cewinharhar/GITHUB/reincatalyze/data/processed/docking_pred/2023-May-17-1006_maxeplen10_maxtrainstep1000_seadep16_gamma099_lrac9e-4_lrcr1e-3_sub6/718d515b24ba45f014f0b5b5cf87c837722ccc26_ligand_6.pdbqt
 15 16 0 0 0
SMALL
GASTEIGER

@<TRIPOS>ATOM
      1  C          6.4510    1.3560    0.7030 C.3     1  UNL1        0.1270
      2  C          5.2090    1.3560    1.4600 C.2     1  UNL1        0.3030
      3  O          4.2800    2.1520    1.3140 O.2     1  UNL1       -0.2520
      4  O          5.0540    0.3650    2.4420 O.3     1  UNL1       -0.4810
      5  H          4.7950   -0.5520    2.1120 H       1  UNL1        0.2960
      6  C          6.2970    0.9240   -0.7030 C.3     1  UNL1        0.0470
      7  C          7.0190   -0.2780   -1.1250 C.2     1  UNL1       -0.0430
      8  C          7.2830   -0.5330   -2.4620 C.2     1  UNL1        0.0080
      9  C          7.4230   -1.2110   -0.2070 C.2     1  UNL1        0.0540
     10  C          7.9290   -1.6800   -2.8640 C.2     1  UNL1        0.0510
     11  C          8.0740   -2.3690   -0.5870 C.2     1  UNL1        0.1660
     12  C          8.3300   -2.6080   -1.9160 C.2     1  UNL1        0.1650
     13  O          8.5650   -3.4310    0.1520 O.2     1  UNL1       -0.4540
     14  O          8.9870   -3.8370   -1.9850 O.2     1  UNL1       -0.4540
     15  C          8.8640   -4.5070   -0.7510 C.3     1  UNL1        0.4680
@<TRIPOS>BOND
     1    10     8    1
     2    10    12    2
     3     8     7    2
     4    14    12    1
     5    14    15    1
     6    12    11    1
     7     7     6    1
     8     7     9    1
     9    15    13    1
    10     6     1    1
    11    11     9    2
    12    11    13    1
    13     1     2    1
    14     3     2    2
    15     2     4    1
    16     5     4    1
