@<TRIPOS>MOLECULE
/home/cewinharhar/GITHUB/reincatalyze/data/processed/docking_pred/2023-May-17-1006_maxeplen10_maxtrainstep1000_seadep16_gamma099_lrac9e-4_lrcr1e-3_sub6/718d515b24ba45f014f0b5b5cf87c837722ccc26_ligand_6.pdbqt
 15 16 0 0 0
SMALL
GASTEIGER

@<TRIPOS>ATOM
      1  C          4.7190    1.8450    0.6980 C.3     1  UNL1        0.1270
      2  C          4.4100    1.1350    1.9300 C.2     1  UNL1        0.3030
      3  O          5.1340    0.3030    2.4780 O.2     1  UNL1       -0.2520
      4  O          3.1830    1.4220    2.5480 O.3     1  UNL1       -0.4810
      5  H          2.3560    1.2340    2.0040 H       1  UNL1        0.2960
      6  C          6.1460    2.2050    0.5540 C.3     1  UNL1        0.0470
      7  C          6.9960    1.3050   -0.2290 C.2     1  UNL1       -0.0430
      8  C          8.3520    1.5440   -0.3850 C.2     1  UNL1        0.0080
      9  C          6.4630    0.2160   -0.8650 C.2     1  UNL1        0.0540
     10  C          9.1460    0.7190   -1.1500 C.2     1  UNL1        0.0510
     11  C          7.2400   -0.6260   -1.6380 C.2     1  UNL1        0.1660
     12  C          8.5840   -0.3780   -1.7830 C.2     1  UNL1        0.1650
     13  O          6.9240   -1.7640   -2.3590 O.2     1  UNL1       -0.4540
     14  O          9.0920   -1.3830   -2.6070 O.2     1  UNL1       -0.4540
     15  C          8.0270   -2.0680   -3.2250 C.3     1  UNL1        0.4680
@<TRIPOS>BOND
     1    15    14    1
     2    15    13    1
     3    14    12    1
     4    13    11    1
     5    12    11    2
     6    12    10    1
     7    11     9    1
     8    10     8    2
     9     9     7    2
    10     8     7    1
    11     7     6    1
    12     6     1    1
    13     1     2    1
    14     2     3    2
    15     2     4    1
    16     5     4    1
