@<TRIPOS>MOLECULE
/home/cewinharhar/GITHUB/reincatalyze/data/processed/docking_pred/2023-May-17-1006_maxeplen10_maxtrainstep1000_seadep16_gamma099_lrac9e-4_lrcr1e-3_sub6/718d515b24ba45f014f0b5b5cf87c837722ccc26_ligand_6.pdbqt
 15 16 0 0 0
SMALL
GASTEIGER

@<TRIPOS>ATOM
      1  C          8.3140   -0.3260   -2.8420 C.3     1  UNL1        0.1270
      2  C          8.4730   -1.7540   -3.0690 C.2     1  UNL1        0.3030
      3  O          9.5400   -2.3710   -3.0370 O.2     1  UNL1       -0.2520
      4  O          7.3150   -2.4960   -3.3500 O.3     1  UNL1       -0.4810
      5  H          6.4950   -1.9640   -3.5970 H       1  UNL1        0.2960
      6  C          8.7640    0.1230   -1.5070 C.3     1  UNL1        0.0470
      7  C          7.7870    0.0890   -0.4160 C.2     1  UNL1       -0.0430
      8  C          7.7250   -0.9760    0.4690 C.2     1  UNL1        0.0080
      9  C          6.8760    1.1000   -0.2610 C.2     1  UNL1        0.0540
     10  C          6.7840   -1.0260    1.4730 C.2     1  UNL1        0.0510
     11  C          5.9230    1.0720    0.7390 C.2     1  UNL1        0.1660
     12  C          5.8730    0.0100    1.6100 C.2     1  UNL1        0.1650
     13  O          4.9210    1.9640    1.0790 O.2     1  UNL1       -0.4540
     14  O          4.8230    0.2610    2.4930 O.2     1  UNL1       -0.4540
     15  C          4.0260    1.3090    1.9910 C.3     1  UNL1        0.4680
@<TRIPOS>BOND
     1     5     4    1
     2     4     2    1
     3     2     3    2
     4     2     1    1
     5     1     6    1
     6     6     7    1
     7     7     9    2
     8     7     8    1
     9     9    11    1
    10     8    10    2
    11    11    13    1
    12    11    12    2
    13    13    15    1
    14    10    12    1
    15    12    14    1
    16    15    14    1
