@<TRIPOS>MOLECULE
/home/cewinharhar/GITHUB/reincatalyze/data/processed/docking_pred/2023-May-17-1006_maxeplen10_maxtrainstep1000_seadep16_gamma099_lrac9e-4_lrcr1e-3_sub6/718d515b24ba45f014f0b5b5cf87c837722ccc26_ligand_6.pdbqt
 15 16 0 0 0
SMALL
GASTEIGER

@<TRIPOS>ATOM
      1  C          6.2240    0.2270    0.7900 C.3     1  UNL1        0.1270
      2  C          5.2410    0.9790    1.5540 C.2     1  UNL1        0.3030
      3  O          4.4950    0.5140    2.4180 O.2     1  UNL1       -0.2520
      4  O          5.1290    2.3530    1.2860 O.3     1  UNL1       -0.4810
      5  H          5.5110    2.9750    1.9820 H       1  UNL1        0.2960
      6  C          6.3710   -1.1790    1.2220 C.3     1  UNL1        0.0470
      7  C          7.4710   -1.4960    2.1360 C.2     1  UNL1       -0.0430
      8  C          7.3910   -1.2120    3.4910 C.2     1  UNL1        0.0080
      9  C          8.6320   -2.0500    1.6680 C.2     1  UNL1        0.0540
     10  C          8.4390   -1.4750    4.3450 C.2     1  UNL1        0.0510
     11  C          9.6960   -2.3240    2.5070 C.2     1  UNL1        0.1660
     12  C          9.6030   -2.0380    3.8480 C.2     1  UNL1        0.1650
     13  O         10.9430   -2.8720    2.2610 O.2     1  UNL1       -0.4540
     14  O         10.8150   -2.4190    4.4260 O.2     1  UNL1       -0.4540
     15  C         11.7680   -2.6470    3.4140 C.3     1  UNL1        0.4680
@<TRIPOS>BOND
     1     1     6    1
     2     1     2    1
     3     6     7    1
     4     4     2    1
     5     4     5    1
     6     2     3    2
     7     9     7    2
     8     9    11    1
     9     7     8    1
    10    13    11    1
    11    13    15    1
    12    11    12    2
    13    15    14    1
    14     8    10    2
    15    12    10    1
    16    12    14    1
