@<TRIPOS>MOLECULE
/home/cewinharhar/GITHUB/reincatalyze/data/processed/docking_pred/2023-May-17-1006_maxeplen10_maxtrainstep1000_seadep16_gamma099_lrac9e-4_lrcr1e-3_sub6/72c4800fcc396c08a923544a0defa9269110c5e0_ligand_6.pdbqt
 15 16 0 0 0
SMALL
GASTEIGER

@<TRIPOS>ATOM
      1  C          8.0950   -1.2700   -0.1790 C.3     1  UNL1        0.1270
      2  C          7.9670   -2.4520    0.6580 C.2     1  UNL1        0.3030
      3  O          8.7920   -3.3630    0.7450 O.2     1  UNL1       -0.2520
      4  O          6.8030   -2.5680    1.4350 O.3     1  UNL1       -0.4810
      5  H          6.1700   -1.7830    1.4080 H       1  UNL1        0.2960
      6  C          6.8050   -0.6420   -0.5340 C.3     1  UNL1        0.0470
      7  C          6.5250    0.6870    0.0150 C.2     1  UNL1       -0.0430
      8  C          5.4630    1.4520   -0.4440 C.2     1  UNL1        0.0080
      9  C          7.3330    1.2320    0.9770 C.2     1  UNL1        0.0540
     10  C          5.2200    2.7160    0.0460 C.2     1  UNL1        0.0510
     11  C          7.1080    2.4980    1.4830 C.2     1  UNL1        0.1660
     12  C          6.0510    3.2440    1.0200 C.2     1  UNL1        0.1650
     13  O          7.7810    3.2380    2.4400 O.2     1  UNL1       -0.4540
     14  O          6.0830    4.4580    1.7080 O.2     1  UNL1       -0.4540
     15  C          7.3230    4.5960    2.3620 C.3     1  UNL1        0.4680
@<TRIPOS>BOND
     1     6     1    1
     2     6     7    1
     3     8     7    2
     4     8    10    1
     5     1     2    1
     6     7     9    1
     7    10    12    2
     8     2     3    2
     9     2     4    1
    10     9    11    2
    11    12    11    1
    12    12    14    1
    13     5     4    1
    14    11    13    1
    15    14    15    1
    16    15    13    1
