@<TRIPOS>MOLECULE
/home/cewinharhar/GITHUB/reincatalyze/data/processed/docking_pred/2023-May-17-1006_maxeplen10_maxtrainstep1000_seadep16_gamma099_lrac9e-4_lrcr1e-3_sub6/72c4800fcc396c08a923544a0defa9269110c5e0_ligand_6.pdbqt
 15 16 0 0 0
SMALL
GASTEIGER

@<TRIPOS>ATOM
      1  C          6.3680    1.2950    0.6230 C.3     1  UNL1        0.1270
      2  C          5.1770    1.2770    1.4590 C.2     1  UNL1        0.3030
      3  O          4.2490    2.0860    1.4020 O.2     1  UNL1       -0.2520
      4  O          5.0750    0.2520    2.4120 O.3     1  UNL1       -0.4810
      5  H          4.1450    0.0400    2.7390 H       1  UNL1        0.2960
      6  C          6.1500    0.7700   -0.7420 C.3     1  UNL1        0.0470
      7  C          6.9390   -0.3930   -1.1540 C.2     1  UNL1       -0.0430
      8  C          7.2870   -0.6000   -2.4800 C.2     1  UNL1        0.0080
      9  C          7.3260   -1.3360   -0.2400 C.2     1  UNL1        0.0540
     10  C          7.9980   -1.7120   -2.8740 C.2     1  UNL1        0.0510
     11  C          8.0400   -2.4590   -0.6120 C.2     1  UNL1        0.1660
     12  C          8.3790   -2.6510   -1.9300 C.2     1  UNL1        0.1650
     13  O          8.5290   -3.5240    0.1260 O.2     1  UNL1       -0.4540
     14  O          9.0850   -3.8530   -1.9930 O.2     1  UNL1       -0.4540
     15  C          8.9180   -4.5610   -0.7870 C.3     1  UNL1        0.4680
@<TRIPOS>BOND
     1    10     8    1
     2    10    12    2
     3     8     7    2
     4    14    12    1
     5    14    15    1
     6    12    11    1
     7     7     6    1
     8     7     9    1
     9    15    13    1
    10     6     1    1
    11    11     9    2
    12    11    13    1
    13     1     2    1
    14     3     2    2
    15     2     4    1
    16     4     5    1
