@<TRIPOS>MOLECULE
/home/cewinharhar/GITHUB/reincatalyze/data/processed/docking_pred/2023-May-17-1006_maxeplen10_maxtrainstep1000_seadep16_gamma099_lrac9e-4_lrcr1e-3_sub6/72c4800fcc396c08a923544a0defa9269110c5e0_ligand_6.pdbqt
 15 16 0 0 0
SMALL
GASTEIGER

@<TRIPOS>ATOM
      1  C          8.2000   -0.5580   -2.1860 C.3     1  UNL1        0.1270
      2  C          8.4290   -1.8090   -2.8930 C.2     1  UNL1        0.3030
      3  O          9.5230   -2.3570   -3.0450 O.2     1  UNL1       -0.2520
      4  O          7.3110   -2.4480   -3.4520 O.3     1  UNL1       -0.4810
      5  H          7.1100   -3.3740   -3.1090 H       1  UNL1        0.2960
      6  C          6.8970   -0.4930   -1.4900 C.3     1  UNL1        0.0470
      7  C          6.6490    0.6620   -0.6240 C.2     1  UNL1       -0.0430
      8  C          5.5070    1.4360   -0.7580 C.2     1  UNL1        0.0080
      9  C          7.5640    1.0340    0.3240 C.2     1  UNL1        0.0540
     10  C          5.2910    2.5430    0.0320 C.2     1  UNL1        0.0510
     11  C          7.3680    2.1410    1.1290 C.2     1  UNL1        0.1660
     12  C          6.2310    2.8990    0.9860 C.2     1  UNL1        0.1650
     13  O          8.1400    2.6950    2.1340 O.2     1  UNL1       -0.4540
     14  O          6.3150    3.9320    1.9210 O.2     1  UNL1       -0.4540
     15  C          7.6280    4.0040    2.4240 C.3     1  UNL1        0.4680
@<TRIPOS>BOND
     1     4     5    1
     2     4     2    1
     3     3     2    2
     4     2     1    1
     5     1     6    1
     6     6     7    1
     7     8     7    2
     8     8    10    1
     9     7     9    1
    10    10    12    2
    11     9    11    2
    12    12    11    1
    13    12    14    1
    14    11    13    1
    15    14    15    1
    16    13    15    1
