@<TRIPOS>MOLECULE
/home/cewinharhar/GITHUB/reincatalyze/data/processed/docking_pred/2023-May-17-1006_maxeplen10_maxtrainstep1000_seadep16_gamma099_lrac9e-4_lrcr1e-3_sub6/72c4800fcc396c08a923544a0defa9269110c5e0_ligand_6.pdbqt
 15 16 0 0 0
SMALL
GASTEIGER

@<TRIPOS>ATOM
      1  C          5.4950    2.8210    0.1500 C.3     1  UNL1        0.1270
      2  C          6.4170    3.6990    0.8530 C.2     1  UNL1        0.3030
      3  O          6.8450    4.7750    0.4310 O.2     1  UNL1       -0.2520
      4  O          6.8580    3.2890    2.1210 O.3     1  UNL1       -0.4810
      5  H          6.2820    3.5610    2.9030 H       1  UNL1        0.2960
      6  C          5.3470    1.4870    0.7710 C.3     1  UNL1        0.0470
      7  C          6.1240    0.3840    0.2000 C.2     1  UNL1       -0.0430
      8  C          6.5160   -0.7000    0.9700 C.2     1  UNL1        0.0080
      9  C          6.5220    0.4130   -1.1100 C.2     1  UNL1        0.0540
     10  C          7.2770   -1.7200    0.4440 C.2     1  UNL1        0.0510
     11  C          7.2860   -0.6000   -1.6590 C.2     1  UNL1        0.1660
     12  C          7.6660   -1.6690   -0.8850 C.2     1  UNL1        0.1650
     13  O          7.7940   -0.7790   -2.9340 O.2     1  UNL1       -0.4540
     14  O          8.4180   -2.5130   -1.7040 O.2     1  UNL1       -0.4540
     15  C          8.7700   -1.8300   -2.8850 C.3     1  UNL1        0.4680
@<TRIPOS>BOND
     1    13    15    1
     2    13    11    1
     3    15    14    1
     4    14    12    1
     5    11     9    1
     6    11    12    2
     7     9     7    2
     8    12    10    1
     9     1     6    1
    10     1     2    1
    11     7     6    1
    12     7     8    1
    13     3     2    2
    14    10     8    2
    15     2     4    1
    16     4     5    1
