@<TRIPOS>MOLECULE
/home/cewinharhar/GITHUB/reincatalyze/data/processed/docking_pred/2023-May-17-1006_maxeplen10_maxtrainstep1000_seadep16_gamma099_lrac9e-4_lrcr1e-3_sub6/72c4800fcc396c08a923544a0defa9269110c5e0_ligand_6.pdbqt
 15 16 0 0 0
SMALL
GASTEIGER

@<TRIPOS>ATOM
      1  C          4.7360    1.8990    0.7850 C.3     1  UNL1        0.1270
      2  C          4.3660    1.1390    1.9690 C.2     1  UNL1        0.3030
      3  O          5.0400    0.2480    2.4880 O.2     1  UNL1       -0.2520
      4  O          3.1370    1.4450    2.5730 O.3     1  UNL1       -0.4810
      5  H          2.3990    1.7460    1.9540 H       1  UNL1        0.2960
      6  C          6.1750    2.2290    0.7090 C.3     1  UNL1        0.0470
      7  C          7.0330    1.3400   -0.0780 C.2     1  UNL1       -0.0430
      8  C          8.4030    1.5370   -0.1560 C.2     1  UNL1        0.0080
      9  C          6.4960    0.3050   -0.7970 C.2     1  UNL1        0.0540
     10  C          9.2060    0.7240   -0.9240 C.2     1  UNL1        0.0510
     11  C          7.2830   -0.5250   -1.5740 C.2     1  UNL1        0.1660
     12  C          8.6390   -0.3180   -1.6400 C.2     1  UNL1        0.1650
     13  O          6.9650   -1.6120   -2.3680 O.2     1  UNL1       -0.4540
     14  O          9.1550   -1.2980   -2.4910 O.2     1  UNL1       -0.4540
     15  C          8.1000   -1.9120   -3.1950 C.3     1  UNL1        0.4680
@<TRIPOS>BOND
     1    15    14    1
     2    15    13    1
     3    14    12    1
     4    13    11    1
     5    12    11    2
     6    12    10    1
     7    11     9    1
     8    10     8    2
     9     9     7    2
    10     8     7    1
    11     7     6    1
    12     6     1    1
    13     1     2    1
    14     5     4    1
    15     2     3    2
    16     2     4    1
