MODEL 1
REMARK VINA RESULT:      -7.7      0.000      0.000
REMARK SMILES O=C(O)CCc1ccc2c(c1)OCO2
REMARK SMILES IDX 4 1 2 2 1 3 3 4 5 6 6 7 7 8 11 9 8 10 10 11 9 12 12 13 14 14
REMARK SMILES IDX 13 15
REMARK H PARENT 3 5
REMARK Flexibility Score: inf
ROOT
ATOM      1  C   UNL     1       8.200  -0.558  -2.186  1.00  0.00     0.127 C 
ENDROOT
BRANCH   1   2
ATOM      2  C   UNL     1       8.429  -1.809  -2.893  1.00  0.00     0.303 C 
ATOM      3  O   UNL     1       9.523  -2.357  -3.045  1.00  0.00    -0.252 OA
BRANCH   2   4
ATOM      4  O   UNL     1       7.311  -2.448  -3.452  1.00  0.00    -0.481 OA
ATOM      5  H   UNL     1       7.110  -3.374  -3.109  1.00  0.00     0.296 HD
ENDBRANCH   2   4
ENDBRANCH   1   2
BRANCH   1   6
ATOM      6  C   UNL     1       6.897  -0.493  -1.490  1.00  0.00     0.047 C 
BRANCH   6   7
ATOM      7  C   UNL     1       6.649   0.662  -0.624  1.00  0.00    -0.043 A 
ATOM      8  C   UNL     1       5.507   1.436  -0.758  1.00  0.00     0.008 A 
ATOM      9  C   UNL     1       7.564   1.034   0.324  1.00  0.00     0.054 A 
ATOM     10  C   UNL     1       5.291   2.543   0.032  1.00  0.00     0.051 A 
ATOM     11  C   UNL     1       7.368   2.141   1.129  1.00  0.00     0.166 A 
ATOM     12  C   UNL     1       6.231   2.899   0.986  1.00  0.00     0.165 A 
ATOM     13  O   UNL     1       8.140   2.695   2.134  1.00  0.00    -0.454 OA
ATOM     14  O   UNL     1       6.315   3.932   1.921  1.00  0.00    -0.454 OA
ATOM     15  C   UNL     1       7.628   4.004   2.424  1.00  0.00     0.468 C 
ENDBRANCH   6   7
ENDBRANCH   1   6
TORSDOF 4
ENDMDL
MODEL 2
REMARK VINA RESULT:      -7.5      1.913      5.646
REMARK SMILES O=C(O)CCc1ccc2c(c1)OCO2
REMARK SMILES IDX 4 1 2 2 1 3 3 4 5 6 6 7 7 8 11 9 8 10 10 11 9 12 12 13 14 14
REMARK SMILES IDX 13 15
REMARK H PARENT 3 5
REMARK Flexibility Score: inf
ROOT
ATOM      1  C   UNL     1       4.736   1.899   0.785  1.00  0.00     0.127 C 
ENDROOT
BRANCH   1   2
ATOM      2  C   UNL     1       4.366   1.139   1.969  1.00  0.00     0.303 C 
ATOM      3  O   UNL     1       5.040   0.248   2.488  1.00  0.00    -0.252 OA
BRANCH   2   4
ATOM      4  O   UNL     1       3.137   1.445   2.573  1.00  0.00    -0.481 OA
ATOM      5  H   UNL     1       2.399   1.746   1.954  1.00  0.00     0.296 HD
ENDBRANCH   2   4
ENDBRANCH   1   2
BRANCH   1   6
ATOM      6  C   UNL     1       6.175   2.229   0.709  1.00  0.00     0.047 C 
BRANCH   6   7
ATOM      7  C   UNL     1       7.033   1.340  -0.078  1.00  0.00    -0.043 A 
ATOM      8  C   UNL     1       8.403   1.537  -0.156  1.00  0.00     0.008 A 
ATOM      9  C   UNL     1       6.496   0.305  -0.797  1.00  0.00     0.054 A 
ATOM     10  C   UNL     1       9.206   0.724  -0.924  1.00  0.00     0.051 A 
ATOM     11  C   UNL     1       7.283  -0.525  -1.574  1.00  0.00     0.166 A 
ATOM     12  C   UNL     1       8.639  -0.318  -1.640  1.00  0.00     0.165 A 
ATOM     13  O   UNL     1       6.965  -1.612  -2.368  1.00  0.00    -0.454 OA
ATOM     14  O   UNL     1       9.155  -1.298  -2.491  1.00  0.00    -0.454 OA
ATOM     15  C   UNL     1       8.100  -1.912  -3.195  1.00  0.00     0.468 C 
ENDBRANCH   6   7
ENDBRANCH   1   6
TORSDOF 4
ENDMDL
MODEL 3
REMARK VINA RESULT:      -7.3      2.022      2.099
REMARK SMILES O=C(O)CCc1ccc2c(c1)OCO2
REMARK SMILES IDX 4 1 2 2 1 3 3 4 5 6 6 7 7 8 11 9 8 10 10 11 9 12 12 13 14 14
REMARK SMILES IDX 13 15
REMARK H PARENT 3 5
REMARK Flexibility Score: inf
ROOT
ATOM      1  C   UNL     1       8.095  -1.270  -0.179  1.00  0.00     0.127 C 
ENDROOT
BRANCH   1   2
ATOM      2  C   UNL     1       7.967  -2.452   0.658  1.00  0.00     0.303 C 
ATOM      3  O   UNL     1       8.792  -3.363   0.745  1.00  0.00    -0.252 OA
BRANCH   2   4
ATOM      4  O   UNL     1       6.803  -2.568   1.435  1.00  0.00    -0.481 OA
ATOM      5  H   UNL     1       6.170  -1.783   1.408  1.00  0.00     0.296 HD
ENDBRANCH   2   4
ENDBRANCH   1   2
BRANCH   1   6
ATOM      6  C   UNL     1       6.805  -0.642  -0.534  1.00  0.00     0.047 C 
BRANCH   6   7
ATOM      7  C   UNL     1       6.525   0.687   0.015  1.00  0.00    -0.043 A 
ATOM      8  C   UNL     1       5.463   1.452  -0.444  1.00  0.00     0.008 A 
ATOM      9  C   UNL     1       7.333   1.232   0.977  1.00  0.00     0.054 A 
ATOM     10  C   UNL     1       5.220   2.716   0.046  1.00  0.00     0.051 A 
ATOM     11  C   UNL     1       7.108   2.498   1.483  1.00  0.00     0.166 A 
ATOM     12  C   UNL     1       6.051   3.244   1.020  1.00  0.00     0.165 A 
ATOM     13  O   UNL     1       7.781   3.238   2.440  1.00  0.00    -0.454 OA
ATOM     14  O   UNL     1       6.083   4.458   1.708  1.00  0.00    -0.454 OA
ATOM     15  C   UNL     1       7.323   4.596   2.362  1.00  0.00     0.468 C 
ENDBRANCH   6   7
ENDBRANCH   1   6
TORSDOF 4
ENDMDL
MODEL 4
REMARK VINA RESULT:      -7.2      2.205      5.991
REMARK SMILES O=C(O)CCc1ccc2c(c1)OCO2
REMARK SMILES IDX 4 1 2 2 1 3 3 4 5 6 6 7 7 8 11 9 8 10 10 11 9 12 12 13 14 14
REMARK SMILES IDX 13 15
REMARK H PARENT 3 5
REMARK Flexibility Score: inf
ROOT
ATOM      1  C   UNL     1       6.368   1.295   0.623  1.00  0.00     0.127 C 
ENDROOT
BRANCH   1   2
ATOM      2  C   UNL     1       5.177   1.277   1.459  1.00  0.00     0.303 C 
ATOM      3  O   UNL     1       4.249   2.086   1.402  1.00  0.00    -0.252 OA
BRANCH   2   4
ATOM      4  O   UNL     1       5.075   0.252   2.412  1.00  0.00    -0.481 OA
ATOM      5  H   UNL     1       4.145   0.040   2.739  1.00  0.00     0.296 HD
ENDBRANCH   2   4
ENDBRANCH   1   2
BRANCH   1   6
ATOM      6  C   UNL     1       6.150   0.770  -0.742  1.00  0.00     0.047 C 
BRANCH   6   7
ATOM      7  C   UNL     1       6.939  -0.393  -1.154  1.00  0.00    -0.043 A 
ATOM      8  C   UNL     1       7.287  -0.600  -2.480  1.00  0.00     0.008 A 
ATOM      9  C   UNL     1       7.326  -1.336  -0.240  1.00  0.00     0.054 A 
ATOM     10  C   UNL     1       7.998  -1.712  -2.874  1.00  0.00     0.051 A 
ATOM     11  C   UNL     1       8.040  -2.459  -0.612  1.00  0.00     0.166 A 
ATOM     12  C   UNL     1       8.379  -2.651  -1.930  1.00  0.00     0.165 A 
ATOM     13  O   UNL     1       8.529  -3.524   0.126  1.00  0.00    -0.454 OA
ATOM     14  O   UNL     1       9.085  -3.853  -1.993  1.00  0.00    -0.454 OA
ATOM     15  C   UNL     1       8.918  -4.561  -0.787  1.00  0.00     0.468 C 
ENDBRANCH   6   7
ENDBRANCH   1   6
TORSDOF 4
ENDMDL
MODEL 5
REMARK VINA RESULT:      -7.2      1.378      5.707
REMARK SMILES O=C(O)CCc1ccc2c(c1)OCO2
REMARK SMILES IDX 4 1 2 2 1 3 3 4 5 6 6 7 7 8 11 9 8 10 10 11 9 12 12 13 14 14
REMARK SMILES IDX 13 15
REMARK H PARENT 3 5
REMARK Flexibility Score: inf
ROOT
ATOM      1  C   UNL     1       5.495   2.821   0.150  1.00  0.00     0.127 C 
ENDROOT
BRANCH   1   2
ATOM      2  C   UNL     1       6.417   3.699   0.853  1.00  0.00     0.303 C 
ATOM      3  O   UNL     1       6.845   4.775   0.431  1.00  0.00    -0.252 OA
BRANCH   2   4
ATOM      4  O   UNL     1       6.858   3.289   2.121  1.00  0.00    -0.481 OA
ATOM      5  H   UNL     1       6.282   3.561   2.903  1.00  0.00     0.296 HD
ENDBRANCH   2   4
ENDBRANCH   1   2
BRANCH   1   6
ATOM      6  C   UNL     1       5.347   1.487   0.771  1.00  0.00     0.047 C 
BRANCH   6   7
ATOM      7  C   UNL     1       6.124   0.384   0.200  1.00  0.00    -0.043 A 
ATOM      8  C   UNL     1       6.516  -0.700   0.970  1.00  0.00     0.008 A 
ATOM      9  C   UNL     1       6.522   0.413  -1.110  1.00  0.00     0.054 A 
ATOM     10  C   UNL     1       7.277  -1.720   0.444  1.00  0.00     0.051 A 
ATOM     11  C   UNL     1       7.286  -0.600  -1.659  1.00  0.00     0.166 A 
ATOM     12  C   UNL     1       7.666  -1.669  -0.885  1.00  0.00     0.165 A 
ATOM     13  O   UNL     1       7.794  -0.779  -2.934  1.00  0.00    -0.454 OA
ATOM     14  O   UNL     1       8.418  -2.513  -1.704  1.00  0.00    -0.454 OA
ATOM     15  C   UNL     1       8.770  -1.830  -2.885  1.00  0.00     0.468 C 
ENDBRANCH   6   7
ENDBRANCH   1   6
TORSDOF 4
ENDMDL
