@<TRIPOS>MOLECULE
/home/cewinharhar/GITHUB/reincatalyze/data/processed/docking_pred/2023-May-17-1006_maxeplen10_maxtrainstep1000_seadep16_gamma099_lrac9e-4_lrcr1e-3_sub6/73f03501d88ed0f960f592fe5f6124e73644cb01_ligand_6.pdbqt
 15 16 0 0 0
SMALL
GASTEIGER

@<TRIPOS>ATOM
      1  C          8.3150   -0.3230   -2.8630 C.3     1  UNL1        0.1270
      2  C          8.4760   -1.7530   -3.0790 C.2     1  UNL1        0.3030
      3  O          9.5440   -2.3670   -3.0460 O.2     1  UNL1       -0.2520
      4  O          7.3180   -2.4980   -3.3480 O.3     1  UNL1       -0.4810
      5  H          7.1860   -2.7860   -4.3060 H       1  UNL1        0.2960
      6  C          8.7660    0.1370   -1.5330 C.3     1  UNL1        0.0470
      7  C          7.7950    0.0950   -0.4370 C.2     1  UNL1       -0.0430
      8  C          7.7350   -0.9800    0.4370 C.2     1  UNL1        0.0080
      9  C          6.8870    1.1060   -0.2670 C.2     1  UNL1        0.0540
     10  C          6.7990   -1.0380    1.4450 C.2     1  UNL1        0.0510
     11  C          5.9390    1.0690    0.7390 C.2     1  UNL1        0.1660
     12  C          5.8920   -0.0020    1.5980 C.2     1  UNL1        0.1650
     13  O          4.9410    1.9600    1.0930 O.2     1  UNL1       -0.4540
     14  O          4.8460    0.2430    2.4900 O.2     1  UNL1       -0.4540
     15  C          4.0490    1.2970    2.0020 C.3     1  UNL1        0.4680
@<TRIPOS>BOND
     1     5     4    1
     2     4     2    1
     3     2     3    2
     4     2     1    1
     5     1     6    1
     6     6     7    1
     7     7     9    2
     8     7     8    1
     9     9    11    1
    10     8    10    2
    11    11    13    1
    12    11    12    2
    13    13    15    1
    14    10    12    1
    15    12    14    1
    16    15    14    1
