MODEL 1
REMARK VINA RESULT:      -7.6      0.000      0.000
REMARK SMILES O=C(O)CCc1ccc2c(c1)OCO2
REMARK SMILES IDX 4 1 2 2 1 3 3 4 5 6 6 7 7 8 11 9 8 10 10 11 9 12 12 13 14 14
REMARK SMILES IDX 13 15
REMARK H PARENT 3 5
REMARK Flexibility Score: inf
ROOT
ATOM      1  C   UNL     1       5.420   2.877   0.106  1.00  0.00     0.127 C 
ENDROOT
BRANCH   1   2
ATOM      2  C   UNL     1       6.249   3.869   0.773  1.00  0.00     0.303 C 
ATOM      3  O   UNL     1       6.911   4.744   0.212  1.00  0.00    -0.252 OA
BRANCH   2   4
ATOM      4  O   UNL     1       6.300   3.828   2.175  1.00  0.00    -0.481 OA
ATOM      5  H   UNL     1       5.623   3.235   2.628  1.00  0.00     0.296 HD
ENDBRANCH   2   4
ENDBRANCH   1   2
BRANCH   1   6
ATOM      6  C   UNL     1       5.370   1.572   0.801  1.00  0.00     0.047 C 
BRANCH   6   7
ATOM      7  C   UNL     1       6.139   0.468   0.224  1.00  0.00    -0.043 A 
ATOM      8  C   UNL     1       6.576  -0.594   1.000  1.00  0.00     0.008 A 
ATOM      9  C   UNL     1       6.484   0.472  -1.102  1.00  0.00     0.054 A 
ATOM     10  C   UNL     1       7.331  -1.615   0.467  1.00  0.00     0.051 A 
ATOM     11  C   UNL     1       7.240  -0.542  -1.659  1.00  0.00     0.166 A 
ATOM     12  C   UNL     1       7.665  -1.589  -0.878  1.00  0.00     0.165 A 
ATOM     13  O   UNL     1       7.698  -0.743  -2.949  1.00  0.00    -0.454 OA
ATOM     14  O   UNL     1       8.395  -2.441  -1.708  1.00  0.00    -0.454 OA
ATOM     15  C   UNL     1       8.691  -1.780  -2.917  1.00  0.00     0.468 C 
ENDBRANCH   6   7
ENDBRANCH   1   6
TORSDOF 4
ENDMDL
MODEL 2
REMARK VINA RESULT:      -7.6      2.139      2.527
REMARK SMILES O=C(O)CCc1ccc2c(c1)OCO2
REMARK SMILES IDX 4 1 2 2 1 3 3 4 5 6 6 7 7 8 11 9 8 10 10 11 9 12 12 13 14 14
REMARK SMILES IDX 13 15
REMARK H PARENT 3 5
REMARK Flexibility Score: inf
ROOT
ATOM      1  C   UNL     1       4.742   1.884   0.703  1.00  0.00     0.127 C 
ENDROOT
BRANCH   1   2
ATOM      2  C   UNL     1       4.413   1.160   1.920  1.00  0.00     0.303 C 
ATOM      3  O   UNL     1       5.123   0.313   2.465  1.00  0.00    -0.252 OA
BRANCH   2   4
ATOM      4  O   UNL     1       3.181   1.448   2.529  1.00  0.00    -0.481 OA
ATOM      5  H   UNL     1       2.681   2.245   2.166  1.00  0.00     0.296 HD
ENDBRANCH   2   4
ENDBRANCH   1   2
BRANCH   1   6
ATOM      6  C   UNL     1       6.176   2.220   0.573  1.00  0.00     0.047 C 
BRANCH   6   7
ATOM      7  C   UNL     1       7.014   1.316  -0.218  1.00  0.00    -0.043 A 
ATOM      8  C   UNL     1       8.372   1.541  -0.378  1.00  0.00     0.008 A 
ATOM      9  C   UNL     1       6.468   0.235  -0.858  1.00  0.00     0.054 A 
ATOM     10  C   UNL     1       9.155   0.713  -1.151  1.00  0.00     0.051 A 
ATOM     11  C   UNL     1       7.233  -0.610  -1.638  1.00  0.00     0.166 A 
ATOM     12  C   UNL     1       8.579  -0.375  -1.787  1.00  0.00     0.165 A 
ATOM     13  O   UNL     1       6.903  -1.741  -2.364  1.00  0.00    -0.454 OA
ATOM     14  O   UNL     1       9.074  -1.381  -2.618  1.00  0.00    -0.454 OA
ATOM     15  C   UNL     1       8.001  -2.052  -3.236  1.00  0.00     0.468 C 
ENDBRANCH   6   7
ENDBRANCH   1   6
TORSDOF 4
ENDMDL
MODEL 3
REMARK VINA RESULT:      -7.4      1.797      5.286
REMARK SMILES O=C(O)CCc1ccc2c(c1)OCO2
REMARK SMILES IDX 4 1 2 2 1 3 3 4 5 6 6 7 7 8 11 9 8 10 10 11 9 12 12 13 14 14
REMARK SMILES IDX 13 15
REMARK H PARENT 3 5
REMARK Flexibility Score: inf
ROOT
ATOM      1  C   UNL     1       8.315  -0.323  -2.863  1.00  0.00     0.127 C 
ENDROOT
BRANCH   1   2
ATOM      2  C   UNL     1       8.476  -1.753  -3.079  1.00  0.00     0.303 C 
ATOM      3  O   UNL     1       9.544  -2.367  -3.046  1.00  0.00    -0.252 OA
BRANCH   2   4
ATOM      4  O   UNL     1       7.318  -2.498  -3.348  1.00  0.00    -0.481 OA
ATOM      5  H   UNL     1       7.186  -2.786  -4.306  1.00  0.00     0.296 HD
ENDBRANCH   2   4
ENDBRANCH   1   2
BRANCH   1   6
ATOM      6  C   UNL     1       8.766   0.137  -1.533  1.00  0.00     0.047 C 
BRANCH   6   7
ATOM      7  C   UNL     1       7.795   0.095  -0.437  1.00  0.00    -0.043 A 
ATOM      8  C   UNL     1       7.735  -0.980   0.437  1.00  0.00     0.008 A 
ATOM      9  C   UNL     1       6.887   1.106  -0.267  1.00  0.00     0.054 A 
ATOM     10  C   UNL     1       6.799  -1.038   1.445  1.00  0.00     0.051 A 
ATOM     11  C   UNL     1       5.939   1.069   0.739  1.00  0.00     0.166 A 
ATOM     12  C   UNL     1       5.892  -0.002   1.598  1.00  0.00     0.165 A 
ATOM     13  O   UNL     1       4.941   1.960   1.093  1.00  0.00    -0.454 OA
ATOM     14  O   UNL     1       4.846   0.243   2.490  1.00  0.00    -0.454 OA
ATOM     15  C   UNL     1       4.049   1.297   2.002  1.00  0.00     0.468 C 
ENDBRANCH   6   7
ENDBRANCH   1   6
TORSDOF 4
ENDMDL
MODEL 4
REMARK VINA RESULT:      -7.4      1.980      2.965
REMARK SMILES O=C(O)CCc1ccc2c(c1)OCO2
REMARK SMILES IDX 4 1 2 2 1 3 3 4 5 6 6 7 7 8 11 9 8 10 10 11 9 12 12 13 14 14
REMARK SMILES IDX 13 15
REMARK H PARENT 3 5
REMARK Flexibility Score: inf
ROOT
ATOM      1  C   UNL     1       6.483   1.276   0.801  1.00  0.00     0.127 C 
ENDROOT
BRANCH   1   2
ATOM      2  C   UNL     1       5.248   1.187   1.565  1.00  0.00     0.303 C 
ATOM      3  O   UNL     1       4.994   0.337   2.420  1.00  0.00    -0.252 OA
BRANCH   2   4
ATOM      4  O   UNL     1       4.260   2.150   1.308  1.00  0.00    -0.481 OA
ATOM      5  H   UNL     1       4.107   2.384   0.339  1.00  0.00     0.296 HD
ENDBRANCH   2   4
ENDBRANCH   1   2
BRANCH   1   6
ATOM      6  C   UNL     1       6.334   0.912  -0.625  1.00  0.00     0.047 C 
BRANCH   6   7
ATOM      7  C   UNL     1       7.047  -0.276  -1.098  1.00  0.00    -0.043 A 
ATOM      8  C   UNL     1       7.284  -0.489  -2.448  1.00  0.00     0.008 A 
ATOM      9  C   UNL     1       7.471  -1.236  -0.218  1.00  0.00     0.054 A 
ATOM     10  C   UNL     1       7.923  -1.623  -2.897  1.00  0.00     0.051 A 
ATOM     11  C   UNL     1       8.115  -2.381  -0.646  1.00  0.00     0.166 A 
ATOM     12  C   UNL     1       8.343  -2.579  -1.986  1.00  0.00     0.165 A 
ATOM     13  O   UNL     1       8.622  -3.465   0.050  1.00  0.00    -0.454 OA
ATOM     14  O   UNL     1       9.000  -3.805  -2.106  1.00  0.00    -0.454 OA
ATOM     15  C   UNL     1       8.903  -4.512  -0.892  1.00  0.00     0.468 C 
ENDBRANCH   6   7
ENDBRANCH   1   6
TORSDOF 4
ENDMDL
MODEL 5
REMARK VINA RESULT:      -7.4      0.938      2.109
REMARK SMILES O=C(O)CCc1ccc2c(c1)OCO2
REMARK SMILES IDX 4 1 2 2 1 3 3 4 5 6 6 7 7 8 11 9 8 10 10 11 9 12 12 13 14 14
REMARK SMILES IDX 13 15
REMARK H PARENT 3 5
REMARK Flexibility Score: inf
ROOT
ATOM      1  C   UNL     1       5.369   2.848   0.226  1.00  0.00     0.127 C 
ENDROOT
BRANCH   1   2
ATOM      2  C   UNL     1       6.244   3.773   0.930  1.00  0.00     0.303 C 
ATOM      3  O   UNL     1       6.486   3.752   2.139  1.00  0.00    -0.252 OA
BRANCH   2   4
ATOM      4  O   UNL     1       6.868   4.775   0.171  1.00  0.00    -0.481 OA
ATOM      5  H   UNL     1       6.557   4.869  -0.784  1.00  0.00     0.296 HD
ENDBRANCH   2   4
ENDBRANCH   1   2
BRANCH   1   6
ATOM      6  C   UNL     1       5.335   1.491   0.811  1.00  0.00     0.047 C 
BRANCH   6   7
ATOM      7  C   UNL     1       6.171   0.463   0.186  1.00  0.00    -0.043 A 
ATOM      8  C   UNL     1       6.446   0.481  -1.173  1.00  0.00     0.008 A 
ATOM      9  C   UNL     1       6.676  -0.574   0.925  1.00  0.00     0.054 A 
ATOM     10  C   UNL     1       7.202  -0.505  -1.768  1.00  0.00     0.051 A 
ATOM     11  C   UNL     1       7.437  -1.573   0.349  1.00  0.00     0.166 A 
ATOM     12  C   UNL     1       7.703  -1.543  -0.998  1.00  0.00     0.165 A 
ATOM     13  O   UNL     1       8.039  -2.696   0.890  1.00  0.00    -0.454 OA
ATOM     14  O   UNL     1       8.481  -2.666  -1.281  1.00  0.00    -0.454 OA
ATOM     15  C   UNL     1       8.437  -3.555  -0.189  1.00  0.00     0.468 C 
ENDBRANCH   6   7
ENDBRANCH   1   6
TORSDOF 4
ENDMDL
