@<TRIPOS>MOLECULE
/home/cewinharhar/GITHUB/reincatalyze/data/processed/docking_pred/2023-May-17-1006_maxeplen10_maxtrainstep1000_seadep16_gamma099_lrac9e-4_lrcr1e-3_sub6/73f03501d88ed0f960f592fe5f6124e73644cb01_ligand_6.pdbqt
 15 16 0 0 0
SMALL
GASTEIGER

@<TRIPOS>ATOM
      1  C          5.3690    2.8480    0.2260 C.3     1  UNL1        0.1270
      2  C          6.2440    3.7730    0.9300 C.2     1  UNL1        0.3030
      3  O          6.4860    3.7520    2.1390 O.2     1  UNL1       -0.2520
      4  O          6.8680    4.7750    0.1710 O.3     1  UNL1       -0.4810
      5  H          6.5570    4.8690   -0.7840 H       1  UNL1        0.2960
      6  C          5.3350    1.4910    0.8110 C.3     1  UNL1        0.0470
      7  C          6.1710    0.4630    0.1860 C.2     1  UNL1       -0.0430
      8  C          6.4460    0.4810   -1.1730 C.2     1  UNL1        0.0080
      9  C          6.6760   -0.5740    0.9250 C.2     1  UNL1        0.0540
     10  C          7.2020   -0.5050   -1.7680 C.2     1  UNL1        0.0510
     11  C          7.4370   -1.5730    0.3490 C.2     1  UNL1        0.1660
     12  C          7.7030   -1.5430   -0.9980 C.2     1  UNL1        0.1650
     13  O          8.0390   -2.6960    0.8900 O.2     1  UNL1       -0.4540
     14  O          8.4810   -2.6660   -1.2810 O.2     1  UNL1       -0.4540
     15  C          8.4370   -3.5550   -0.1890 C.3     1  UNL1        0.4680
@<TRIPOS>BOND
     1    10     8    1
     2    10    12    2
     3    14    12    1
     4    14    15    1
     5     8     7    2
     6    12    11    1
     7     5     4    1
     8    15    13    1
     9     4     2    1
    10     7     6    1
    11     7     9    1
    12     1     6    1
    13     1     2    1
    14    11    13    1
    15    11     9    2
    16     2     3    2
