@<TRIPOS>MOLECULE
/home/cewinharhar/GITHUB/reincatalyze/data/processed/docking_pred/2023-May-17-1006_maxeplen10_maxtrainstep1000_seadep16_gamma099_lrac9e-4_lrcr1e-3_sub6/73f03501d88ed0f960f592fe5f6124e73644cb01_ligand_6.pdbqt
 15 16 0 0 0
SMALL
GASTEIGER

@<TRIPOS>ATOM
      1  C          4.7420    1.8840    0.7030 C.3     1  UNL1        0.1270
      2  C          4.4130    1.1600    1.9200 C.2     1  UNL1        0.3030
      3  O          5.1230    0.3130    2.4650 O.2     1  UNL1       -0.2520
      4  O          3.1810    1.4480    2.5290 O.3     1  UNL1       -0.4810
      5  H          2.6810    2.2450    2.1660 H       1  UNL1        0.2960
      6  C          6.1760    2.2200    0.5730 C.3     1  UNL1        0.0470
      7  C          7.0140    1.3160   -0.2180 C.2     1  UNL1       -0.0430
      8  C          8.3720    1.5410   -0.3780 C.2     1  UNL1        0.0080
      9  C          6.4680    0.2350   -0.8580 C.2     1  UNL1        0.0540
     10  C          9.1550    0.7130   -1.1510 C.2     1  UNL1        0.0510
     11  C          7.2330   -0.6100   -1.6380 C.2     1  UNL1        0.1660
     12  C          8.5790   -0.3750   -1.7870 C.2     1  UNL1        0.1650
     13  O          6.9030   -1.7410   -2.3640 O.2     1  UNL1       -0.4540
     14  O          9.0740   -1.3810   -2.6180 O.2     1  UNL1       -0.4540
     15  C          8.0010   -2.0520   -3.2360 C.3     1  UNL1        0.4680
@<TRIPOS>BOND
     1    15    14    1
     2    15    13    1
     3    14    12    1
     4    13    11    1
     5    12    11    2
     6    12    10    1
     7    11     9    1
     8    10     8    2
     9     9     7    2
    10     8     7    1
    11     7     6    1
    12     6     1    1
    13     1     2    1
    14     2     3    2
    15     2     4    1
    16     5     4    1
