@<TRIPOS>MOLECULE
/home/cewinharhar/GITHUB/reincatalyze/data/processed/docking_pred/2023-May-17-1006_maxeplen10_maxtrainstep1000_seadep16_gamma099_lrac9e-4_lrcr1e-3_sub6/73f03501d88ed0f960f592fe5f6124e73644cb01_ligand_6.pdbqt
 15 16 0 0 0
SMALL
GASTEIGER

@<TRIPOS>ATOM
      1  C          5.4200    2.8770    0.1060 C.3     1  UNL1        0.1270
      2  C          6.2490    3.8690    0.7730 C.2     1  UNL1        0.3030
      3  O          6.9110    4.7440    0.2120 O.2     1  UNL1       -0.2520
      4  O          6.3000    3.8280    2.1750 O.3     1  UNL1       -0.4810
      5  H          5.6230    3.2350    2.6280 H       1  UNL1        0.2960
      6  C          5.3700    1.5720    0.8010 C.3     1  UNL1        0.0470
      7  C          6.1390    0.4680    0.2240 C.2     1  UNL1       -0.0430
      8  C          6.5760   -0.5940    1.0000 C.2     1  UNL1        0.0080
      9  C          6.4840    0.4720   -1.1020 C.2     1  UNL1        0.0540
     10  C          7.3310   -1.6150    0.4670 C.2     1  UNL1        0.0510
     11  C          7.2400   -0.5420   -1.6590 C.2     1  UNL1        0.1660
     12  C          7.6650   -1.5890   -0.8780 C.2     1  UNL1        0.1650
     13  O          7.6980   -0.7430   -2.9490 O.2     1  UNL1       -0.4540
     14  O          8.3950   -2.4410   -1.7080 O.2     1  UNL1       -0.4540
     15  C          8.6910   -1.7800   -2.9170 C.3     1  UNL1        0.4680
@<TRIPOS>BOND
     1    13    15    1
     2    13    11    1
     3    15    14    1
     4    14    12    1
     5    11     9    1
     6    11    12    2
     7     9     7    2
     8    12    10    1
     9     1     2    1
    10     1     6    1
    11     3     2    2
    12     7     6    1
    13     7     8    1
    14    10     8    2
    15     2     4    1
    16     4     5    1
