@<TRIPOS>MOLECULE
/home/cewinharhar/GITHUB/reincatalyze/data/processed/docking_pred/2023-May-17-1006_maxeplen10_maxtrainstep1000_seadep16_gamma099_lrac9e-4_lrcr1e-3_sub6/73f03501d88ed0f960f592fe5f6124e73644cb01_ligand_6.pdbqt
 15 16 0 0 0
SMALL
GASTEIGER

@<TRIPOS>ATOM
      1  C          6.4830    1.2760    0.8010 C.3     1  UNL1        0.1270
      2  C          5.2480    1.1870    1.5650 C.2     1  UNL1        0.3030
      3  O          4.9940    0.3370    2.4200 O.2     1  UNL1       -0.2520
      4  O          4.2600    2.1500    1.3080 O.3     1  UNL1       -0.4810
      5  H          4.1070    2.3840    0.3390 H       1  UNL1        0.2960
      6  C          6.3340    0.9120   -0.6250 C.3     1  UNL1        0.0470
      7  C          7.0470   -0.2760   -1.0980 C.2     1  UNL1       -0.0430
      8  C          7.2840   -0.4890   -2.4480 C.2     1  UNL1        0.0080
      9  C          7.4710   -1.2360   -0.2180 C.2     1  UNL1        0.0540
     10  C          7.9230   -1.6230   -2.8970 C.2     1  UNL1        0.0510
     11  C          8.1150   -2.3810   -0.6460 C.2     1  UNL1        0.1660
     12  C          8.3430   -2.5790   -1.9860 C.2     1  UNL1        0.1650
     13  O          8.6220   -3.4650    0.0500 O.2     1  UNL1       -0.4540
     14  O          9.0000   -3.8050   -2.1060 O.2     1  UNL1       -0.4540
     15  C          8.9030   -4.5120   -0.8920 C.3     1  UNL1        0.4680
@<TRIPOS>BOND
     1    10     8    1
     2    10    12    2
     3     8     7    2
     4    14    12    1
     5    14    15    1
     6    12    11    1
     7     7     6    1
     8     7     9    1
     9    15    13    1
    10    11     9    2
    11    11    13    1
    12     6     1    1
    13     5     4    1
    14     1     2    1
    15     4     2    1
    16     2     3    2
