@<TRIPOS>MOLECULE
/home/cewinharhar/GITHUB/reincatalyze/data/processed/docking_pred/2023-May-17-1006_maxeplen10_maxtrainstep1000_seadep16_gamma099_lrac9e-4_lrcr1e-3_sub6/7473f82790d6809f011fa27bf7bcba9a4b9bdb46_ligand_6.pdbqt
 15 16 0 0 0
SMALL
GASTEIGER

@<TRIPOS>ATOM
      1  C          4.6660    1.8600    0.6610 C.3     1  UNL1        0.1270
      2  C          4.3970    1.1670    1.9110 C.2     1  UNL1        0.3030
      3  O          5.1510    0.3620    2.4620 O.2     1  UNL1       -0.2520
      4  O          3.1740    1.4350    2.5460 O.3     1  UNL1       -0.4810
      5  H          3.1650    2.2180    3.1820 H       1  UNL1        0.2960
      6  C          6.0810    2.2530    0.4860 C.3     1  UNL1        0.0470
      7  C          6.9480    1.3440   -0.2670 C.2     1  UNL1       -0.0430
      8  C          8.3110    1.5720   -0.3820 C.2     1  UNL1        0.0080
      9  C          6.4270    0.2560   -0.9160 C.2     1  UNL1        0.0540
     10  C          9.1210    0.7380   -1.1200 C.2     1  UNL1        0.0510
     11  C          7.2210   -0.5950   -1.6610 C.2     1  UNL1        0.1660
     12  C          8.5700   -0.3570   -1.7660 C.2     1  UNL1        0.1650
     13  O          6.9190   -1.7330   -2.3870 O.2     1  UNL1       -0.4540
     14  O          9.0960   -1.3700   -2.5700 O.2     1  UNL1       -0.4540
     15  C          8.0460   -2.0490   -3.2180 C.3     1  UNL1        0.4680
@<TRIPOS>BOND
     1    15    14    1
     2    15    13    1
     3    14    12    1
     4    13    11    1
     5    12    11    2
     6    12    10    1
     7    11     9    1
     8    10     8    2
     9     9     7    2
    10     8     7    1
    11     7     6    1
    12     6     1    1
    13     1     2    1
    14     2     3    2
    15     2     4    1
    16     4     5    1
