@<TRIPOS>MOLECULE
/home/cewinharhar/GITHUB/reincatalyze/data/processed/docking_pred/2023-May-17-1006_maxeplen10_maxtrainstep1000_seadep16_gamma099_lrac9e-4_lrcr1e-3_sub6/7473f82790d6809f011fa27bf7bcba9a4b9bdb46_ligand_6.pdbqt
 15 16 0 0 0
SMALL
GASTEIGER

@<TRIPOS>ATOM
      1  C          6.3920    1.3080    0.6910 C.3     1  UNL1        0.1270
      2  C          5.1870    1.2690    1.5050 C.2     1  UNL1        0.3030
      3  O          4.2370    2.0500    1.4180 O.2     1  UNL1       -0.2520
      4  O          5.0960    0.2570    2.4740 O.3     1  UNL1       -0.4810
      5  H          4.4610   -0.4980    2.2700 H       1  UNL1        0.2960
      6  C          6.1960    0.8290   -0.6940 C.3     1  UNL1        0.0470
      7  C          6.9620   -0.3450   -1.1190 C.2     1  UNL1       -0.0430
      8  C          7.2760   -0.5620   -2.4520 C.2     1  UNL1        0.0080
      9  C          7.3610   -1.2880   -0.2090 C.2     1  UNL1        0.0540
     10  C          7.9650   -1.6830   -2.8580 C.2     1  UNL1        0.0510
     11  C          8.0550   -2.4200   -0.5930 C.2     1  UNL1        0.1660
     12  C          8.3590   -2.6210   -1.9180 C.2     1  UNL1        0.1650
     13  O          8.5500   -3.4860    0.1370 O.2     1  UNL1       -0.4540
     14  O          9.0510   -3.8310   -1.9930 O.2     1  UNL1       -0.4540
     15  C          8.9060   -4.5320   -0.7790 C.3     1  UNL1        0.4680
@<TRIPOS>BOND
     1    10     8    1
     2    10    12    2
     3     8     7    2
     4    14    12    1
     5    14    15    1
     6    12    11    1
     7     7     6    1
     8     7     9    1
     9    15    13    1
    10     6     1    1
    11    11     9    2
    12    11    13    1
    13     1     2    1
    14     3     2    2
    15     2     4    1
    16     5     4    1
