MODEL 1
REMARK VINA RESULT:      -7.6      0.000      0.000
REMARK SMILES O=C(O)CCc1ccc2c(c1)OCO2
REMARK SMILES IDX 4 1 2 2 1 3 3 4 5 6 6 7 7 8 11 9 8 10 10 11 9 12 12 13 14 14
REMARK SMILES IDX 13 15
REMARK H PARENT 3 5
REMARK Flexibility Score: inf
ROOT
ATOM      1  C   UNL     1       5.411   2.879   0.109  1.00  0.00     0.127 C 
ENDROOT
BRANCH   1   2
ATOM      2  C   UNL     1       6.237   3.866   0.788  1.00  0.00     0.303 C 
ATOM      3  O   UNL     1       6.883   4.759   0.239  1.00  0.00    -0.252 OA
BRANCH   2   4
ATOM      4  O   UNL     1       6.304   3.796   2.188  1.00  0.00    -0.481 OA
ATOM      5  H   UNL     1       5.842   4.536   2.694  1.00  0.00     0.296 HD
ENDBRANCH   2   4
ENDBRANCH   1   2
BRANCH   1   6
ATOM      6  C   UNL     1       5.350   1.572   0.797  1.00  0.00     0.047 C 
BRANCH   6   7
ATOM      7  C   UNL     1       6.129   0.470   0.227  1.00  0.00    -0.043 A 
ATOM      8  C   UNL     1       6.577  -0.583   1.011  1.00  0.00     0.008 A 
ATOM      9  C   UNL     1       6.473   0.468  -1.098  1.00  0.00     0.054 A 
ATOM     10  C   UNL     1       7.340  -1.600   0.484  1.00  0.00     0.051 A 
ATOM     11  C   UNL     1       7.238  -0.543  -1.649  1.00  0.00     0.166 A 
ATOM     12  C   UNL     1       7.673  -1.580  -0.861  1.00  0.00     0.165 A 
ATOM     13  O   UNL     1       7.697  -0.749  -2.938  1.00  0.00    -0.454 OA
ATOM     14  O   UNL     1       8.411  -2.431  -1.686  1.00  0.00    -0.454 OA
ATOM     15  C   UNL     1       8.699  -1.776  -2.899  1.00  0.00     0.468 C 
ENDBRANCH   6   7
ENDBRANCH   1   6
TORSDOF 4
ENDMDL
MODEL 2
REMARK VINA RESULT:      -7.5      2.121      2.511
REMARK SMILES O=C(O)CCc1ccc2c(c1)OCO2
REMARK SMILES IDX 4 1 2 2 1 3 3 4 5 6 6 7 7 8 11 9 8 10 10 11 9 12 12 13 14 14
REMARK SMILES IDX 13 15
REMARK H PARENT 3 5
REMARK Flexibility Score: inf
ROOT
ATOM      1  C   UNL     1       4.666   1.860   0.661  1.00  0.00     0.127 C 
ENDROOT
BRANCH   1   2
ATOM      2  C   UNL     1       4.397   1.167   1.911  1.00  0.00     0.303 C 
ATOM      3  O   UNL     1       5.151   0.362   2.462  1.00  0.00    -0.252 OA
BRANCH   2   4
ATOM      4  O   UNL     1       3.174   1.435   2.546  1.00  0.00    -0.481 OA
ATOM      5  H   UNL     1       3.165   2.218   3.182  1.00  0.00     0.296 HD
ENDBRANCH   2   4
ENDBRANCH   1   2
BRANCH   1   6
ATOM      6  C   UNL     1       6.081   2.253   0.486  1.00  0.00     0.047 C 
BRANCH   6   7
ATOM      7  C   UNL     1       6.948   1.344  -0.267  1.00  0.00    -0.043 A 
ATOM      8  C   UNL     1       8.311   1.572  -0.382  1.00  0.00     0.008 A 
ATOM      9  C   UNL     1       6.427   0.256  -0.916  1.00  0.00     0.054 A 
ATOM     10  C   UNL     1       9.121   0.738  -1.120  1.00  0.00     0.051 A 
ATOM     11  C   UNL     1       7.221  -0.595  -1.661  1.00  0.00     0.166 A 
ATOM     12  C   UNL     1       8.570  -0.357  -1.766  1.00  0.00     0.165 A 
ATOM     13  O   UNL     1       6.919  -1.733  -2.387  1.00  0.00    -0.454 OA
ATOM     14  O   UNL     1       9.096  -1.370  -2.570  1.00  0.00    -0.454 OA
ATOM     15  C   UNL     1       8.046  -2.049  -3.218  1.00  0.00     0.468 C 
ENDBRANCH   6   7
ENDBRANCH   1   6
TORSDOF 4
ENDMDL
MODEL 3
REMARK VINA RESULT:      -7.4      1.810      5.268
REMARK SMILES O=C(O)CCc1ccc2c(c1)OCO2
REMARK SMILES IDX 4 1 2 2 1 3 3 4 5 6 6 7 7 8 11 9 8 10 10 11 9 12 12 13 14 14
REMARK SMILES IDX 13 15
REMARK H PARENT 3 5
REMARK Flexibility Score: inf
ROOT
ATOM      1  C   UNL     1       8.234  -0.210  -2.832  1.00  0.00     0.127 C 
ENDROOT
BRANCH   1   2
ATOM      2  C   UNL     1       8.466  -1.632  -3.037  1.00  0.00     0.303 C 
ATOM      3  O   UNL     1       9.549  -2.206  -2.918  1.00  0.00    -0.252 OA
BRANCH   2   4
ATOM      4  O   UNL     1       7.362  -2.419  -3.402  1.00  0.00    -0.481 OA
ATOM      5  H   UNL     1       7.116  -3.162  -2.767  1.00  0.00     0.296 HD
ENDBRANCH   2   4
ENDBRANCH   1   2
BRANCH   1   6
ATOM      6  C   UNL     1       8.691   0.289  -1.517  1.00  0.00     0.047 C 
BRANCH   6   7
ATOM      7  C   UNL     1       7.741   0.235  -0.404  1.00  0.00    -0.043 A 
ATOM      8  C   UNL     1       7.771  -0.794   0.525  1.00  0.00     0.008 A 
ATOM      9  C   UNL     1       6.765   1.186  -0.271  1.00  0.00     0.054 A 
ATOM     10  C   UNL     1       6.855  -0.865   1.551  1.00  0.00     0.051 A 
ATOM     11  C   UNL     1       5.836   1.135   0.751  1.00  0.00     0.166 A 
ATOM     12  C   UNL     1       5.878   0.110   1.666  1.00  0.00     0.165 A 
ATOM     13  O   UNL     1       4.781   1.970   1.077  1.00  0.00    -0.454 OA
ATOM     14  O   UNL     1       4.830   0.326   2.562  1.00  0.00    -0.454 OA
ATOM     15  C   UNL     1       3.952   1.294   2.034  1.00  0.00     0.468 C 
ENDBRANCH   6   7
ENDBRANCH   1   6
TORSDOF 4
ENDMDL
MODEL 4
REMARK VINA RESULT:      -7.4      1.989      2.897
REMARK SMILES O=C(O)CCc1ccc2c(c1)OCO2
REMARK SMILES IDX 4 1 2 2 1 3 3 4 5 6 6 7 7 8 11 9 8 10 10 11 9 12 12 13 14 14
REMARK SMILES IDX 13 15
REMARK H PARENT 3 5
REMARK Flexibility Score: inf
ROOT
ATOM      1  C   UNL     1       6.392   1.308   0.691  1.00  0.00     0.127 C 
ENDROOT
BRANCH   1   2
ATOM      2  C   UNL     1       5.187   1.269   1.505  1.00  0.00     0.303 C 
ATOM      3  O   UNL     1       4.237   2.050   1.418  1.00  0.00    -0.252 OA
BRANCH   2   4
ATOM      4  O   UNL     1       5.096   0.257   2.474  1.00  0.00    -0.481 OA
ATOM      5  H   UNL     1       4.461  -0.498   2.270  1.00  0.00     0.296 HD
ENDBRANCH   2   4
ENDBRANCH   1   2
BRANCH   1   6
ATOM      6  C   UNL     1       6.196   0.829  -0.694  1.00  0.00     0.047 C 
BRANCH   6   7
ATOM      7  C   UNL     1       6.962  -0.345  -1.119  1.00  0.00    -0.043 A 
ATOM      8  C   UNL     1       7.276  -0.562  -2.452  1.00  0.00     0.008 A 
ATOM      9  C   UNL     1       7.361  -1.288  -0.209  1.00  0.00     0.054 A 
ATOM     10  C   UNL     1       7.965  -1.683  -2.858  1.00  0.00     0.051 A 
ATOM     11  C   UNL     1       8.055  -2.420  -0.593  1.00  0.00     0.166 A 
ATOM     12  C   UNL     1       8.359  -2.621  -1.918  1.00  0.00     0.165 A 
ATOM     13  O   UNL     1       8.550  -3.486   0.137  1.00  0.00    -0.454 OA
ATOM     14  O   UNL     1       9.051  -3.831  -1.993  1.00  0.00    -0.454 OA
ATOM     15  C   UNL     1       8.906  -4.532  -0.779  1.00  0.00     0.468 C 
ENDBRANCH   6   7
ENDBRANCH   1   6
TORSDOF 4
ENDMDL
MODEL 5
REMARK VINA RESULT:      -7.4      0.972      2.137
REMARK SMILES O=C(O)CCc1ccc2c(c1)OCO2
REMARK SMILES IDX 4 1 2 2 1 3 3 4 5 6 6 7 7 8 11 9 8 10 10 11 9 12 12 13 14 14
REMARK SMILES IDX 13 15
REMARK H PARENT 3 5
REMARK Flexibility Score: inf
ROOT
ATOM      1  C   UNL     1       5.369   2.850   0.166  1.00  0.00     0.127 C 
ENDROOT
BRANCH   1   2
ATOM      2  C   UNL     1       6.113   3.858   0.906  1.00  0.00     0.303 C 
ATOM      3  O   UNL     1       6.111   3.996   2.130  1.00  0.00    -0.252 OA
BRANCH   2   4
ATOM      4  O   UNL     1       6.901   4.752   0.163  1.00  0.00    -0.481 OA
ATOM      5  H   UNL     1       6.920   4.605  -0.834  1.00  0.00     0.296 HD
ENDBRANCH   2   4
ENDBRANCH   1   2
BRANCH   1   6
ATOM      6  C   UNL     1       5.360   1.519   0.810  1.00  0.00     0.047 C 
BRANCH   6   7
ATOM      7  C   UNL     1       6.200   0.475   0.218  1.00  0.00    -0.043 A 
ATOM      8  C   UNL     1       6.495   0.463  -1.136  1.00  0.00     0.008 A 
ATOM      9  C   UNL     1       6.689  -0.548   0.986  1.00  0.00     0.054 A 
ATOM     10  C   UNL     1       7.254  -0.538  -1.700  1.00  0.00     0.051 A 
ATOM     11  C   UNL     1       7.454  -1.563   0.442  1.00  0.00     0.166 A 
ATOM     12  C   UNL     1       7.739  -1.561  -0.902  1.00  0.00     0.165 A 
ATOM     13  O   UNL     1       8.043  -2.677   1.014  1.00  0.00    -0.454 OA
ATOM     14  O   UNL     1       8.516  -2.694  -1.151  1.00  0.00    -0.454 OA
ATOM     15  C   UNL     1       8.453  -3.560  -0.041  1.00  0.00     0.468 C 
ENDBRANCH   6   7
ENDBRANCH   1   6
TORSDOF 4
ENDMDL
