@<TRIPOS>MOLECULE
/home/cewinharhar/GITHUB/reincatalyze/data/processed/docking_pred/2023-May-17-1006_maxeplen10_maxtrainstep1000_seadep16_gamma099_lrac9e-4_lrcr1e-3_sub6/7473f82790d6809f011fa27bf7bcba9a4b9bdb46_ligand_6.pdbqt
 15 16 0 0 0
SMALL
GASTEIGER

@<TRIPOS>ATOM
      1  C          5.4110    2.8790    0.1090 C.3     1  UNL1        0.1270
      2  C          6.2370    3.8660    0.7880 C.2     1  UNL1        0.3030
      3  O          6.8830    4.7590    0.2390 O.2     1  UNL1       -0.2520
      4  O          6.3040    3.7960    2.1880 O.3     1  UNL1       -0.4810
      5  H          5.8420    4.5360    2.6940 H       1  UNL1        0.2960
      6  C          5.3500    1.5720    0.7970 C.3     1  UNL1        0.0470
      7  C          6.1290    0.4700    0.2270 C.2     1  UNL1       -0.0430
      8  C          6.5770   -0.5830    1.0110 C.2     1  UNL1        0.0080
      9  C          6.4730    0.4680   -1.0980 C.2     1  UNL1        0.0540
     10  C          7.3400   -1.6000    0.4840 C.2     1  UNL1        0.0510
     11  C          7.2380   -0.5430   -1.6490 C.2     1  UNL1        0.1660
     12  C          7.6730   -1.5800   -0.8610 C.2     1  UNL1        0.1650
     13  O          7.6970   -0.7490   -2.9380 O.2     1  UNL1       -0.4540
     14  O          8.4110   -2.4310   -1.6860 O.2     1  UNL1       -0.4540
     15  C          8.6990   -1.7760   -2.8990 C.3     1  UNL1        0.4680
@<TRIPOS>BOND
     1    13    15    1
     2    13    11    1
     3    15    14    1
     4    14    12    1
     5    11     9    1
     6    11    12    2
     7     9     7    2
     8    12    10    1
     9     1     2    1
    10     1     6    1
    11     7     6    1
    12     7     8    1
    13     3     2    2
    14    10     8    2
    15     2     4    1
    16     4     5    1
