@<TRIPOS>MOLECULE
/home/cewinharhar/GITHUB/reincatalyze/data/processed/docking_pred/2023-May-17-1006_maxeplen10_maxtrainstep1000_seadep16_gamma099_lrac9e-4_lrcr1e-3_sub6/7473f82790d6809f011fa27bf7bcba9a4b9bdb46_ligand_6.pdbqt
 15 16 0 0 0
SMALL
GASTEIGER

@<TRIPOS>ATOM
      1  C          8.2340   -0.2100   -2.8320 C.3     1  UNL1        0.1270
      2  C          8.4660   -1.6320   -3.0370 C.2     1  UNL1        0.3030
      3  O          9.5490   -2.2060   -2.9180 O.2     1  UNL1       -0.2520
      4  O          7.3620   -2.4190   -3.4020 O.3     1  UNL1       -0.4810
      5  H          7.1160   -3.1620   -2.7670 H       1  UNL1        0.2960
      6  C          8.6910    0.2890   -1.5170 C.3     1  UNL1        0.0470
      7  C          7.7410    0.2350   -0.4040 C.2     1  UNL1       -0.0430
      8  C          7.7710   -0.7940    0.5250 C.2     1  UNL1        0.0080
      9  C          6.7650    1.1860   -0.2710 C.2     1  UNL1        0.0540
     10  C          6.8550   -0.8650    1.5510 C.2     1  UNL1        0.0510
     11  C          5.8360    1.1350    0.7510 C.2     1  UNL1        0.1660
     12  C          5.8780    0.1100    1.6660 C.2     1  UNL1        0.1650
     13  O          4.7810    1.9700    1.0770 O.2     1  UNL1       -0.4540
     14  O          4.8300    0.3260    2.5620 O.2     1  UNL1       -0.4540
     15  C          3.9520    1.2940    2.0340 C.3     1  UNL1        0.4680
@<TRIPOS>BOND
     1     4     2    1
     2     4     5    1
     3     2     3    2
     4     2     1    1
     5     1     6    1
     6     6     7    1
     7     7     9    2
     8     7     8    1
     9     9    11    1
    10     8    10    2
    11    11    13    1
    12    11    12    2
    13    13    15    1
    14    10    12    1
    15    12    14    1
    16    15    14    1
