@<TRIPOS>MOLECULE
/home/cewinharhar/GITHUB/reincatalyze/data/processed/docking_pred/2023-May-17-1006_maxeplen10_maxtrainstep1000_seadep16_gamma099_lrac9e-4_lrcr1e-3_sub6/7473f82790d6809f011fa27bf7bcba9a4b9bdb46_ligand_6.pdbqt
 15 16 0 0 0
SMALL
GASTEIGER

@<TRIPOS>ATOM
      1  C          5.3690    2.8500    0.1660 C.3     1  UNL1        0.1270
      2  C          6.1130    3.8580    0.9060 C.2     1  UNL1        0.3030
      3  O          6.1110    3.9960    2.1300 O.2     1  UNL1       -0.2520
      4  O          6.9010    4.7520    0.1630 O.3     1  UNL1       -0.4810
      5  H          6.9200    4.6050   -0.8340 H       1  UNL1        0.2960
      6  C          5.3600    1.5190    0.8100 C.3     1  UNL1        0.0470
      7  C          6.2000    0.4750    0.2180 C.2     1  UNL1       -0.0430
      8  C          6.4950    0.4630   -1.1360 C.2     1  UNL1        0.0080
      9  C          6.6890   -0.5480    0.9860 C.2     1  UNL1        0.0540
     10  C          7.2540   -0.5380   -1.7000 C.2     1  UNL1        0.0510
     11  C          7.4540   -1.5630    0.4420 C.2     1  UNL1        0.1660
     12  C          7.7390   -1.5610   -0.9020 C.2     1  UNL1        0.1650
     13  O          8.0430   -2.6770    1.0140 O.2     1  UNL1       -0.4540
     14  O          8.5160   -2.6940   -1.1510 O.2     1  UNL1       -0.4540
     15  C          8.4530   -3.5600   -0.0410 C.3     1  UNL1        0.4680
@<TRIPOS>BOND
     1    10     8    1
     2    10    12    2
     3    14    12    1
     4    14    15    1
     5     8     7    2
     6    12    11    1
     7     5     4    1
     8    15    13    1
     9     4     2    1
    10     1     6    1
    11     1     2    1
    12     7     6    1
    13     7     9    1
    14    11     9    2
    15    11    13    1
    16     2     3    2
