@<TRIPOS>MOLECULE
/home/cewinharhar/GITHUB/reincatalyze/data/processed/docking_pred/2023-May-17-1006_maxeplen10_maxtrainstep1000_seadep16_gamma099_lrac9e-4_lrcr1e-3_sub6/76d14433275938f70f74ce69856b36729c59e426_ligand_6.pdbqt
 15 16 0 0 0
SMALL
GASTEIGER

@<TRIPOS>ATOM
      1  C          4.6790    1.8640    0.6670 C.3     1  UNL1        0.1270
      2  C          4.4020    1.1650    1.9120 C.2     1  UNL1        0.3030
      3  O          5.1510    0.3550    2.4610 O.2     1  UNL1       -0.2520
      4  O          3.1780    1.4340    2.5440 O.3     1  UNL1       -0.4810
      5  H          3.2280    1.9400    3.4150 H       1  UNL1        0.2960
      6  C          6.0960    2.2480    0.4960 C.3     1  UNL1        0.0470
      7  C          6.9580    1.3380   -0.2620 C.2     1  UNL1       -0.0430
      8  C          8.3210    1.5620   -0.3820 C.2     1  UNL1        0.0080
      9  C          6.4310    0.2520   -0.9100 C.2     1  UNL1        0.0540
     10  C          9.1260    0.7270   -1.1240 C.2     1  UNL1        0.0510
     11  C          7.2200   -0.5990   -1.6600 C.2     1  UNL1        0.1660
     12  C          8.5700   -0.3650   -1.7700 C.2     1  UNL1        0.1650
     13  O          6.9120   -1.7360   -2.3870 O.2     1  UNL1       -0.4540
     14  O          9.0900   -1.3780   -2.5780 O.2     1  UNL1       -0.4540
     15  C          8.0350   -2.0530   -3.2230 C.3     1  UNL1        0.4680
@<TRIPOS>BOND
     1    15    14    1
     2    15    13    1
     3    14    12    1
     4    13    11    1
     5    12    11    2
     6    12    10    1
     7    11     9    1
     8    10     8    2
     9     9     7    2
    10     8     7    1
    11     7     6    1
    12     6     1    1
    13     1     2    1
    14     2     3    2
    15     2     4    1
    16     4     5    1
