MODEL 1
REMARK VINA RESULT:      -7.7      0.000      0.000
REMARK SMILES O=C(O)CCc1ccc2c(c1)OCO2
REMARK SMILES IDX 4 1 2 2 1 3 3 4 5 6 6 7 7 8 11 9 8 10 10 11 9 12 12 13 14 14
REMARK SMILES IDX 13 15
REMARK H PARENT 3 5
REMARK Flexibility Score: inf
ROOT
ATOM      1  C   UNL     1       5.420   2.872   0.126  1.00  0.00     0.127 C 
ENDROOT
BRANCH   1   2
ATOM      2  C   UNL     1       6.243   3.857   0.811  1.00  0.00     0.303 C 
ATOM      3  O   UNL     1       6.867   4.771   0.269  1.00  0.00    -0.252 OA
BRANCH   2   4
ATOM      4  O   UNL     1       6.336   3.760   2.208  1.00  0.00    -0.481 OA
ATOM      5  H   UNL     1       7.266   3.671   2.587  1.00  0.00     0.296 HD
ENDBRANCH   2   4
ENDBRANCH   1   2
BRANCH   1   6
ATOM      6  C   UNL     1       5.352   1.565   0.813  1.00  0.00     0.047 C 
BRANCH   6   7
ATOM      7  C   UNL     1       6.129   0.460   0.246  1.00  0.00    -0.043 A 
ATOM      8  C   UNL     1       6.601  -0.575   1.038  1.00  0.00     0.008 A 
ATOM      9  C   UNL     1       6.448   0.440  -1.086  1.00  0.00     0.054 A 
ATOM     10  C   UNL     1       7.363  -1.595   0.513  1.00  0.00     0.051 A 
ATOM     11  C   UNL     1       7.210  -0.574  -1.635  1.00  0.00     0.166 A 
ATOM     12  C   UNL     1       7.669  -1.595  -0.838  1.00  0.00     0.165 A 
ATOM     13  O   UNL     1       7.646  -0.798  -2.929  1.00  0.00    -0.454 OA
ATOM     14  O   UNL     1       8.398  -2.453  -1.664  1.00  0.00    -0.454 OA
ATOM     15  C   UNL     1       8.657  -1.816  -2.893  1.00  0.00     0.468 C 
ENDBRANCH   6   7
ENDBRANCH   1   6
TORSDOF 4
ENDMDL
MODEL 2
REMARK VINA RESULT:      -7.6      2.121      2.507
REMARK SMILES O=C(O)CCc1ccc2c(c1)OCO2
REMARK SMILES IDX 4 1 2 2 1 3 3 4 5 6 6 7 7 8 11 9 8 10 10 11 9 12 12 13 14 14
REMARK SMILES IDX 13 15
REMARK H PARENT 3 5
REMARK Flexibility Score: inf
ROOT
ATOM      1  C   UNL     1       4.679   1.864   0.667  1.00  0.00     0.127 C 
ENDROOT
BRANCH   1   2
ATOM      2  C   UNL     1       4.402   1.165   1.912  1.00  0.00     0.303 C 
ATOM      3  O   UNL     1       5.151   0.355   2.461  1.00  0.00    -0.252 OA
BRANCH   2   4
ATOM      4  O   UNL     1       3.178   1.434   2.544  1.00  0.00    -0.481 OA
ATOM      5  H   UNL     1       3.228   1.940   3.415  1.00  0.00     0.296 HD
ENDBRANCH   2   4
ENDBRANCH   1   2
BRANCH   1   6
ATOM      6  C   UNL     1       6.096   2.248   0.496  1.00  0.00     0.047 C 
BRANCH   6   7
ATOM      7  C   UNL     1       6.958   1.338  -0.262  1.00  0.00    -0.043 A 
ATOM      8  C   UNL     1       8.321   1.562  -0.382  1.00  0.00     0.008 A 
ATOM      9  C   UNL     1       6.431   0.252  -0.910  1.00  0.00     0.054 A 
ATOM     10  C   UNL     1       9.126   0.727  -1.124  1.00  0.00     0.051 A 
ATOM     11  C   UNL     1       7.220  -0.599  -1.660  1.00  0.00     0.166 A 
ATOM     12  C   UNL     1       8.570  -0.365  -1.770  1.00  0.00     0.165 A 
ATOM     13  O   UNL     1       6.912  -1.736  -2.387  1.00  0.00    -0.454 OA
ATOM     14  O   UNL     1       9.090  -1.378  -2.578  1.00  0.00    -0.454 OA
ATOM     15  C   UNL     1       8.035  -2.053  -3.223  1.00  0.00     0.468 C 
ENDBRANCH   6   7
ENDBRANCH   1   6
TORSDOF 4
ENDMDL
MODEL 3
REMARK VINA RESULT:      -7.4      1.788      5.284
REMARK SMILES O=C(O)CCc1ccc2c(c1)OCO2
REMARK SMILES IDX 4 1 2 2 1 3 3 4 5 6 6 7 7 8 11 9 8 10 10 11 9 12 12 13 14 14
REMARK SMILES IDX 13 15
REMARK H PARENT 3 5
REMARK Flexibility Score: inf
ROOT
ATOM      1  C   UNL     1       8.317  -0.319  -2.860  1.00  0.00     0.127 C 
ENDROOT
BRANCH   1   2
ATOM      2  C   UNL     1       8.477  -1.749  -3.076  1.00  0.00     0.303 C 
ATOM      3  O   UNL     1       9.544  -2.364  -3.043  1.00  0.00    -0.252 OA
BRANCH   2   4
ATOM      4  O   UNL     1       7.318  -2.493  -3.345  1.00  0.00    -0.481 OA
ATOM      5  H   UNL     1       6.496  -1.964  -3.593  1.00  0.00     0.296 HD
ENDBRANCH   2   4
ENDBRANCH   1   2
BRANCH   1   6
ATOM      6  C   UNL     1       8.768   0.140  -1.529  1.00  0.00     0.047 C 
BRANCH   6   7
ATOM      7  C   UNL     1       7.797   0.097  -0.433  1.00  0.00    -0.043 A 
ATOM      8  C   UNL     1       7.739  -0.977   0.442  1.00  0.00     0.008 A 
ATOM      9  C   UNL     1       6.887   1.106  -0.264  1.00  0.00     0.054 A 
ATOM     10  C   UNL     1       6.804  -1.036   1.451  1.00  0.00     0.051 A 
ATOM     11  C   UNL     1       5.940   1.069   0.742  1.00  0.00     0.166 A 
ATOM     12  C   UNL     1       5.895  -0.001   1.602  1.00  0.00     0.165 A 
ATOM     13  O   UNL     1       4.940   1.958   1.096  1.00  0.00    -0.454 OA
ATOM     14  O   UNL     1       4.849   0.242   2.494  1.00  0.00    -0.454 OA
ATOM     15  C   UNL     1       4.050   1.295   2.006  1.00  0.00     0.468 C 
ENDBRANCH   6   7
ENDBRANCH   1   6
TORSDOF 4
ENDMDL
MODEL 4
REMARK VINA RESULT:      -7.4      1.959      2.857
REMARK SMILES O=C(O)CCc1ccc2c(c1)OCO2
REMARK SMILES IDX 4 1 2 2 1 3 3 4 5 6 6 7 7 8 11 9 8 10 10 11 9 12 12 13 14 14
REMARK SMILES IDX 13 15
REMARK H PARENT 3 5
REMARK Flexibility Score: inf
ROOT
ATOM      1  C   UNL     1       6.430   1.338   0.729  1.00  0.00     0.127 C 
ENDROOT
BRANCH   1   2
ATOM      2  C   UNL     1       5.192   1.317   1.492  1.00  0.00     0.303 C 
ATOM      3  O   UNL     1       4.256   2.109   1.362  1.00  0.00    -0.252 OA
BRANCH   2   4
ATOM      4  O   UNL     1       5.047   0.311   2.460  1.00  0.00    -0.481 OA
ATOM      5  H   UNL     1       4.468  -0.474   2.202  1.00  0.00     0.296 HD
ENDBRANCH   2   4
ENDBRANCH   1   2
BRANCH   1   6
ATOM      6  C   UNL     1       6.272   0.929  -0.683  1.00  0.00     0.047 C 
BRANCH   6   7
ATOM      7  C   UNL     1       7.005  -0.257  -1.131  1.00  0.00    -0.043 A 
ATOM      8  C   UNL     1       7.285  -0.472  -2.471  1.00  0.00     0.008 A 
ATOM      9  C   UNL     1       7.404  -1.214  -0.235  1.00  0.00     0.054 A 
ATOM     10  C   UNL     1       7.943  -1.605  -2.898  1.00  0.00     0.051 A 
ATOM     11  C   UNL     1       8.066  -2.357  -0.640  1.00  0.00     0.166 A 
ATOM     12  C   UNL     1       8.338  -2.557  -1.972  1.00  0.00     0.165 A 
ATOM     13  O   UNL     1       8.554  -3.438   0.074  1.00  0.00    -0.454 OA
ATOM     14  O   UNL     1       9.003  -3.780  -2.068  1.00  0.00    -0.454 OA
ATOM     15  C   UNL     1       8.870  -4.485  -0.856  1.00  0.00     0.468 C 
ENDBRANCH   6   7
ENDBRANCH   1   6
TORSDOF 4
ENDMDL
MODEL 5
REMARK VINA RESULT:      -7.4      0.946      2.113
REMARK SMILES O=C(O)CCc1ccc2c(c1)OCO2
REMARK SMILES IDX 4 1 2 2 1 3 3 4 5 6 6 7 7 8 11 9 8 10 10 11 9 12 12 13 14 14
REMARK SMILES IDX 13 15
REMARK H PARENT 3 5
REMARK Flexibility Score: inf
ROOT
ATOM      1  C   UNL     1       5.389   2.832   0.078  1.00  0.00     0.127 C 
ENDROOT
BRANCH   1   2
ATOM      2  C   UNL     1       6.114   3.843   0.831  1.00  0.00     0.303 C 
ATOM      3  O   UNL     1       6.126   3.953   2.059  1.00  0.00    -0.252 OA
BRANCH   2   4
ATOM      4  O   UNL     1       6.867   4.775   0.099  1.00  0.00    -0.481 OA
ATOM      5  H   UNL     1       6.400   5.636  -0.139  1.00  0.00     0.296 HD
ENDBRANCH   2   4
ENDBRANCH   1   2
BRANCH   1   6
ATOM      6  C   UNL     1       5.380   1.499   0.718  1.00  0.00     0.047 C 
BRANCH   6   7
ATOM      7  C   UNL     1       6.225   0.459   0.127  1.00  0.00    -0.043 A 
ATOM      8  C   UNL     1       6.530   0.454  -1.225  1.00  0.00     0.008 A 
ATOM      9  C   UNL     1       6.709  -0.568   0.893  1.00  0.00     0.054 A 
ATOM     10  C   UNL     1       7.294  -0.543  -1.788  1.00  0.00     0.051 A 
ATOM     11  C   UNL     1       7.479  -1.579   0.350  1.00  0.00     0.166 A 
ATOM     12  C   UNL     1       7.774  -1.570  -0.992  1.00  0.00     0.165 A 
ATOM     13  O   UNL     1       8.065  -2.695   0.921  1.00  0.00    -0.454 OA
ATOM     14  O   UNL     1       8.554  -2.701  -1.240  1.00  0.00    -0.454 OA
ATOM     15  C   UNL     1       8.483  -3.573  -0.135  1.00  0.00     0.468 C 
ENDBRANCH   6   7
ENDBRANCH   1   6
TORSDOF 4
ENDMDL
