@<TRIPOS>MOLECULE
/home/cewinharhar/GITHUB/reincatalyze/data/processed/docking_pred/2023-May-17-1006_maxeplen10_maxtrainstep1000_seadep16_gamma099_lrac9e-4_lrcr1e-3_sub6/76d14433275938f70f74ce69856b36729c59e426_ligand_6.pdbqt
 15 16 0 0 0
SMALL
GASTEIGER

@<TRIPOS>ATOM
      1  C          8.3170   -0.3190   -2.8600 C.3     1  UNL1        0.1270
      2  C          8.4770   -1.7490   -3.0760 C.2     1  UNL1        0.3030
      3  O          9.5440   -2.3640   -3.0430 O.2     1  UNL1       -0.2520
      4  O          7.3180   -2.4930   -3.3450 O.3     1  UNL1       -0.4810
      5  H          6.4960   -1.9640   -3.5930 H       1  UNL1        0.2960
      6  C          8.7680    0.1400   -1.5290 C.3     1  UNL1        0.0470
      7  C          7.7970    0.0970   -0.4330 C.2     1  UNL1       -0.0430
      8  C          7.7390   -0.9770    0.4420 C.2     1  UNL1        0.0080
      9  C          6.8870    1.1060   -0.2640 C.2     1  UNL1        0.0540
     10  C          6.8040   -1.0360    1.4510 C.2     1  UNL1        0.0510
     11  C          5.9400    1.0690    0.7420 C.2     1  UNL1        0.1660
     12  C          5.8950   -0.0010    1.6020 C.2     1  UNL1        0.1650
     13  O          4.9400    1.9580    1.0960 O.2     1  UNL1       -0.4540
     14  O          4.8490    0.2420    2.4940 O.2     1  UNL1       -0.4540
     15  C          4.0500    1.2950    2.0060 C.3     1  UNL1        0.4680
@<TRIPOS>BOND
     1     5     4    1
     2     4     2    1
     3     2     3    2
     4     2     1    1
     5     1     6    1
     6     6     7    1
     7     7     9    2
     8     7     8    1
     9     9    11    1
    10     8    10    2
    11    11    13    1
    12    11    12    2
    13    13    15    1
    14    10    12    1
    15    12    14    1
    16    15    14    1
