@<TRIPOS>MOLECULE
/home/cewinharhar/GITHUB/reincatalyze/data/processed/docking_pred/2023-May-17-1006_maxeplen10_maxtrainstep1000_seadep16_gamma099_lrac9e-4_lrcr1e-3_sub6/76d14433275938f70f74ce69856b36729c59e426_ligand_6.pdbqt
 15 16 0 0 0
SMALL
GASTEIGER

@<TRIPOS>ATOM
      1  C          5.3890    2.8320    0.0780 C.3     1  UNL1        0.1270
      2  C          6.1140    3.8430    0.8310 C.2     1  UNL1        0.3030
      3  O          6.1260    3.9530    2.0590 O.2     1  UNL1       -0.2520
      4  O          6.8670    4.7750    0.0990 O.3     1  UNL1       -0.4810
      5  H          6.4000    5.6360   -0.1390 H       1  UNL1        0.2960
      6  C          5.3800    1.4990    0.7180 C.3     1  UNL1        0.0470
      7  C          6.2250    0.4590    0.1270 C.2     1  UNL1       -0.0430
      8  C          6.5300    0.4540   -1.2250 C.2     1  UNL1        0.0080
      9  C          6.7090   -0.5680    0.8930 C.2     1  UNL1        0.0540
     10  C          7.2940   -0.5430   -1.7880 C.2     1  UNL1        0.0510
     11  C          7.4790   -1.5790    0.3500 C.2     1  UNL1        0.1660
     12  C          7.7740   -1.5700   -0.9920 C.2     1  UNL1        0.1650
     13  O          8.0650   -2.6950    0.9210 O.2     1  UNL1       -0.4540
     14  O          8.5540   -2.7010   -1.2400 O.2     1  UNL1       -0.4540
     15  C          8.4830   -3.5730   -0.1350 C.3     1  UNL1        0.4680
@<TRIPOS>BOND
     1    10     8    1
     2    10    12    2
     3    14    12    1
     4    14    15    1
     5     8     7    2
     6    12    11    1
     7     5     4    1
     8    15    13    1
     9     1     6    1
    10     1     2    1
    11     4     2    1
    12     7     6    1
    13     7     9    1
    14    11     9    2
    15    11    13    1
    16     2     3    2
