@<TRIPOS>MOLECULE
/home/cewinharhar/GITHUB/reincatalyze/data/processed/docking_pred/2023-May-17-1006_maxeplen10_maxtrainstep1000_seadep16_gamma099_lrac9e-4_lrcr1e-3_sub6/76d14433275938f70f74ce69856b36729c59e426_ligand_6.pdbqt
 15 16 0 0 0
SMALL
GASTEIGER

@<TRIPOS>ATOM
      1  C          6.4300    1.3380    0.7290 C.3     1  UNL1        0.1270
      2  C          5.1920    1.3170    1.4920 C.2     1  UNL1        0.3030
      3  O          4.2560    2.1090    1.3620 O.2     1  UNL1       -0.2520
      4  O          5.0470    0.3110    2.4600 O.3     1  UNL1       -0.4810
      5  H          4.4680   -0.4740    2.2020 H       1  UNL1        0.2960
      6  C          6.2720    0.9290   -0.6830 C.3     1  UNL1        0.0470
      7  C          7.0050   -0.2570   -1.1310 C.2     1  UNL1       -0.0430
      8  C          7.2850   -0.4720   -2.4710 C.2     1  UNL1        0.0080
      9  C          7.4040   -1.2140   -0.2350 C.2     1  UNL1        0.0540
     10  C          7.9430   -1.6050   -2.8980 C.2     1  UNL1        0.0510
     11  C          8.0660   -2.3570   -0.6400 C.2     1  UNL1        0.1660
     12  C          8.3380   -2.5570   -1.9720 C.2     1  UNL1        0.1650
     13  O          8.5540   -3.4380    0.0740 O.2     1  UNL1       -0.4540
     14  O          9.0030   -3.7800   -2.0680 O.2     1  UNL1       -0.4540
     15  C          8.8700   -4.4850   -0.8560 C.3     1  UNL1        0.4680
@<TRIPOS>BOND
     1    10     8    1
     2    10    12    2
     3     8     7    2
     4    14    12    1
     5    14    15    1
     6    12    11    1
     7     7     6    1
     8     7     9    1
     9    15    13    1
    10     6     1    1
    11    11     9    2
    12    11    13    1
    13     1     2    1
    14     3     2    2
    15     2     4    1
    16     5     4    1
