@<TRIPOS>MOLECULE
/home/cewinharhar/GITHUB/reincatalyze/data/processed/docking_pred/2023-May-17-1006_maxeplen10_maxtrainstep1000_seadep16_gamma099_lrac9e-4_lrcr1e-3_sub6/76d14433275938f70f74ce69856b36729c59e426_ligand_6.pdbqt
 15 16 0 0 0
SMALL
GASTEIGER

@<TRIPOS>ATOM
      1  C          5.4200    2.8720    0.1260 C.3     1  UNL1        0.1270
      2  C          6.2430    3.8570    0.8110 C.2     1  UNL1        0.3030
      3  O          6.8670    4.7710    0.2690 O.2     1  UNL1       -0.2520
      4  O          6.3360    3.7600    2.2080 O.3     1  UNL1       -0.4810
      5  H          7.2660    3.6710    2.5870 H       1  UNL1        0.2960
      6  C          5.3520    1.5650    0.8130 C.3     1  UNL1        0.0470
      7  C          6.1290    0.4600    0.2460 C.2     1  UNL1       -0.0430
      8  C          6.6010   -0.5750    1.0380 C.2     1  UNL1        0.0080
      9  C          6.4480    0.4400   -1.0860 C.2     1  UNL1        0.0540
     10  C          7.3630   -1.5950    0.5130 C.2     1  UNL1        0.0510
     11  C          7.2100   -0.5740   -1.6350 C.2     1  UNL1        0.1660
     12  C          7.6690   -1.5950   -0.8380 C.2     1  UNL1        0.1650
     13  O          7.6460   -0.7980   -2.9290 O.2     1  UNL1       -0.4540
     14  O          8.3980   -2.4530   -1.6640 O.2     1  UNL1       -0.4540
     15  C          8.6570   -1.8160   -2.8930 C.3     1  UNL1        0.4680
@<TRIPOS>BOND
     1    13    15    1
     2    13    11    1
     3    15    14    1
     4    14    12    1
     5    11     9    1
     6    11    12    2
     7     9     7    2
     8    12    10    1
     9     1     2    1
    10     1     6    1
    11     7     6    1
    12     7     8    1
    13     3     2    2
    14    10     8    2
    15     2     4    1
    16     4     5    1
