@<TRIPOS>MOLECULE
/home/cewinharhar/GITHUB/reincatalyze/data/processed/docking_pred/2023-May-17-1006_maxeplen10_maxtrainstep1000_seadep16_gamma099_lrac9e-4_lrcr1e-3_sub6/777751631f294be45381376aa4be6161cfc72981_ligand_6.pdbqt
 15 16 0 0 0
SMALL
GASTEIGER

@<TRIPOS>ATOM
      1  C          5.4260    2.8700    0.1140 C.3     1  UNL1        0.1270
      2  C          6.2570    3.8500    0.7980 C.2     1  UNL1        0.3030
      3  O          6.9170    4.7350    0.2520 O.2     1  UNL1       -0.2520
      4  O          6.3110    3.7830    2.1990 O.3     1  UNL1       -0.4810
      5  H          5.6350    3.1810    2.6430 H       1  UNL1        0.2960
      6  C          5.3580    1.5610    0.7980 C.3     1  UNL1        0.0470
      7  C          6.1300    0.4560    0.2240 C.2     1  UNL1       -0.0430
      8  C          6.5670   -0.6040    1.0030 C.2     1  UNL1        0.0080
      9  C          6.4780    0.4590   -1.1010 C.2     1  UNL1        0.0540
     10  C          7.3240   -1.6250    0.4730 C.2     1  UNL1        0.0510
     11  C          7.2370   -0.5550   -1.6550 C.2     1  UNL1        0.1660
     12  C          7.6620   -1.6000   -0.8710 C.2     1  UNL1        0.1650
     13  O          7.6980   -0.7580   -2.9430 O.2     1  UNL1       -0.4540
     14  O          8.3950   -2.4520   -1.6980 O.2     1  UNL1       -0.4540
     15  C          8.6920   -1.7930   -2.9070 C.3     1  UNL1        0.4680
@<TRIPOS>BOND
     1    13    15    1
     2    13    11    1
     3    15    14    1
     4    14    12    1
     5    11     9    1
     6    11    12    2
     7     9     7    2
     8    12    10    1
     9     1     2    1
    10     1     6    1
    11     7     6    1
    12     7     8    1
    13     3     2    2
    14    10     8    2
    15     2     4    1
    16     4     5    1
