@<TRIPOS>MOLECULE
/home/cewinharhar/GITHUB/reincatalyze/data/processed/docking_pred/2023-May-17-1006_maxeplen10_maxtrainstep1000_seadep16_gamma099_lrac9e-4_lrcr1e-3_sub6/777751631f294be45381376aa4be6161cfc72981_ligand_6.pdbqt
 15 16 0 0 0
SMALL
GASTEIGER

@<TRIPOS>ATOM
      1  C          8.2970   -0.3150   -2.8700 C.3     1  UNL1        0.1270
      2  C          8.4660   -1.7450   -3.0780 C.2     1  UNL1        0.3030
      3  O          9.5370   -2.3540   -3.0360 O.2     1  UNL1       -0.2520
      4  O          7.3130   -2.4970   -3.3500 O.3     1  UNL1       -0.4810
      5  H          6.4650   -1.9730   -3.5010 H       1  UNL1        0.2960
      6  C          8.7520    0.1560   -1.5440 C.3     1  UNL1        0.0470
      7  C          7.7890    0.1110   -0.4420 C.2     1  UNL1       -0.0430
      8  C          7.7470   -0.9560    0.4410 C.2     1  UNL1        0.0080
      9  C          6.8690    1.1130   -0.2750 C.2     1  UNL1        0.0540
     10  C          6.8180   -1.0170    1.4560 C.2     1  UNL1        0.0510
     11  C          5.9280    1.0740    0.7360 C.2     1  UNL1        0.1660
     12  C          5.8990    0.0100    1.6050 C.2     1  UNL1        0.1650
     13  O          4.9220    1.9560    1.0890 O.2     1  UNL1       -0.4540
     14  O          4.8560    0.2500    2.5010 O.2     1  UNL1       -0.4540
     15  C          4.0430    1.2900    2.0090 C.3     1  UNL1        0.4680
@<TRIPOS>BOND
     1     5     4    1
     2     4     2    1
     3     2     3    2
     4     2     1    1
     5     1     6    1
     6     6     7    1
     7     7     9    2
     8     7     8    1
     9     9    11    1
    10     8    10    2
    11    11    13    1
    12    11    12    2
    13    13    15    1
    14    10    12    1
    15    12    14    1
    16    15    14    1
