MODEL 1
REMARK VINA RESULT:      -7.6      0.000      0.000
REMARK SMILES O=C(O)CCc1ccc2c(c1)OCO2
REMARK SMILES IDX 4 1 2 2 1 3 3 4 5 6 6 7 7 8 11 9 8 10 10 11 9 12 12 13 14 14
REMARK SMILES IDX 13 15
REMARK H PARENT 3 5
REMARK Flexibility Score: inf
ROOT
ATOM      1  C   UNL     1       5.426   2.870   0.114  1.00  0.00     0.127 C 
ENDROOT
BRANCH   1   2
ATOM      2  C   UNL     1       6.257   3.850   0.798  1.00  0.00     0.303 C 
ATOM      3  O   UNL     1       6.917   4.735   0.252  1.00  0.00    -0.252 OA
BRANCH   2   4
ATOM      4  O   UNL     1       6.311   3.783   2.199  1.00  0.00    -0.481 OA
ATOM      5  H   UNL     1       5.635   3.181   2.643  1.00  0.00     0.296 HD
ENDBRANCH   2   4
ENDBRANCH   1   2
BRANCH   1   6
ATOM      6  C   UNL     1       5.358   1.561   0.798  1.00  0.00     0.047 C 
BRANCH   6   7
ATOM      7  C   UNL     1       6.130   0.456   0.224  1.00  0.00    -0.043 A 
ATOM      8  C   UNL     1       6.567  -0.604   1.003  1.00  0.00     0.008 A 
ATOM      9  C   UNL     1       6.478   0.459  -1.101  1.00  0.00     0.054 A 
ATOM     10  C   UNL     1       7.324  -1.625   0.473  1.00  0.00     0.051 A 
ATOM     11  C   UNL     1       7.237  -0.555  -1.655  1.00  0.00     0.166 A 
ATOM     12  C   UNL     1       7.662  -1.600  -0.871  1.00  0.00     0.165 A 
ATOM     13  O   UNL     1       7.698  -0.758  -2.943  1.00  0.00    -0.454 OA
ATOM     14  O   UNL     1       8.395  -2.452  -1.698  1.00  0.00    -0.454 OA
ATOM     15  C   UNL     1       8.692  -1.793  -2.907  1.00  0.00     0.468 C 
ENDBRANCH   6   7
ENDBRANCH   1   6
TORSDOF 4
ENDMDL
MODEL 2
REMARK VINA RESULT:      -7.6      2.128      2.525
REMARK SMILES O=C(O)CCc1ccc2c(c1)OCO2
REMARK SMILES IDX 4 1 2 2 1 3 3 4 5 6 6 7 7 8 11 9 8 10 10 11 9 12 12 13 14 14
REMARK SMILES IDX 13 15
REMARK H PARENT 3 5
REMARK Flexibility Score: inf
ROOT
ATOM      1  C   UNL     1       4.689   1.838   0.686  1.00  0.00     0.127 C 
ENDROOT
BRANCH   1   2
ATOM      2  C   UNL     1       4.401   1.138   1.928  1.00  0.00     0.303 C 
ATOM      3  O   UNL     1       5.140   0.318   2.477  1.00  0.00    -0.252 OA
BRANCH   2   4
ATOM      4  O   UNL     1       3.178   1.418   2.557  1.00  0.00    -0.481 OA
ATOM      5  H   UNL     1       2.492   1.903   2.000  1.00  0.00     0.296 HD
ENDBRANCH   2   4
ENDBRANCH   1   2
BRANCH   1   6
ATOM      6  C   UNL     1       6.109   2.221   0.528  1.00  0.00     0.047 C 
BRANCH   6   7
ATOM      7  C   UNL     1       6.971   1.321  -0.241  1.00  0.00    -0.043 A 
ATOM      8  C   UNL     1       8.330   1.559  -0.375  1.00  0.00     0.008 A 
ATOM      9  C   UNL     1       6.448   0.232  -0.886  1.00  0.00     0.054 A 
ATOM     10  C   UNL     1       9.136   0.734  -1.128  1.00  0.00     0.051 A 
ATOM     11  C   UNL     1       7.238  -0.610  -1.646  1.00  0.00     0.166 A 
ATOM     12  C   UNL     1       8.584  -0.362  -1.770  1.00  0.00     0.165 A 
ATOM     13  O   UNL     1       6.933  -1.748  -2.373  1.00  0.00    -0.454 OA
ATOM     14  O   UNL     1       9.105  -1.368  -2.586  1.00  0.00    -0.454 OA
ATOM     15  C   UNL     1       8.051  -2.052  -3.221  1.00  0.00     0.468 C 
ENDBRANCH   6   7
ENDBRANCH   1   6
TORSDOF 4
ENDMDL
MODEL 3
REMARK VINA RESULT:      -7.4      1.996      2.968
REMARK SMILES O=C(O)CCc1ccc2c(c1)OCO2
REMARK SMILES IDX 4 1 2 2 1 3 3 4 5 6 6 7 7 8 11 9 8 10 10 11 9 12 12 13 14 14
REMARK SMILES IDX 13 15
REMARK H PARENT 3 5
REMARK Flexibility Score: inf
ROOT
ATOM      1  C   UNL     1       6.434   1.295   0.734  1.00  0.00     0.127 C 
ENDROOT
BRANCH   1   2
ATOM      2  C   UNL     1       5.281   1.113   1.602  1.00  0.00     0.303 C 
ATOM      3  O   UNL     1       5.158   0.232   2.455  1.00  0.00    -0.252 OA
BRANCH   2   4
ATOM      4  O   UNL     1       4.216   2.016   1.458  1.00  0.00    -0.481 OA
ATOM      5  H   UNL     1       4.004   2.307   0.516  1.00  0.00     0.296 HD
ENDBRANCH   2   4
ENDBRANCH   1   2
BRANCH   1   6
ATOM      6  C   UNL     1       6.213   0.848  -0.658  1.00  0.00     0.047 C 
BRANCH   6   7
ATOM      7  C   UNL     1       6.970  -0.316  -1.124  1.00  0.00    -0.043 A 
ATOM      8  C   UNL     1       7.253  -0.506  -2.467  1.00  0.00     0.008 A 
ATOM      9  C   UNL     1       7.388  -1.277  -0.242  1.00  0.00     0.054 A 
ATOM     10  C   UNL     1       7.933  -1.619  -2.911  1.00  0.00     0.051 A 
ATOM     11  C   UNL     1       8.072  -2.402  -0.664  1.00  0.00     0.166 A 
ATOM     12  C   UNL     1       8.347  -2.576  -1.999  1.00  0.00     0.165 A 
ATOM     13  O   UNL     1       8.583  -3.482   0.033  1.00  0.00    -0.454 OA
ATOM     14  O   UNL     1       9.037  -3.784  -2.114  1.00  0.00    -0.454 OA
ATOM     15  C   UNL     1       8.918  -4.510  -0.912  1.00  0.00     0.468 C 
ENDBRANCH   6   7
ENDBRANCH   1   6
TORSDOF 4
ENDMDL
MODEL 4
REMARK VINA RESULT:      -7.4      1.794      5.282
REMARK SMILES O=C(O)CCc1ccc2c(c1)OCO2
REMARK SMILES IDX 4 1 2 2 1 3 3 4 5 6 6 7 7 8 11 9 8 10 10 11 9 12 12 13 14 14
REMARK SMILES IDX 13 15
REMARK H PARENT 3 5
REMARK Flexibility Score: inf
ROOT
ATOM      1  C   UNL     1       8.297  -0.315  -2.870  1.00  0.00     0.127 C 
ENDROOT
BRANCH   1   2
ATOM      2  C   UNL     1       8.466  -1.745  -3.078  1.00  0.00     0.303 C 
ATOM      3  O   UNL     1       9.537  -2.354  -3.036  1.00  0.00    -0.252 OA
BRANCH   2   4
ATOM      4  O   UNL     1       7.313  -2.497  -3.350  1.00  0.00    -0.481 OA
ATOM      5  H   UNL     1       6.465  -1.973  -3.501  1.00  0.00     0.296 HD
ENDBRANCH   2   4
ENDBRANCH   1   2
BRANCH   1   6
ATOM      6  C   UNL     1       8.752   0.156  -1.544  1.00  0.00     0.047 C 
BRANCH   6   7
ATOM      7  C   UNL     1       7.789   0.111  -0.442  1.00  0.00    -0.043 A 
ATOM      8  C   UNL     1       7.747  -0.956   0.441  1.00  0.00     0.008 A 
ATOM      9  C   UNL     1       6.869   1.113  -0.275  1.00  0.00     0.054 A 
ATOM     10  C   UNL     1       6.818  -1.017   1.456  1.00  0.00     0.051 A 
ATOM     11  C   UNL     1       5.928   1.074   0.736  1.00  0.00     0.166 A 
ATOM     12  C   UNL     1       5.899   0.010   1.605  1.00  0.00     0.165 A 
ATOM     13  O   UNL     1       4.922   1.956   1.089  1.00  0.00    -0.454 OA
ATOM     14  O   UNL     1       4.856   0.250   2.501  1.00  0.00    -0.454 OA
ATOM     15  C   UNL     1       4.043   1.290   2.009  1.00  0.00     0.468 C 
ENDBRANCH   6   7
ENDBRANCH   1   6
TORSDOF 4
ENDMDL
MODEL 5
REMARK VINA RESULT:      -7.4      0.934      2.105
REMARK SMILES O=C(O)CCc1ccc2c(c1)OCO2
REMARK SMILES IDX 4 1 2 2 1 3 3 4 5 6 6 7 7 8 11 9 8 10 10 11 9 12 12 13 14 14
REMARK SMILES IDX 13 15
REMARK H PARENT 3 5
REMARK Flexibility Score: inf
ROOT
ATOM      1  C   UNL     1       5.395   2.827   0.252  1.00  0.00     0.127 C 
ENDROOT
BRANCH   1   2
ATOM      2  C   UNL     1       6.242   3.759   0.980  1.00  0.00     0.303 C 
ATOM      3  O   UNL     1       6.458   3.734   2.193  1.00  0.00    -0.252 OA
BRANCH   2   4
ATOM      4  O   UNL     1       6.867   4.775   0.240  1.00  0.00    -0.481 OA
ATOM      5  H   UNL     1       6.341   5.151  -0.534  1.00  0.00     0.296 HD
ENDBRANCH   2   4
ENDBRANCH   1   2
BRANCH   1   6
ATOM      6  C   UNL     1       5.360   1.468   0.833  1.00  0.00     0.047 C 
BRANCH   6   7
ATOM      7  C   UNL     1       6.180   0.437   0.196  1.00  0.00    -0.043 A 
ATOM      8  C   UNL     1       6.421   0.443  -1.169  1.00  0.00     0.008 A 
ATOM      9  C   UNL     1       6.705  -0.593   0.930  1.00  0.00     0.054 A 
ATOM     10  C   UNL     1       7.163  -0.546  -1.776  1.00  0.00     0.051 A 
ATOM     11  C   UNL     1       7.453  -1.597   0.344  1.00  0.00     0.166 A 
ATOM     12  C   UNL     1       7.685  -1.577  -1.011  1.00  0.00     0.165 A 
ATOM     13  O   UNL     1       8.071  -2.714   0.877  1.00  0.00    -0.454 OA
ATOM     14  O   UNL     1       8.456  -2.702  -1.304  1.00  0.00    -0.454 OA
ATOM     15  C   UNL     1       8.443  -3.582  -0.204  1.00  0.00     0.468 C 
ENDBRANCH   6   7
ENDBRANCH   1   6
TORSDOF 4
ENDMDL
