@<TRIPOS>MOLECULE
/home/cewinharhar/GITHUB/reincatalyze/data/processed/docking_pred/2023-May-17-1006_maxeplen10_maxtrainstep1000_seadep16_gamma099_lrac9e-4_lrcr1e-3_sub6/777751631f294be45381376aa4be6161cfc72981_ligand_6.pdbqt
 15 16 0 0 0
SMALL
GASTEIGER

@<TRIPOS>ATOM
      1  C          4.6890    1.8380    0.6860 C.3     1  UNL1        0.1270
      2  C          4.4010    1.1380    1.9280 C.2     1  UNL1        0.3030
      3  O          5.1400    0.3180    2.4770 O.2     1  UNL1       -0.2520
      4  O          3.1780    1.4180    2.5570 O.3     1  UNL1       -0.4810
      5  H          2.4920    1.9030    2.0000 H       1  UNL1        0.2960
      6  C          6.1090    2.2210    0.5280 C.3     1  UNL1        0.0470
      7  C          6.9710    1.3210   -0.2410 C.2     1  UNL1       -0.0430
      8  C          8.3300    1.5590   -0.3750 C.2     1  UNL1        0.0080
      9  C          6.4480    0.2320   -0.8860 C.2     1  UNL1        0.0540
     10  C          9.1360    0.7340   -1.1280 C.2     1  UNL1        0.0510
     11  C          7.2380   -0.6100   -1.6460 C.2     1  UNL1        0.1660
     12  C          8.5840   -0.3620   -1.7700 C.2     1  UNL1        0.1650
     13  O          6.9330   -1.7480   -2.3730 O.2     1  UNL1       -0.4540
     14  O          9.1050   -1.3680   -2.5860 O.2     1  UNL1       -0.4540
     15  C          8.0510   -2.0520   -3.2210 C.3     1  UNL1        0.4680
@<TRIPOS>BOND
     1    15    14    1
     2    15    13    1
     3    14    12    1
     4    13    11    1
     5    12    11    2
     6    12    10    1
     7    11     9    1
     8    10     8    2
     9     9     7    2
    10     8     7    1
    11     7     6    1
    12     6     1    1
    13     1     2    1
    14     2     3    2
    15     2     4    1
    16     5     4    1
