@<TRIPOS>MOLECULE
/home/cewinharhar/GITHUB/reincatalyze/data/processed/docking_pred/2023-May-17-1006_maxeplen10_maxtrainstep1000_seadep16_gamma099_lrac9e-4_lrcr1e-3_sub6/777751631f294be45381376aa4be6161cfc72981_ligand_6.pdbqt
 15 16 0 0 0
SMALL
GASTEIGER

@<TRIPOS>ATOM
      1  C          5.3950    2.8270    0.2520 C.3     1  UNL1        0.1270
      2  C          6.2420    3.7590    0.9800 C.2     1  UNL1        0.3030
      3  O          6.4580    3.7340    2.1930 O.2     1  UNL1       -0.2520
      4  O          6.8670    4.7750    0.2400 O.3     1  UNL1       -0.4810
      5  H          6.3410    5.1510   -0.5340 H       1  UNL1        0.2960
      6  C          5.3600    1.4680    0.8330 C.3     1  UNL1        0.0470
      7  C          6.1800    0.4370    0.1960 C.2     1  UNL1       -0.0430
      8  C          6.4210    0.4430   -1.1690 C.2     1  UNL1        0.0080
      9  C          6.7050   -0.5930    0.9300 C.2     1  UNL1        0.0540
     10  C          7.1630   -0.5460   -1.7760 C.2     1  UNL1        0.0510
     11  C          7.4530   -1.5970    0.3440 C.2     1  UNL1        0.1660
     12  C          7.6850   -1.5770   -1.0110 C.2     1  UNL1        0.1650
     13  O          8.0710   -2.7140    0.8770 O.2     1  UNL1       -0.4540
     14  O          8.4560   -2.7020   -1.3040 O.2     1  UNL1       -0.4540
     15  C          8.4430   -3.5820   -0.2040 C.3     1  UNL1        0.4680
@<TRIPOS>BOND
     1    10     8    1
     2    10    12    2
     3    14    12    1
     4    14    15    1
     5     8     7    2
     6    12    11    1
     7     5     4    1
     8    15    13    1
     9     7     6    1
    10     7     9    1
    11     4     2    1
    12     1     6    1
    13     1     2    1
    14    11    13    1
    15    11     9    2
    16     2     3    2
