@<TRIPOS>MOLECULE
/home/cewinharhar/GITHUB/reincatalyze/data/processed/docking_pred/2023-May-17-1006_maxeplen10_maxtrainstep1000_seadep16_gamma099_lrac9e-4_lrcr1e-3_sub6/777751631f294be45381376aa4be6161cfc72981_ligand_6.pdbqt
 15 16 0 0 0
SMALL
GASTEIGER

@<TRIPOS>ATOM
      1  C          6.4340    1.2950    0.7340 C.3     1  UNL1        0.1270
      2  C          5.2810    1.1130    1.6020 C.2     1  UNL1        0.3030
      3  O          5.1580    0.2320    2.4550 O.2     1  UNL1       -0.2520
      4  O          4.2160    2.0160    1.4580 O.3     1  UNL1       -0.4810
      5  H          4.0040    2.3070    0.5160 H       1  UNL1        0.2960
      6  C          6.2130    0.8480   -0.6580 C.3     1  UNL1        0.0470
      7  C          6.9700   -0.3160   -1.1240 C.2     1  UNL1       -0.0430
      8  C          7.2530   -0.5060   -2.4670 C.2     1  UNL1        0.0080
      9  C          7.3880   -1.2770   -0.2420 C.2     1  UNL1        0.0540
     10  C          7.9330   -1.6190   -2.9110 C.2     1  UNL1        0.0510
     11  C          8.0720   -2.4020   -0.6640 C.2     1  UNL1        0.1660
     12  C          8.3470   -2.5760   -1.9990 C.2     1  UNL1        0.1650
     13  O          8.5830   -3.4820    0.0330 O.2     1  UNL1       -0.4540
     14  O          9.0370   -3.7840   -2.1140 O.2     1  UNL1       -0.4540
     15  C          8.9180   -4.5100   -0.9120 C.3     1  UNL1        0.4680
@<TRIPOS>BOND
     1    10     8    1
     2    10    12    2
     3     8     7    2
     4    14    12    1
     5    14    15    1
     6    12    11    1
     7     7     6    1
     8     7     9    1
     9    15    13    1
    10    11     9    2
    11    11    13    1
    12     6     1    1
    13     5     4    1
    14     1     2    1
    15     4     2    1
    16     2     3    2
