@<TRIPOS>MOLECULE
/home/cewinharhar/GITHUB/reincatalyze/data/processed/docking_pred/2023-May-17-1006_maxeplen10_maxtrainstep1000_seadep16_gamma099_lrac9e-4_lrcr1e-3_sub6/79094ef31ed65e340e791eab6f4e997ef8bc8970_ligand_6.pdbqt
 15 16 0 0 0
SMALL
GASTEIGER

@<TRIPOS>ATOM
      1  C          5.4060    2.7980    0.1300 C.3     1  UNL1        0.1270
      2  C          6.1880    3.7230    0.9360 C.2     1  UNL1        0.3030
      3  O          6.3080    3.6810    2.1620 O.2     1  UNL1       -0.2520
      4  O          6.8650    4.7510    0.2620 O.3     1  UNL1       -0.4810
      5  H          6.9880    4.6270   -0.7320 H       1  UNL1        0.2960
      6  C          5.3140    1.4360    0.6980 C.3     1  UNL1        0.0470
      7  C          6.1740    0.4020    0.1200 C.2     1  UNL1       -0.0430
      8  C          6.4690    0.3780   -1.2340 C.2     1  UNL1        0.0080
      9  C          6.6850   -0.6010    0.9010 C.2     1  UNL1        0.0540
     10  C          7.2480   -0.6150   -1.7850 C.2     1  UNL1        0.0510
     11  C          7.4690   -1.6070    0.3700 C.2     1  UNL1        0.1660
     12  C          7.7540   -1.6180   -0.9740 C.2     1  UNL1        0.1650
     13  O          8.0820   -2.7010    0.9560 O.2     1  UNL1       -0.4540
     14  O          8.5530   -2.7380   -1.2080 O.2     1  UNL1       -0.4540
     15  C          8.5080   -3.5900   -0.0870 C.3     1  UNL1        0.4680
@<TRIPOS>BOND
     1    10     8    1
     2    10    12    2
     3     8     7    2
     4    14    12    1
     5    14    15    1
     6    12    11    1
     7     5     4    1
     8    15    13    1
     9     7     6    1
    10     7     9    1
    11     1     6    1
    12     1     2    1
    13     4     2    1
    14    11     9    2
    15    11    13    1
    16     2     3    2
