@<TRIPOS>MOLECULE
/home/cewinharhar/GITHUB/reincatalyze/data/processed/docking_pred/2023-May-17-1006_maxeplen10_maxtrainstep1000_seadep16_gamma099_lrac9e-4_lrcr1e-3_sub6/79094ef31ed65e340e791eab6f4e997ef8bc8970_ligand_6.pdbqt
 15 16 0 0 0
SMALL
GASTEIGER

@<TRIPOS>ATOM
      1  C          5.4120    2.8650    0.1300 C.3     1  UNL1        0.1270
      2  C          6.2460    3.8500    0.8000 C.2     1  UNL1        0.3030
      3  O          6.8970    4.7360    0.2440 O.2     1  UNL1       -0.2520
      4  O          6.3170    3.7880    2.2010 O.3     1  UNL1       -0.4810
      5  H          5.9960    4.6040    2.6990 H       1  UNL1        0.2960
      6  C          5.3590    1.5560    0.8160 C.3     1  UNL1        0.0470
      7  C          6.1350    0.4570    0.2390 C.2     1  UNL1       -0.0430
      8  C          6.5840   -0.6000    1.0160 C.2     1  UNL1        0.0080
      9  C          6.4740    0.4610   -1.0880 C.2     1  UNL1        0.0540
     10  C          7.3440   -1.6160    0.4810 C.2     1  UNL1        0.0510
     11  C          7.2360   -0.5480   -1.6460 C.2     1  UNL1        0.1660
     12  C          7.6730   -1.5900   -0.8640 C.2     1  UNL1        0.1650
     13  O          7.6910   -0.7490   -2.9380 O.2     1  UNL1       -0.4540
     14  O          8.4070   -2.4380   -1.6960 O.2     1  UNL1       -0.4540
     15  C          8.6920   -1.7770   -2.9070 C.3     1  UNL1        0.4680
@<TRIPOS>BOND
     1    13    15    1
     2    13    11    1
     3    15    14    1
     4    14    12    1
     5    11     9    1
     6    11    12    2
     7     9     7    2
     8    12    10    1
     9     1     2    1
    10     1     6    1
    11     7     6    1
    12     7     8    1
    13     3     2    2
    14    10     8    2
    15     2     4    1
    16     4     5    1
