@<TRIPOS>MOLECULE
/home/cewinharhar/GITHUB/reincatalyze/data/processed/docking_pred/2023-May-17-1006_maxeplen10_maxtrainstep1000_seadep16_gamma099_lrac9e-4_lrcr1e-3_sub6/79094ef31ed65e340e791eab6f4e997ef8bc8970_ligand_6.pdbqt
 15 16 0 0 0
SMALL
GASTEIGER

@<TRIPOS>ATOM
      1  C          8.2270   -0.2210   -2.8230 C.3     1  UNL1        0.1270
      2  C          8.4610   -1.6420   -3.0310 C.2     1  UNL1        0.3030
      3  O          9.5450   -2.2150   -2.9070 O.2     1  UNL1       -0.2520
      4  O          7.3600   -2.4290   -3.4040 O.3     1  UNL1       -0.4810
      5  H          7.4460   -3.4200   -3.2410 H       1  UNL1        0.2960
      6  C          8.6830    0.2760   -1.5080 C.3     1  UNL1        0.0470
      7  C          7.7310    0.2220   -0.3960 C.2     1  UNL1       -0.0430
      8  C          7.7610   -0.8060    0.5340 C.2     1  UNL1        0.0080
      9  C          6.7530    1.1710   -0.2650 C.2     1  UNL1        0.0540
     10  C          6.8440   -0.8780    1.5590 C.2     1  UNL1        0.0510
     11  C          5.8220    1.1200    0.7560 C.2     1  UNL1        0.1660
     12  C          5.8650    0.0960    1.6710 C.2     1  UNL1        0.1650
     13  O          4.7660    1.9530    1.0790 O.2     1  UNL1       -0.4540
     14  O          4.8150    0.3110    2.5650 O.2     1  UNL1       -0.4540
     15  C          3.9360    1.2770    2.0360 C.3     1  UNL1        0.4680
@<TRIPOS>BOND
     1     4     5    1
     2     4     2    1
     3     2     3    2
     4     2     1    1
     5     1     6    1
     6     6     7    1
     7     7     9    2
     8     7     8    1
     9     9    11    1
    10     8    10    2
    11    11    13    1
    12    11    12    2
    13    13    15    1
    14    10    12    1
    15    12    14    1
    16    15    14    1
