@<TRIPOS>MOLECULE
/home/cewinharhar/GITHUB/reincatalyze/data/processed/docking_pred/2023-May-17-1006_maxeplen10_maxtrainstep1000_seadep16_gamma099_lrac9e-4_lrcr1e-3_sub6/79094ef31ed65e340e791eab6f4e997ef8bc8970_ligand_6.pdbqt
 15 16 0 0 0
SMALL
GASTEIGER

@<TRIPOS>ATOM
      1  C          6.4350    1.3330    0.6980 C.3     1  UNL1        0.1270
      2  C          5.2020    1.3580    1.4690 C.2     1  UNL1        0.3030
      3  O          4.2740    2.1530    1.3120 O.2     1  UNL1       -0.2520
      4  O          5.0540    0.3940    2.4800 O.3     1  UNL1       -0.4810
      5  H          4.5960    0.7010    3.3240 H       1  UNL1        0.2960
      6  C          6.2600    0.8810   -0.6990 C.3     1  UNL1        0.0470
      7  C          7.0020   -0.3090   -1.1230 C.2     1  UNL1       -0.0430
      8  C          7.2810   -0.5500   -2.4590 C.2     1  UNL1        0.0080
      9  C          7.4080   -1.2440   -0.2080 C.2     1  UNL1        0.0540
     10  C          7.9470   -1.6860   -2.8630 C.2     1  UNL1        0.0510
     11  C          8.0780   -2.3910   -0.5900 C.2     1  UNL1        0.1660
     12  C          8.3490   -2.6160   -1.9180 C.2     1  UNL1        0.1650
     13  O          8.5750   -3.4530    0.1450 O.2     1  UNL1       -0.4540
     14  O          9.0230   -3.8370   -1.9900 O.2     1  UNL1       -0.4540
     15  C          8.8960   -4.5170   -0.7630 C.3     1  UNL1        0.4680
@<TRIPOS>BOND
     1    10     8    1
     2    10    12    2
     3     8     7    2
     4    14    12    1
     5    14    15    1
     6    12    11    1
     7     7     6    1
     8     7     9    1
     9    15    13    1
    10     6     1    1
    11    11     9    2
    12    11    13    1
    13     1     2    1
    14     3     2    2
    15     2     4    1
    16     4     5    1
