MODEL 1
REMARK VINA RESULT:      -7.7      0.000      0.000
REMARK SMILES O=C(O)CCc1ccc2c(c1)OCO2
REMARK SMILES IDX 4 1 2 2 1 3 3 4 5 6 6 7 7 8 11 9 8 10 10 11 9 12 12 13 14 14
REMARK SMILES IDX 13 15
REMARK H PARENT 3 5
REMARK Flexibility Score: inf
ROOT
ATOM      1  C   UNL     1       5.412   2.865   0.130  1.00  0.00     0.127 C 
ENDROOT
BRANCH   1   2
ATOM      2  C   UNL     1       6.246   3.850   0.800  1.00  0.00     0.303 C 
ATOM      3  O   UNL     1       6.897   4.736   0.244  1.00  0.00    -0.252 OA
BRANCH   2   4
ATOM      4  O   UNL     1       6.317   3.788   2.201  1.00  0.00    -0.481 OA
ATOM      5  H   UNL     1       5.996   4.604   2.699  1.00  0.00     0.296 HD
ENDBRANCH   2   4
ENDBRANCH   1   2
BRANCH   1   6
ATOM      6  C   UNL     1       5.359   1.556   0.816  1.00  0.00     0.047 C 
BRANCH   6   7
ATOM      7  C   UNL     1       6.135   0.457   0.239  1.00  0.00    -0.043 A 
ATOM      8  C   UNL     1       6.584  -0.600   1.016  1.00  0.00     0.008 A 
ATOM      9  C   UNL     1       6.474   0.461  -1.088  1.00  0.00     0.054 A 
ATOM     10  C   UNL     1       7.344  -1.616   0.481  1.00  0.00     0.051 A 
ATOM     11  C   UNL     1       7.236  -0.548  -1.646  1.00  0.00     0.166 A 
ATOM     12  C   UNL     1       7.673  -1.590  -0.864  1.00  0.00     0.165 A 
ATOM     13  O   UNL     1       7.691  -0.749  -2.938  1.00  0.00    -0.454 OA
ATOM     14  O   UNL     1       8.407  -2.438  -1.696  1.00  0.00    -0.454 OA
ATOM     15  C   UNL     1       8.692  -1.777  -2.907  1.00  0.00     0.468 C 
ENDBRANCH   6   7
ENDBRANCH   1   6
TORSDOF 4
ENDMDL
MODEL 2
REMARK VINA RESULT:      -7.6      2.133      2.515
REMARK SMILES O=C(O)CCc1ccc2c(c1)OCO2
REMARK SMILES IDX 4 1 2 2 1 3 3 4 5 6 6 7 7 8 11 9 8 10 10 11 9 12 12 13 14 14
REMARK SMILES IDX 13 15
REMARK H PARENT 3 5
REMARK Flexibility Score: inf
ROOT
ATOM      1  C   UNL     1       4.708   1.854   0.691  1.00  0.00     0.127 C 
ENDROOT
BRANCH   1   2
ATOM      2  C   UNL     1       4.416   1.136   1.922  1.00  0.00     0.303 C 
ATOM      3  O   UNL     1       5.152   0.308   2.462  1.00  0.00    -0.252 OA
BRANCH   2   4
ATOM      4  O   UNL     1       3.191   1.407   2.551  1.00  0.00    -0.481 OA
ATOM      5  H   UNL     1       2.514   0.660   2.548  1.00  0.00     0.296 HD
ENDBRANCH   2   4
ENDBRANCH   1   2
BRANCH   1   6
ATOM      6  C   UNL     1       6.132   2.221   0.534  1.00  0.00     0.047 C 
BRANCH   6   7
ATOM      7  C   UNL     1       6.984   1.315  -0.238  1.00  0.00    -0.043 A 
ATOM      8  C   UNL     1       8.348   1.530  -0.361  1.00  0.00     0.008 A 
ATOM      9  C   UNL     1       6.447   0.241  -0.899  1.00  0.00     0.054 A 
ATOM     10  C   UNL     1       9.144   0.699  -1.117  1.00  0.00     0.051 A 
ATOM     11  C   UNL     1       7.227  -0.606  -1.662  1.00  0.00     0.166 A 
ATOM     12  C   UNL     1       8.577  -0.381  -1.774  1.00  0.00     0.165 A 
ATOM     13  O   UNL     1       6.907  -1.731  -2.403  1.00  0.00    -0.454 OA
ATOM     14  O   UNL     1       9.087  -1.386  -2.597  1.00  0.00    -0.454 OA
ATOM     15  C   UNL     1       8.025  -2.046  -3.247  1.00  0.00     0.468 C 
ENDBRANCH   6   7
ENDBRANCH   1   6
TORSDOF 4
ENDMDL
MODEL 3
REMARK VINA RESULT:      -7.5      0.967      2.130
REMARK SMILES O=C(O)CCc1ccc2c(c1)OCO2
REMARK SMILES IDX 4 1 2 2 1 3 3 4 5 6 6 7 7 8 11 9 8 10 10 11 9 12 12 13 14 14
REMARK SMILES IDX 13 15
REMARK H PARENT 3 5
REMARK Flexibility Score: inf
ROOT
ATOM      1  C   UNL     1       5.406   2.798   0.130  1.00  0.00     0.127 C 
ENDROOT
BRANCH   1   2
ATOM      2  C   UNL     1       6.188   3.723   0.936  1.00  0.00     0.303 C 
ATOM      3  O   UNL     1       6.308   3.681   2.162  1.00  0.00    -0.252 OA
BRANCH   2   4
ATOM      4  O   UNL     1       6.865   4.751   0.262  1.00  0.00    -0.481 OA
ATOM      5  H   UNL     1       6.988   4.627  -0.732  1.00  0.00     0.296 HD
ENDBRANCH   2   4
ENDBRANCH   1   2
BRANCH   1   6
ATOM      6  C   UNL     1       5.314   1.436   0.698  1.00  0.00     0.047 C 
BRANCH   6   7
ATOM      7  C   UNL     1       6.174   0.402   0.120  1.00  0.00    -0.043 A 
ATOM      8  C   UNL     1       6.469   0.378  -1.234  1.00  0.00     0.008 A 
ATOM      9  C   UNL     1       6.685  -0.601   0.901  1.00  0.00     0.054 A 
ATOM     10  C   UNL     1       7.248  -0.615  -1.785  1.00  0.00     0.051 A 
ATOM     11  C   UNL     1       7.469  -1.607   0.370  1.00  0.00     0.166 A 
ATOM     12  C   UNL     1       7.754  -1.618  -0.974  1.00  0.00     0.165 A 
ATOM     13  O   UNL     1       8.082  -2.701   0.956  1.00  0.00    -0.454 OA
ATOM     14  O   UNL     1       8.553  -2.738  -1.208  1.00  0.00    -0.454 OA
ATOM     15  C   UNL     1       8.508  -3.590  -0.087  1.00  0.00     0.468 C 
ENDBRANCH   6   7
ENDBRANCH   1   6
TORSDOF 4
ENDMDL
MODEL 4
REMARK VINA RESULT:      -7.5      1.813      5.267
REMARK SMILES O=C(O)CCc1ccc2c(c1)OCO2
REMARK SMILES IDX 4 1 2 2 1 3 3 4 5 6 6 7 7 8 11 9 8 10 10 11 9 12 12 13 14 14
REMARK SMILES IDX 13 15
REMARK H PARENT 3 5
REMARK Flexibility Score: inf
ROOT
ATOM      1  C   UNL     1       8.227  -0.221  -2.823  1.00  0.00     0.127 C 
ENDROOT
BRANCH   1   2
ATOM      2  C   UNL     1       8.461  -1.642  -3.031  1.00  0.00     0.303 C 
ATOM      3  O   UNL     1       9.545  -2.215  -2.907  1.00  0.00    -0.252 OA
BRANCH   2   4
ATOM      4  O   UNL     1       7.360  -2.429  -3.404  1.00  0.00    -0.481 OA
ATOM      5  H   UNL     1       7.446  -3.420  -3.241  1.00  0.00     0.296 HD
ENDBRANCH   2   4
ENDBRANCH   1   2
BRANCH   1   6
ATOM      6  C   UNL     1       8.683   0.276  -1.508  1.00  0.00     0.047 C 
BRANCH   6   7
ATOM      7  C   UNL     1       7.731   0.222  -0.396  1.00  0.00    -0.043 A 
ATOM      8  C   UNL     1       7.761  -0.806   0.534  1.00  0.00     0.008 A 
ATOM      9  C   UNL     1       6.753   1.171  -0.265  1.00  0.00     0.054 A 
ATOM     10  C   UNL     1       6.844  -0.878   1.559  1.00  0.00     0.051 A 
ATOM     11  C   UNL     1       5.822   1.120   0.756  1.00  0.00     0.166 A 
ATOM     12  C   UNL     1       5.865   0.096   1.671  1.00  0.00     0.165 A 
ATOM     13  O   UNL     1       4.766   1.953   1.079  1.00  0.00    -0.454 OA
ATOM     14  O   UNL     1       4.815   0.311   2.565  1.00  0.00    -0.454 OA
ATOM     15  C   UNL     1       3.936   1.277   2.036  1.00  0.00     0.468 C 
ENDBRANCH   6   7
ENDBRANCH   1   6
TORSDOF 4
ENDMDL
MODEL 5
REMARK VINA RESULT:      -7.5      1.960      2.863
REMARK SMILES O=C(O)CCc1ccc2c(c1)OCO2
REMARK SMILES IDX 4 1 2 2 1 3 3 4 5 6 6 7 7 8 11 9 8 10 10 11 9 12 12 13 14 14
REMARK SMILES IDX 13 15
REMARK H PARENT 3 5
REMARK Flexibility Score: inf
ROOT
ATOM      1  C   UNL     1       6.435   1.333   0.698  1.00  0.00     0.127 C 
ENDROOT
BRANCH   1   2
ATOM      2  C   UNL     1       5.202   1.358   1.469  1.00  0.00     0.303 C 
ATOM      3  O   UNL     1       4.274   2.153   1.312  1.00  0.00    -0.252 OA
BRANCH   2   4
ATOM      4  O   UNL     1       5.054   0.394   2.480  1.00  0.00    -0.481 OA
ATOM      5  H   UNL     1       4.596   0.701   3.324  1.00  0.00     0.296 HD
ENDBRANCH   2   4
ENDBRANCH   1   2
BRANCH   1   6
ATOM      6  C   UNL     1       6.260   0.881  -0.699  1.00  0.00     0.047 C 
BRANCH   6   7
ATOM      7  C   UNL     1       7.002  -0.309  -1.123  1.00  0.00    -0.043 A 
ATOM      8  C   UNL     1       7.281  -0.550  -2.459  1.00  0.00     0.008 A 
ATOM      9  C   UNL     1       7.408  -1.244  -0.208  1.00  0.00     0.054 A 
ATOM     10  C   UNL     1       7.947  -1.686  -2.863  1.00  0.00     0.051 A 
ATOM     11  C   UNL     1       8.078  -2.391  -0.590  1.00  0.00     0.166 A 
ATOM     12  C   UNL     1       8.349  -2.616  -1.918  1.00  0.00     0.165 A 
ATOM     13  O   UNL     1       8.575  -3.453   0.145  1.00  0.00    -0.454 OA
ATOM     14  O   UNL     1       9.023  -3.837  -1.990  1.00  0.00    -0.454 OA
ATOM     15  C   UNL     1       8.896  -4.517  -0.763  1.00  0.00     0.468 C 
ENDBRANCH   6   7
ENDBRANCH   1   6
TORSDOF 4
ENDMDL
