@<TRIPOS>MOLECULE
/home/cewinharhar/GITHUB/reincatalyze/data/processed/docking_pred/2023-May-17-1006_maxeplen10_maxtrainstep1000_seadep16_gamma099_lrac9e-4_lrcr1e-3_sub6/79094ef31ed65e340e791eab6f4e997ef8bc8970_ligand_6.pdbqt
 15 16 0 0 0
SMALL
GASTEIGER

@<TRIPOS>ATOM
      1  C          4.7080    1.8540    0.6910 C.3     1  UNL1        0.1270
      2  C          4.4160    1.1360    1.9220 C.2     1  UNL1        0.3030
      3  O          5.1520    0.3080    2.4620 O.2     1  UNL1       -0.2520
      4  O          3.1910    1.4070    2.5510 O.3     1  UNL1       -0.4810
      5  H          2.5140    0.6600    2.5480 H       1  UNL1        0.2960
      6  C          6.1320    2.2210    0.5340 C.3     1  UNL1        0.0470
      7  C          6.9840    1.3150   -0.2380 C.2     1  UNL1       -0.0430
      8  C          8.3480    1.5300   -0.3610 C.2     1  UNL1        0.0080
      9  C          6.4470    0.2410   -0.8990 C.2     1  UNL1        0.0540
     10  C          9.1440    0.6990   -1.1170 C.2     1  UNL1        0.0510
     11  C          7.2270   -0.6060   -1.6620 C.2     1  UNL1        0.1660
     12  C          8.5770   -0.3810   -1.7740 C.2     1  UNL1        0.1650
     13  O          6.9070   -1.7310   -2.4030 O.2     1  UNL1       -0.4540
     14  O          9.0870   -1.3860   -2.5970 O.2     1  UNL1       -0.4540
     15  C          8.0250   -2.0460   -3.2470 C.3     1  UNL1        0.4680
@<TRIPOS>BOND
     1    15    14    1
     2    15    13    1
     3    14    12    1
     4    13    11    1
     5    12    11    2
     6    12    10    1
     7    11     9    1
     8    10     8    2
     9     9     7    2
    10     8     7    1
    11     7     6    1
    12     6     1    1
    13     1     2    1
    14     2     3    2
    15     2     4    1
    16     5     4    1
