@<TRIPOS>MOLECULE
/home/cewinharhar/GITHUB/reincatalyze/data/processed/docking_pred/2023-May-17-1006_maxeplen10_maxtrainstep1000_seadep16_gamma099_lrac9e-4_lrcr1e-3_sub6/79495f175fd15f32955b26bb978cae7af324a937_ligand_6.pdbqt
 15 16 0 0 0
SMALL
GASTEIGER

@<TRIPOS>ATOM
      1  C          6.4060    1.3350    0.6060 C.3     1  UNL1        0.1270
      2  C          5.2000    1.3230    1.4200 C.2     1  UNL1        0.3030
      3  O          4.2560    2.1080    1.3140 O.2     1  UNL1       -0.2520
      4  O          5.1010    0.3350    2.4120 O.3     1  UNL1       -0.4810
      5  H          5.0350   -0.6170    2.0860 H       1  UNL1        0.2960
      6  C          6.2090    0.8200   -0.7660 C.3     1  UNL1        0.0470
      7  C          6.9730   -0.3660   -1.1600 C.2     1  UNL1       -0.0430
      8  C          7.2930   -0.6140   -2.4860 C.2     1  UNL1        0.0080
      9  C          7.3620   -1.2900   -0.2270 C.2     1  UNL1        0.0540
     10  C          7.9800   -1.7460   -2.8620 C.2     1  UNL1        0.0510
     11  C          8.0520   -2.4340   -0.5820 C.2     1  UNL1        0.1660
     12  C          8.3640   -2.6660   -1.9000 C.2     1  UNL1        0.1650
     13  O          8.5380   -3.4860    0.1750 O.2     1  UNL1       -0.4540
     14  O          9.0510   -3.8800   -1.9440 O.2     1  UNL1       -0.4540
     15  C          8.8950   -4.5530   -0.7160 C.3     1  UNL1        0.4680
@<TRIPOS>BOND
     1    10     8    1
     2    10    12    2
     3     8     7    2
     4    14    12    1
     5    14    15    1
     6    12    11    1
     7     7     6    1
     8     7     9    1
     9     6     1    1
    10    15    13    1
    11    11     9    2
    12    11    13    1
    13     1     2    1
    14     3     2    2
    15     2     4    1
    16     5     4    1
