@<TRIPOS>MOLECULE
/home/cewinharhar/GITHUB/reincatalyze/data/processed/docking_pred/2023-May-17-1006_maxeplen10_maxtrainstep1000_seadep16_gamma099_lrac9e-4_lrcr1e-3_sub6/79495f175fd15f32955b26bb978cae7af324a937_ligand_6.pdbqt
 15 16 0 0 0
SMALL
GASTEIGER

@<TRIPOS>ATOM
      1  C          5.6810    2.5340    0.0770 C.3     1  UNL1        0.1270
      2  C          6.1960    3.6450    0.8620 C.2     1  UNL1        0.3030
      3  O          6.1650    3.7300    2.0910 O.2     1  UNL1       -0.2520
      4  O          6.7800    4.7120    0.1620 O.3     1  UNL1       -0.4810
      5  H          7.7860    4.7730    0.2010 H       1  UNL1        0.2960
      6  C          5.7610    1.2260    0.7630 C.3     1  UNL1        0.0470
      7  C          6.5040    0.1550    0.0950 C.2     1  UNL1       -0.0430
      8  C          6.5910    0.0870   -1.2870 C.2     1  UNL1        0.0080
      9  C          7.1050   -0.8380    0.8200 C.2     1  UNL1        0.0540
     10  C          7.2580   -0.9390   -1.9180 C.2     1  UNL1        0.0510
     11  C          7.7800   -1.8780    0.2090 C.2     1  UNL1        0.1660
     12  C          7.8600   -1.9320   -1.1620 C.2     1  UNL1        0.1650
     13  O          8.4520   -2.9700    0.7300 O.2     1  UNL1       -0.4540
     14  O          8.5920   -3.0770   -1.4780 O.2     1  UNL1       -0.4540
     15  C          8.6980   -3.8970   -0.3380 C.3     1  UNL1        0.4680
@<TRIPOS>BOND
     1    10     8    1
     2    10    12    2
     3    14    12    1
     4    14    15    1
     5     8     7    2
     6    12    11    1
     7    15    13    1
     8     1     6    1
     9     1     2    1
    10     7     6    1
    11     7     9    1
    12     4     5    1
    13     4     2    1
    14    11    13    1
    15    11     9    2
    16     2     3    2
