MODEL 1
REMARK VINA RESULT:      -7.7      0.000      0.000
REMARK SMILES O=C(O)CCc1ccc2c(c1)OCO2
REMARK SMILES IDX 4 1 2 2 1 3 3 4 5 6 6 7 7 8 11 9 8 10 10 11 9 12 12 13 14 14
REMARK SMILES IDX 13 15
REMARK H PARENT 3 5
REMARK Flexibility Score: inf
ROOT
ATOM      1  C   UNL     1       5.430   2.879   0.106  1.00  0.00     0.127 C 
ENDROOT
BRANCH   1   2
ATOM      2  C   UNL     1       6.250   3.857   0.804  1.00  0.00     0.303 C 
ATOM      3  O   UNL     1       6.882   4.772   0.274  1.00  0.00    -0.252 OA
BRANCH   2   4
ATOM      4  O   UNL     1       6.330   3.751   2.202  1.00  0.00    -0.481 OA
ATOM      5  H   UNL     1       7.098   4.234   2.642  1.00  0.00     0.296 HD
ENDBRANCH   2   4
ENDBRANCH   1   2
BRANCH   1   6
ATOM      6  C   UNL     1       5.351   1.568   0.786  1.00  0.00     0.047 C 
BRANCH   6   7
ATOM      7  C   UNL     1       6.127   0.463   0.218  1.00  0.00    -0.043 A 
ATOM      8  C   UNL     1       6.589  -0.578   1.007  1.00  0.00     0.008 A 
ATOM      9  C   UNL     1       6.452   0.447  -1.112  1.00  0.00     0.054 A 
ATOM     10  C   UNL     1       7.349  -1.599   0.482  1.00  0.00     0.051 A 
ATOM     11  C   UNL     1       7.214  -0.567  -1.662  1.00  0.00     0.166 A 
ATOM     12  C   UNL     1       7.664  -1.593  -0.867  1.00  0.00     0.165 A 
ATOM     13  O   UNL     1       7.656  -0.786  -2.955  1.00  0.00    -0.454 OA
ATOM     14  O   UNL     1       8.394  -2.451  -1.692  1.00  0.00    -0.454 OA
ATOM     15  C   UNL     1       8.663  -1.809  -2.917  1.00  0.00     0.468 C 
ENDBRANCH   6   7
ENDBRANCH   1   6
TORSDOF 4
ENDMDL
MODEL 2
REMARK VINA RESULT:      -7.6      2.121      2.508
REMARK SMILES O=C(O)CCc1ccc2c(c1)OCO2
REMARK SMILES IDX 4 1 2 2 1 3 3 4 5 6 6 7 7 8 11 9 8 10 10 11 9 12 12 13 14 14
REMARK SMILES IDX 13 15
REMARK H PARENT 3 5
REMARK Flexibility Score: inf
ROOT
ATOM      1  C   UNL     1       4.700   1.880   0.679  1.00  0.00     0.127 C 
ENDROOT
BRANCH   1   2
ATOM      2  C   UNL     1       4.397   1.170   1.912  1.00  0.00     0.303 C 
ATOM      3  O   UNL     1       5.125   0.339   2.458  1.00  0.00    -0.252 OA
BRANCH   2   4
ATOM      4  O   UNL     1       3.172   1.454   2.534  1.00  0.00    -0.481 OA
ATOM      5  H   UNL     1       2.528   2.027   2.010  1.00  0.00     0.296 HD
ENDBRANCH   2   4
ENDBRANCH   1   2
BRANCH   1   6
ATOM      6  C   UNL     1       6.127   2.238   0.527  1.00  0.00     0.047 C 
BRANCH   6   7
ATOM      7  C   UNL     1       6.975   1.328  -0.246  1.00  0.00    -0.043 A 
ATOM      8  C   UNL     1       8.337   1.546  -0.381  1.00  0.00     0.008 A 
ATOM      9  C   UNL     1       6.435   0.249  -0.894  1.00  0.00     0.054 A 
ATOM     10  C   UNL     1       9.130   0.712  -1.137  1.00  0.00     0.051 A 
ATOM     11  C   UNL     1       7.211  -0.602  -1.658  1.00  0.00     0.166 A 
ATOM     12  C   UNL     1       8.561  -0.374  -1.782  1.00  0.00     0.165 A 
ATOM     13  O   UNL     1       6.889  -1.733  -2.387  1.00  0.00    -0.454 OA
ATOM     14  O   UNL     1       9.066  -1.385  -2.601  1.00  0.00    -0.454 OA
ATOM     15  C   UNL     1       8.001  -2.051  -3.238  1.00  0.00     0.468 C 
ENDBRANCH   6   7
ENDBRANCH   1   6
TORSDOF 4
ENDMDL
MODEL 3
REMARK VINA RESULT:      -7.5      1.971      2.886
REMARK SMILES O=C(O)CCc1ccc2c(c1)OCO2
REMARK SMILES IDX 4 1 2 2 1 3 3 4 5 6 6 7 7 8 11 9 8 10 10 11 9 12 12 13 14 14
REMARK SMILES IDX 13 15
REMARK H PARENT 3 5
REMARK Flexibility Score: inf
ROOT
ATOM      1  C   UNL     1       6.406   1.335   0.606  1.00  0.00     0.127 C 
ENDROOT
BRANCH   1   2
ATOM      2  C   UNL     1       5.200   1.323   1.420  1.00  0.00     0.303 C 
ATOM      3  O   UNL     1       4.256   2.108   1.314  1.00  0.00    -0.252 OA
BRANCH   2   4
ATOM      4  O   UNL     1       5.101   0.335   2.412  1.00  0.00    -0.481 OA
ATOM      5  H   UNL     1       5.035  -0.617   2.086  1.00  0.00     0.296 HD
ENDBRANCH   2   4
ENDBRANCH   1   2
BRANCH   1   6
ATOM      6  C   UNL     1       6.209   0.820  -0.766  1.00  0.00     0.047 C 
BRANCH   6   7
ATOM      7  C   UNL     1       6.973  -0.366  -1.160  1.00  0.00    -0.043 A 
ATOM      8  C   UNL     1       7.293  -0.614  -2.486  1.00  0.00     0.008 A 
ATOM      9  C   UNL     1       7.362  -1.290  -0.227  1.00  0.00     0.054 A 
ATOM     10  C   UNL     1       7.980  -1.746  -2.862  1.00  0.00     0.051 A 
ATOM     11  C   UNL     1       8.052  -2.434  -0.582  1.00  0.00     0.166 A 
ATOM     12  C   UNL     1       8.364  -2.666  -1.900  1.00  0.00     0.165 A 
ATOM     13  O   UNL     1       8.538  -3.486   0.175  1.00  0.00    -0.454 OA
ATOM     14  O   UNL     1       9.051  -3.880  -1.944  1.00  0.00    -0.454 OA
ATOM     15  C   UNL     1       8.895  -4.553  -0.716  1.00  0.00     0.468 C 
ENDBRANCH   6   7
ENDBRANCH   1   6
TORSDOF 4
ENDMDL
MODEL 4
REMARK VINA RESULT:      -7.4      1.794      5.290
REMARK SMILES O=C(O)CCc1ccc2c(c1)OCO2
REMARK SMILES IDX 4 1 2 2 1 3 3 4 5 6 6 7 7 8 11 9 8 10 10 11 9 12 12 13 14 14
REMARK SMILES IDX 13 15
REMARK H PARENT 3 5
REMARK Flexibility Score: inf
ROOT
ATOM      1  C   UNL     1       8.317  -0.326  -2.855  1.00  0.00     0.127 C 
ENDROOT
BRANCH   1   2
ATOM      2  C   UNL     1       8.476  -1.754  -3.081  1.00  0.00     0.303 C 
ATOM      3  O   UNL     1       9.543  -2.370  -3.057  1.00  0.00    -0.252 OA
BRANCH   2   4
ATOM      4  O   UNL     1       7.316  -2.497  -3.351  1.00  0.00    -0.481 OA
ATOM      5  H   UNL     1       7.445  -3.485  -3.502  1.00  0.00     0.296 HD
ENDBRANCH   2   4
ENDBRANCH   1   2
BRANCH   1   6
ATOM      6  C   UNL     1       8.772   0.125  -1.522  1.00  0.00     0.047 C 
BRANCH   6   7
ATOM      7  C   UNL     1       7.802   0.084  -0.426  1.00  0.00    -0.043 A 
ATOM      8  C   UNL     1       7.741  -0.990   0.448  1.00  0.00     0.008 A 
ATOM      9  C   UNL     1       6.896   1.097  -0.255  1.00  0.00     0.054 A 
ATOM     10  C   UNL     1       6.805  -1.046   1.457  1.00  0.00     0.051 A 
ATOM     11  C   UNL     1       5.949   1.063   0.751  1.00  0.00     0.166 A 
ATOM     12  C   UNL     1       5.900  -0.008   1.610  1.00  0.00     0.165 A 
ATOM     13  O   UNL     1       4.954   1.956   1.106  1.00  0.00    -0.454 OA
ATOM     14  O   UNL     1       4.856   0.239   2.503  1.00  0.00    -0.454 OA
ATOM     15  C   UNL     1       4.061   1.295   2.016  1.00  0.00     0.468 C 
ENDBRANCH   6   7
ENDBRANCH   1   6
TORSDOF 4
ENDMDL
MODEL 5
REMARK VINA RESULT:      -7.4      1.050      2.154
REMARK SMILES O=C(O)CCc1ccc2c(c1)OCO2
REMARK SMILES IDX 4 1 2 2 1 3 3 4 5 6 6 7 7 8 11 9 8 10 10 11 9 12 12 13 14 14
REMARK SMILES IDX 13 15
REMARK H PARENT 3 5
REMARK Flexibility Score: inf
ROOT
ATOM      1  C   UNL     1       5.681   2.534   0.077  1.00  0.00     0.127 C 
ENDROOT
BRANCH   1   2
ATOM      2  C   UNL     1       6.196   3.645   0.862  1.00  0.00     0.303 C 
ATOM      3  O   UNL     1       6.165   3.730   2.091  1.00  0.00    -0.252 OA
BRANCH   2   4
ATOM      4  O   UNL     1       6.780   4.712   0.162  1.00  0.00    -0.481 OA
ATOM      5  H   UNL     1       7.786   4.773   0.201  1.00  0.00     0.296 HD
ENDBRANCH   2   4
ENDBRANCH   1   2
BRANCH   1   6
ATOM      6  C   UNL     1       5.761   1.226   0.763  1.00  0.00     0.047 C 
BRANCH   6   7
ATOM      7  C   UNL     1       6.504   0.155   0.095  1.00  0.00    -0.043 A 
ATOM      8  C   UNL     1       6.591   0.087  -1.287  1.00  0.00     0.008 A 
ATOM      9  C   UNL     1       7.105  -0.838   0.820  1.00  0.00     0.054 A 
ATOM     10  C   UNL     1       7.258  -0.939  -1.918  1.00  0.00     0.051 A 
ATOM     11  C   UNL     1       7.780  -1.878   0.209  1.00  0.00     0.166 A 
ATOM     12  C   UNL     1       7.860  -1.932  -1.162  1.00  0.00     0.165 A 
ATOM     13  O   UNL     1       8.452  -2.970   0.730  1.00  0.00    -0.454 OA
ATOM     14  O   UNL     1       8.592  -3.077  -1.478  1.00  0.00    -0.454 OA
ATOM     15  C   UNL     1       8.698  -3.897  -0.338  1.00  0.00     0.468 C 
ENDBRANCH   6   7
ENDBRANCH   1   6
TORSDOF 4
ENDMDL
