@<TRIPOS>MOLECULE
/home/cewinharhar/GITHUB/reincatalyze/data/processed/docking_pred/2023-May-17-1006_maxeplen10_maxtrainstep1000_seadep16_gamma099_lrac9e-4_lrcr1e-3_sub6/79495f175fd15f32955b26bb978cae7af324a937_ligand_6.pdbqt
 15 16 0 0 0
SMALL
GASTEIGER

@<TRIPOS>ATOM
      1  C          5.4300    2.8790    0.1060 C.3     1  UNL1        0.1270
      2  C          6.2500    3.8570    0.8040 C.2     1  UNL1        0.3030
      3  O          6.8820    4.7720    0.2740 O.2     1  UNL1       -0.2520
      4  O          6.3300    3.7510    2.2020 O.3     1  UNL1       -0.4810
      5  H          7.0980    4.2340    2.6420 H       1  UNL1        0.2960
      6  C          5.3510    1.5680    0.7860 C.3     1  UNL1        0.0470
      7  C          6.1270    0.4630    0.2180 C.2     1  UNL1       -0.0430
      8  C          6.5890   -0.5780    1.0070 C.2     1  UNL1        0.0080
      9  C          6.4520    0.4470   -1.1120 C.2     1  UNL1        0.0540
     10  C          7.3490   -1.5990    0.4820 C.2     1  UNL1        0.0510
     11  C          7.2140   -0.5670   -1.6620 C.2     1  UNL1        0.1660
     12  C          7.6640   -1.5930   -0.8670 C.2     1  UNL1        0.1650
     13  O          7.6560   -0.7860   -2.9550 O.2     1  UNL1       -0.4540
     14  O          8.3940   -2.4510   -1.6920 O.2     1  UNL1       -0.4540
     15  C          8.6630   -1.8090   -2.9170 C.3     1  UNL1        0.4680
@<TRIPOS>BOND
     1    13    15    1
     2    13    11    1
     3    15    14    1
     4    14    12    1
     5    11     9    1
     6    11    12    2
     7     9     7    2
     8    12    10    1
     9     1     6    1
    10     1     2    1
    11     7     6    1
    12     7     8    1
    13     3     2    2
    14    10     8    2
    15     2     4    1
    16     4     5    1
