@<TRIPOS>MOLECULE
/home/cewinharhar/GITHUB/reincatalyze/data/processed/docking_pred/2023-May-17-1006_maxeplen10_maxtrainstep1000_seadep16_gamma099_lrac9e-4_lrcr1e-3_sub6/79495f175fd15f32955b26bb978cae7af324a937_ligand_6.pdbqt
 15 16 0 0 0
SMALL
GASTEIGER

@<TRIPOS>ATOM
      1  C          8.3170   -0.3260   -2.8550 C.3     1  UNL1        0.1270
      2  C          8.4760   -1.7540   -3.0810 C.2     1  UNL1        0.3030
      3  O          9.5430   -2.3700   -3.0570 O.2     1  UNL1       -0.2520
      4  O          7.3160   -2.4970   -3.3510 O.3     1  UNL1       -0.4810
      5  H          7.4450   -3.4850   -3.5020 H       1  UNL1        0.2960
      6  C          8.7720    0.1250   -1.5220 C.3     1  UNL1        0.0470
      7  C          7.8020    0.0840   -0.4260 C.2     1  UNL1       -0.0430
      8  C          7.7410   -0.9900    0.4480 C.2     1  UNL1        0.0080
      9  C          6.8960    1.0970   -0.2550 C.2     1  UNL1        0.0540
     10  C          6.8050   -1.0460    1.4570 C.2     1  UNL1        0.0510
     11  C          5.9490    1.0630    0.7510 C.2     1  UNL1        0.1660
     12  C          5.9000   -0.0080    1.6100 C.2     1  UNL1        0.1650
     13  O          4.9540    1.9560    1.1060 O.2     1  UNL1       -0.4540
     14  O          4.8560    0.2390    2.5030 O.2     1  UNL1       -0.4540
     15  C          4.0610    1.2950    2.0160 C.3     1  UNL1        0.4680
@<TRIPOS>BOND
     1     5     4    1
     2     4     2    1
     3     2     3    2
     4     2     1    1
     5     1     6    1
     6     6     7    1
     7     7     9    2
     8     7     8    1
     9     9    11    1
    10     8    10    2
    11    11    13    1
    12    11    12    2
    13    13    15    1
    14    10    12    1
    15    12    14    1
    16    15    14    1
