@<TRIPOS>MOLECULE
/home/cewinharhar/GITHUB/reincatalyze/data/processed/docking_pred/2023-May-17-1006_maxeplen10_maxtrainstep1000_seadep16_gamma099_lrac9e-4_lrcr1e-3_sub6/79495f175fd15f32955b26bb978cae7af324a937_ligand_6.pdbqt
 15 16 0 0 0
SMALL
GASTEIGER

@<TRIPOS>ATOM
      1  C          4.7000    1.8800    0.6790 C.3     1  UNL1        0.1270
      2  C          4.3970    1.1700    1.9120 C.2     1  UNL1        0.3030
      3  O          5.1250    0.3390    2.4580 O.2     1  UNL1       -0.2520
      4  O          3.1720    1.4540    2.5340 O.3     1  UNL1       -0.4810
      5  H          2.5280    2.0270    2.0100 H       1  UNL1        0.2960
      6  C          6.1270    2.2380    0.5270 C.3     1  UNL1        0.0470
      7  C          6.9750    1.3280   -0.2460 C.2     1  UNL1       -0.0430
      8  C          8.3370    1.5460   -0.3810 C.2     1  UNL1        0.0080
      9  C          6.4350    0.2490   -0.8940 C.2     1  UNL1        0.0540
     10  C          9.1300    0.7120   -1.1370 C.2     1  UNL1        0.0510
     11  C          7.2110   -0.6020   -1.6580 C.2     1  UNL1        0.1660
     12  C          8.5610   -0.3740   -1.7820 C.2     1  UNL1        0.1650
     13  O          6.8890   -1.7330   -2.3870 O.2     1  UNL1       -0.4540
     14  O          9.0660   -1.3850   -2.6010 O.2     1  UNL1       -0.4540
     15  C          8.0010   -2.0510   -3.2380 C.3     1  UNL1        0.4680
@<TRIPOS>BOND
     1    15    14    1
     2    15    13    1
     3    14    12    1
     4    13    11    1
     5    12    11    2
     6    12    10    1
     7    11     9    1
     8    10     8    2
     9     9     7    2
    10     8     7    1
    11     7     6    1
    12     6     1    1
    13     1     2    1
    14     2     3    2
    15     2     4    1
    16     5     4    1
