@<TRIPOS>MOLECULE
/home/cewinharhar/GITHUB/reincatalyze/data/processed/docking_pred/2023-May-17-1006_maxeplen10_maxtrainstep1000_seadep16_gamma099_lrac9e-4_lrcr1e-3_sub6/7ac8f9624e71b352d93dccd4dc48cb56e96c53c0_ligand_6.pdbqt
 15 16 0 0 0
SMALL
GASTEIGER

@<TRIPOS>ATOM
      1  C          5.4320    2.8710    0.1150 C.3     1  UNL1        0.1270
      2  C          6.2610    3.8500    0.8010 C.2     1  UNL1        0.3030
      3  O          6.8990    4.7540    0.2600 O.2     1  UNL1       -0.2520
      4  O          6.3420    3.7580    2.2000 O.3     1  UNL1       -0.4810
      5  H          6.7870    4.5300    2.6710 H       1  UNL1        0.2960
      6  C          5.3630    1.5600    0.7950 C.3     1  UNL1        0.0470
      7  C          6.1400    0.4590    0.2220 C.2     1  UNL1       -0.0430
      8  C          6.5900   -0.5940    1.0040 C.2     1  UNL1        0.0080
      9  C          6.4800    0.4570   -1.1050 C.2     1  UNL1        0.0540
     10  C          7.3510   -1.6120    0.4740 C.2     1  UNL1        0.0510
     11  C          7.2420   -0.5530   -1.6590 C.2     1  UNL1        0.1660
     12  C          7.6800   -1.5910   -0.8720 C.2     1  UNL1        0.1650
     13  O          7.6980   -0.7590   -2.9490 O.2     1  UNL1       -0.4540
     14  O          8.4150   -2.4420   -1.7000 O.2     1  UNL1       -0.4540
     15  C          8.7000   -1.7870   -2.9140 C.3     1  UNL1        0.4680
@<TRIPOS>BOND
     1    13    15    1
     2    13    11    1
     3    15    14    1
     4    14    12    1
     5    11     9    1
     6    11    12    2
     7     9     7    2
     8    12    10    1
     9     1     6    1
    10     1     2    1
    11     7     6    1
    12     7     8    1
    13     3     2    2
    14    10     8    2
    15     2     4    1
    16     4     5    1
