MODEL 1
REMARK VINA RESULT:      -7.7      0.000      0.000
REMARK SMILES O=C(O)CCc1ccc2c(c1)OCO2
REMARK SMILES IDX 4 1 2 2 1 3 3 4 5 6 6 7 7 8 11 9 8 10 10 11 9 12 12 13 14 14
REMARK SMILES IDX 13 15
REMARK H PARENT 3 5
REMARK Flexibility Score: inf
ROOT
ATOM      1  C   UNL     1       5.432   2.871   0.115  1.00  0.00     0.127 C 
ENDROOT
BRANCH   1   2
ATOM      2  C   UNL     1       6.261   3.850   0.801  1.00  0.00     0.303 C 
ATOM      3  O   UNL     1       6.899   4.754   0.260  1.00  0.00    -0.252 OA
BRANCH   2   4
ATOM      4  O   UNL     1       6.342   3.758   2.200  1.00  0.00    -0.481 OA
ATOM      5  H   UNL     1       6.787   4.530   2.671  1.00  0.00     0.296 HD
ENDBRANCH   2   4
ENDBRANCH   1   2
BRANCH   1   6
ATOM      6  C   UNL     1       5.363   1.560   0.795  1.00  0.00     0.047 C 
BRANCH   6   7
ATOM      7  C   UNL     1       6.140   0.459   0.222  1.00  0.00    -0.043 A 
ATOM      8  C   UNL     1       6.590  -0.594   1.004  1.00  0.00     0.008 A 
ATOM      9  C   UNL     1       6.480   0.457  -1.105  1.00  0.00     0.054 A 
ATOM     10  C   UNL     1       7.351  -1.612   0.474  1.00  0.00     0.051 A 
ATOM     11  C   UNL     1       7.242  -0.553  -1.659  1.00  0.00     0.166 A 
ATOM     12  C   UNL     1       7.680  -1.591  -0.872  1.00  0.00     0.165 A 
ATOM     13  O   UNL     1       7.698  -0.759  -2.949  1.00  0.00    -0.454 OA
ATOM     14  O   UNL     1       8.415  -2.442  -1.700  1.00  0.00    -0.454 OA
ATOM     15  C   UNL     1       8.700  -1.787  -2.914  1.00  0.00     0.468 C 
ENDBRANCH   6   7
ENDBRANCH   1   6
TORSDOF 4
ENDMDL
MODEL 2
REMARK VINA RESULT:      -7.6      2.120      2.513
REMARK SMILES O=C(O)CCc1ccc2c(c1)OCO2
REMARK SMILES IDX 4 1 2 2 1 3 3 4 5 6 6 7 7 8 11 9 8 10 10 11 9 12 12 13 14 14
REMARK SMILES IDX 13 15
REMARK H PARENT 3 5
REMARK Flexibility Score: inf
ROOT
ATOM      1  C   UNL     1       4.730   1.884   0.694  1.00  0.00     0.127 C 
ENDROOT
BRANCH   1   2
ATOM      2  C   UNL     1       4.426   1.159   1.917  1.00  0.00     0.303 C 
ATOM      3  O   UNL     1       5.158   0.329   2.460  1.00  0.00    -0.252 OA
BRANCH   2   4
ATOM      4  O   UNL     1       3.194   1.425   2.535  1.00  0.00    -0.481 OA
ATOM      5  H   UNL     1       3.136   2.283   3.062  1.00  0.00     0.296 HD
ENDBRANCH   2   4
ENDBRANCH   1   2
BRANCH   1   6
ATOM      6  C   UNL     1       6.158   2.236   0.544  1.00  0.00     0.047 C 
BRANCH   6   7
ATOM      7  C   UNL     1       7.002   1.326  -0.234  1.00  0.00    -0.043 A 
ATOM      8  C   UNL     1       8.363   1.546  -0.378  1.00  0.00     0.008 A 
ATOM      9  C   UNL     1       6.459   0.246  -0.877  1.00  0.00     0.054 A 
ATOM     10  C   UNL     1       9.152   0.711  -1.138  1.00  0.00     0.051 A 
ATOM     11  C   UNL     1       7.231  -0.606  -1.644  1.00  0.00     0.166 A 
ATOM     12  C   UNL     1       8.580  -0.377  -1.777  1.00  0.00     0.165 A 
ATOM     13  O   UNL     1       6.906  -1.738  -2.370  1.00  0.00    -0.454 OA
ATOM     14  O   UNL     1       9.081  -1.388  -2.599  1.00  0.00    -0.454 OA
ATOM     15  C   UNL     1       8.012  -2.057  -3.227  1.00  0.00     0.468 C 
ENDBRANCH   6   7
ENDBRANCH   1   6
TORSDOF 4
ENDMDL
MODEL 3
REMARK VINA RESULT:      -7.5      1.803      5.285
REMARK SMILES O=C(O)CCc1ccc2c(c1)OCO2
REMARK SMILES IDX 4 1 2 2 1 3 3 4 5 6 6 7 7 8 11 9 8 10 10 11 9 12 12 13 14 14
REMARK SMILES IDX 13 15
REMARK H PARENT 3 5
REMARK Flexibility Score: inf
ROOT
ATOM      1  C   UNL     1       8.304  -0.318  -2.840  1.00  0.00     0.127 C 
ENDROOT
BRANCH   1   2
ATOM      2  C   UNL     1       8.468  -1.745  -3.066  1.00  0.00     0.303 C 
ATOM      3  O   UNL     1       9.535  -2.359  -3.030  1.00  0.00    -0.252 OA
BRANCH   2   4
ATOM      4  O   UNL     1       7.312  -2.489  -3.351  1.00  0.00    -0.481 OA
ATOM      5  H   UNL     1       7.021  -3.147  -2.645  1.00  0.00     0.296 HD
ENDBRANCH   2   4
ENDBRANCH   1   2
BRANCH   1   6
ATOM      6  C   UNL     1       8.761   0.135  -1.508  1.00  0.00     0.047 C 
BRANCH   6   7
ATOM      7  C   UNL     1       7.792   0.094  -0.410  1.00  0.00    -0.043 A 
ATOM      8  C   UNL     1       7.751  -0.967   0.481  1.00  0.00     0.008 A 
ATOM      9  C   UNL     1       6.868   1.093  -0.254  1.00  0.00     0.054 A 
ATOM     10  C   UNL     1       6.818  -1.025   1.492  1.00  0.00     0.051 A 
ATOM     11  C   UNL     1       5.923   1.057   0.753  1.00  0.00     0.166 A 
ATOM     12  C   UNL     1       5.894  -0.001   1.629  1.00  0.00     0.165 A 
ATOM     13  O   UNL     1       4.911   1.937   1.096  1.00  0.00    -0.454 OA
ATOM     14  O   UNL     1       4.847   0.241   2.519  1.00  0.00    -0.454 OA
ATOM     15  C   UNL     1       4.032   1.274   2.017  1.00  0.00     0.468 C 
ENDBRANCH   6   7
ENDBRANCH   1   6
TORSDOF 4
ENDMDL
MODEL 4
REMARK VINA RESULT:      -7.4      0.911      2.066
REMARK SMILES O=C(O)CCc1ccc2c(c1)OCO2
REMARK SMILES IDX 4 1 2 2 1 3 3 4 5 6 6 7 7 8 11 9 8 10 10 11 9 12 12 13 14 14
REMARK SMILES IDX 13 15
REMARK H PARENT 3 5
REMARK Flexibility Score: inf
ROOT
ATOM      1  C   UNL     1       5.407   2.725   0.159  1.00  0.00     0.127 C 
ENDROOT
BRANCH   1   2
ATOM      2  C   UNL     1       6.117   3.753   0.904  1.00  0.00     0.303 C 
ATOM      3  O   UNL     1       6.164   3.846   2.132  1.00  0.00    -0.252 OA
BRANCH   2   4
ATOM      4  O   UNL     1       6.809   4.724   0.163  1.00  0.00    -0.481 OA
ATOM      5  H   UNL     1       6.468   5.670   0.241  1.00  0.00     0.296 HD
ENDBRANCH   2   4
ENDBRANCH   1   2
BRANCH   1   6
ATOM      6  C   UNL     1       5.480   1.381   0.772  1.00  0.00     0.047 C 
BRANCH   6   7
ATOM      7  C   UNL     1       6.280   0.366   0.084  1.00  0.00    -0.043 A 
ATOM      8  C   UNL     1       6.404   0.353  -1.297  1.00  0.00     0.008 A 
ATOM      9  C   UNL     1       6.902  -0.631   0.788  1.00  0.00     0.054 A 
ATOM     10  C   UNL     1       7.126  -0.623  -1.947  1.00  0.00     0.051 A 
ATOM     11  C   UNL     1       7.633  -1.620   0.157  1.00  0.00     0.166 A 
ATOM     12  C   UNL     1       7.748  -1.619  -1.212  1.00  0.00     0.165 A 
ATOM     13  O   UNL     1       8.334  -2.704   0.655  1.00  0.00    -0.454 OA
ATOM     14  O   UNL     1       8.531  -2.723  -1.552  1.00  0.00    -0.454 OA
ATOM     15  C   UNL     1       8.643  -3.581  -0.439  1.00  0.00     0.468 C 
ENDBRANCH   6   7
ENDBRANCH   1   6
TORSDOF 4
ENDMDL
MODEL 5
REMARK VINA RESULT:      -7.3      1.978      2.771
REMARK SMILES O=C(O)CCc1ccc2c(c1)OCO2
REMARK SMILES IDX 4 1 2 2 1 3 3 4 5 6 6 7 7 8 11 9 8 10 10 11 9 12 12 13 14 14
REMARK SMILES IDX 13 15
REMARK H PARENT 3 5
REMARK Flexibility Score: inf
ROOT
ATOM      1  C   UNL     1       5.075   0.152   2.019  1.00  0.00     0.127 C 
ENDROOT
BRANCH   1   2
ATOM      2  C   UNL     1       4.204   1.312   1.909  1.00  0.00     0.303 C 
ATOM      3  O   UNL     1       4.381   2.273   1.159  1.00  0.00    -0.252 OA
BRANCH   2   4
ATOM      4  O   UNL     1       3.064   1.342   2.728  1.00  0.00    -0.481 OA
ATOM      5  H   UNL     1       2.406   0.588   2.602  1.00  0.00     0.296 HD
ENDBRANCH   2   4
ENDBRANCH   1   2
BRANCH   1   6
ATOM      6  C   UNL     1       6.463   0.399   1.572  1.00  0.00     0.047 C 
BRANCH   6   7
ATOM      7  C   UNL     1       6.973  -0.415   0.467  1.00  0.00    -0.043 A 
ATOM      8  C   UNL     1       6.751  -0.063  -0.855  1.00  0.00     0.008 A 
ATOM      9  C   UNL     1       7.658  -1.577   0.711  1.00  0.00     0.054 A 
ATOM     10  C   UNL     1       7.199  -0.847  -1.895  1.00  0.00     0.051 A 
ATOM     11  C   UNL     1       8.118  -2.378  -0.317  1.00  0.00     0.166 A 
ATOM     12  C   UNL     1       7.890  -2.016  -1.623  1.00  0.00     0.165 A 
ATOM     13  O   UNL     1       8.819  -3.571  -0.308  1.00  0.00    -0.454 OA
ATOM     14  O   UNL     1       8.464  -3.007  -2.421  1.00  0.00    -0.454 OA
ATOM     15  C   UNL     1       8.768  -4.132  -1.629  1.00  0.00     0.468 C 
ENDBRANCH   6   7
ENDBRANCH   1   6
TORSDOF 4
ENDMDL
