@<TRIPOS>MOLECULE
/home/cewinharhar/GITHUB/reincatalyze/data/processed/docking_pred/2023-May-17-1006_maxeplen10_maxtrainstep1000_seadep16_gamma099_lrac9e-4_lrcr1e-3_sub6/7ac8f9624e71b352d93dccd4dc48cb56e96c53c0_ligand_6.pdbqt
 15 16 0 0 0
SMALL
GASTEIGER

@<TRIPOS>ATOM
      1  C          5.4070    2.7250    0.1590 C.3     1  UNL1        0.1270
      2  C          6.1170    3.7530    0.9040 C.2     1  UNL1        0.3030
      3  O          6.1640    3.8460    2.1320 O.2     1  UNL1       -0.2520
      4  O          6.8090    4.7240    0.1630 O.3     1  UNL1       -0.4810
      5  H          6.4680    5.6700    0.2410 H       1  UNL1        0.2960
      6  C          5.4800    1.3810    0.7720 C.3     1  UNL1        0.0470
      7  C          6.2800    0.3660    0.0840 C.2     1  UNL1       -0.0430
      8  C          6.4040    0.3530   -1.2970 C.2     1  UNL1        0.0080
      9  C          6.9020   -0.6310    0.7880 C.2     1  UNL1        0.0540
     10  C          7.1260   -0.6230   -1.9470 C.2     1  UNL1        0.0510
     11  C          7.6330   -1.6200    0.1570 C.2     1  UNL1        0.1660
     12  C          7.7480   -1.6190   -1.2120 C.2     1  UNL1        0.1650
     13  O          8.3340   -2.7040    0.6550 O.2     1  UNL1       -0.4540
     14  O          8.5310   -2.7230   -1.5520 O.2     1  UNL1       -0.4540
     15  C          8.6430   -3.5810   -0.4390 C.3     1  UNL1        0.4680
@<TRIPOS>BOND
     1    10     8    1
     2    10    12    2
     3    14    12    1
     4    14    15    1
     5     8     7    2
     6    12    11    1
     7    15    13    1
     8     7     6    1
     9     7     9    1
    10    11    13    1
    11    11     9    2
    12     1     6    1
    13     1     2    1
    14     4     5    1
    15     4     2    1
    16     2     3    2
