@<TRIPOS>MOLECULE
/home/cewinharhar/GITHUB/reincatalyze/data/processed/docking_pred/2023-May-17-1006_maxeplen10_maxtrainstep1000_seadep16_gamma099_lrac9e-4_lrcr1e-3_sub6/7ac8f9624e71b352d93dccd4dc48cb56e96c53c0_ligand_6.pdbqt
 15 16 0 0 0
SMALL
GASTEIGER

@<TRIPOS>ATOM
      1  C          5.0750    0.1520    2.0190 C.3     1  UNL1        0.1270
      2  C          4.2040    1.3120    1.9090 C.2     1  UNL1        0.3030
      3  O          4.3810    2.2730    1.1590 O.2     1  UNL1       -0.2520
      4  O          3.0640    1.3420    2.7280 O.3     1  UNL1       -0.4810
      5  H          2.4060    0.5880    2.6020 H       1  UNL1        0.2960
      6  C          6.4630    0.3990    1.5720 C.3     1  UNL1        0.0470
      7  C          6.9730   -0.4150    0.4670 C.2     1  UNL1       -0.0430
      8  C          6.7510   -0.0630   -0.8550 C.2     1  UNL1        0.0080
      9  C          7.6580   -1.5770    0.7110 C.2     1  UNL1        0.0540
     10  C          7.1990   -0.8470   -1.8950 C.2     1  UNL1        0.0510
     11  C          8.1180   -2.3780   -0.3170 C.2     1  UNL1        0.1660
     12  C          7.8900   -2.0160   -1.6230 C.2     1  UNL1        0.1650
     13  O          8.8190   -3.5710   -0.3080 O.2     1  UNL1       -0.4540
     14  O          8.4640   -3.0070   -2.4210 O.2     1  UNL1       -0.4540
     15  C          8.7680   -4.1320   -1.6290 C.3     1  UNL1        0.4680
@<TRIPOS>BOND
     1    14    15    1
     2    14    12    1
     3    10    12    2
     4    10     8    1
     5    15    13    1
     6    12    11    1
     7     8     7    2
     8    11    13    1
     9    11     9    2
    10     7     9    1
    11     7     6    1
    12     3     2    2
    13     6     1    1
    14     2     1    1
    15     2     4    1
    16     5     4    1
