@<TRIPOS>MOLECULE
/home/cewinharhar/GITHUB/reincatalyze/data/processed/docking_pred/2023-May-17-1006_maxeplen10_maxtrainstep1000_seadep16_gamma099_lrac9e-4_lrcr1e-3_sub6/7ac8f9624e71b352d93dccd4dc48cb56e96c53c0_ligand_6.pdbqt
 15 16 0 0 0
SMALL
GASTEIGER

@<TRIPOS>ATOM
      1  C          4.7300    1.8840    0.6940 C.3     1  UNL1        0.1270
      2  C          4.4260    1.1590    1.9170 C.2     1  UNL1        0.3030
      3  O          5.1580    0.3290    2.4600 O.2     1  UNL1       -0.2520
      4  O          3.1940    1.4250    2.5350 O.3     1  UNL1       -0.4810
      5  H          3.1360    2.2830    3.0620 H       1  UNL1        0.2960
      6  C          6.1580    2.2360    0.5440 C.3     1  UNL1        0.0470
      7  C          7.0020    1.3260   -0.2340 C.2     1  UNL1       -0.0430
      8  C          8.3630    1.5460   -0.3780 C.2     1  UNL1        0.0080
      9  C          6.4590    0.2460   -0.8770 C.2     1  UNL1        0.0540
     10  C          9.1520    0.7110   -1.1380 C.2     1  UNL1        0.0510
     11  C          7.2310   -0.6060   -1.6440 C.2     1  UNL1        0.1660
     12  C          8.5800   -0.3770   -1.7770 C.2     1  UNL1        0.1650
     13  O          6.9060   -1.7380   -2.3700 O.2     1  UNL1       -0.4540
     14  O          9.0810   -1.3880   -2.5990 O.2     1  UNL1       -0.4540
     15  C          8.0120   -2.0570   -3.2270 C.3     1  UNL1        0.4680
@<TRIPOS>BOND
     1    15    14    1
     2    15    13    1
     3    14    12    1
     4    13    11    1
     5    12    11    2
     6    12    10    1
     7    11     9    1
     8    10     8    2
     9     9     7    2
    10     8     7    1
    11     7     6    1
    12     6     1    1
    13     1     2    1
    14     2     3    2
    15     2     4    1
    16     4     5    1
