@<TRIPOS>MOLECULE
/home/cewinharhar/GITHUB/reincatalyze/data/processed/docking_pred/2023-May-17-1006_maxeplen10_maxtrainstep1000_seadep16_gamma099_lrac9e-4_lrcr1e-3_sub6/7ac8f9624e71b352d93dccd4dc48cb56e96c53c0_ligand_6.pdbqt
 15 16 0 0 0
SMALL
GASTEIGER

@<TRIPOS>ATOM
      1  C          8.3040   -0.3180   -2.8400 C.3     1  UNL1        0.1270
      2  C          8.4680   -1.7450   -3.0660 C.2     1  UNL1        0.3030
      3  O          9.5350   -2.3590   -3.0300 O.2     1  UNL1       -0.2520
      4  O          7.3120   -2.4890   -3.3510 O.3     1  UNL1       -0.4810
      5  H          7.0210   -3.1470   -2.6450 H       1  UNL1        0.2960
      6  C          8.7610    0.1350   -1.5080 C.3     1  UNL1        0.0470
      7  C          7.7920    0.0940   -0.4100 C.2     1  UNL1       -0.0430
      8  C          7.7510   -0.9670    0.4810 C.2     1  UNL1        0.0080
      9  C          6.8680    1.0930   -0.2540 C.2     1  UNL1        0.0540
     10  C          6.8180   -1.0250    1.4920 C.2     1  UNL1        0.0510
     11  C          5.9230    1.0570    0.7530 C.2     1  UNL1        0.1660
     12  C          5.8940   -0.0010    1.6290 C.2     1  UNL1        0.1650
     13  O          4.9110    1.9370    1.0960 O.2     1  UNL1       -0.4540
     14  O          4.8470    0.2410    2.5190 O.2     1  UNL1       -0.4540
     15  C          4.0320    1.2740    2.0170 C.3     1  UNL1        0.4680
@<TRIPOS>BOND
     1     4     2    1
     2     4     5    1
     3     2     3    2
     4     2     1    1
     5     1     6    1
     6     6     7    1
     7     7     9    2
     8     7     8    1
     9     9    11    1
    10     8    10    2
    11    11    13    1
    12    11    12    2
    13    13    15    1
    14    10    12    1
    15    12    14    1
    16    15    14    1
