@<TRIPOS>MOLECULE
/home/cewinharhar/GITHUB/reincatalyze/data/processed/docking_pred/2023-May-17-1006_maxeplen10_maxtrainstep1000_seadep16_gamma099_lrac9e-4_lrcr1e-3_sub6/7c86502248d8ce059d377094dc2c2500eee92fd7_ligand_6.pdbqt
 15 16 0 0 0
SMALL
GASTEIGER

@<TRIPOS>ATOM
      1  C          4.6880    1.8510    0.6770 C.3     1  UNL1        0.1270
      2  C          4.4030    1.1500    1.9190 C.2     1  UNL1        0.3030
      3  O          5.1450    0.3340    2.4690 O.2     1  UNL1       -0.2520
      4  O          3.1780    1.4260    2.5480 O.3     1  UNL1       -0.4810
      5  H          2.3550    1.3560    1.9700 H       1  UNL1        0.2960
      6  C          6.1070    2.2340    0.5150 C.3     1  UNL1        0.0470
      7  C          6.9690    1.3300   -0.2490 C.2     1  UNL1       -0.0430
      8  C          8.3290    1.5630   -0.3780 C.2     1  UNL1        0.0080
      9  C          6.4450    0.2420   -0.8950 C.2     1  UNL1        0.0540
     10  C          9.1350    0.7340   -1.1260 C.2     1  UNL1        0.0510
     11  C          7.2340   -0.6040   -1.6510 C.2     1  UNL1        0.1660
     12  C          8.5810   -0.3620   -1.7690 C.2     1  UNL1        0.1650
     13  O          6.9280   -1.7420   -2.3770 O.2     1  UNL1       -0.4540
     14  O          9.1030   -1.3700   -2.5810 O.2     1  UNL1       -0.4540
     15  C          8.0480   -2.0510   -3.2200 C.3     1  UNL1        0.4680
@<TRIPOS>BOND
     1    15    14    1
     2    15    13    1
     3    14    12    1
     4    13    11    1
     5    12    11    2
     6    12    10    1
     7    11     9    1
     8    10     8    2
     9     9     7    2
    10     8     7    1
    11     7     6    1
    12     6     1    1
    13     1     2    1
    14     2     3    2
    15     2     4    1
    16     5     4    1
