@<TRIPOS>MOLECULE
/home/cewinharhar/GITHUB/reincatalyze/data/processed/docking_pred/2023-May-17-1006_maxeplen10_maxtrainstep1000_seadep16_gamma099_lrac9e-4_lrcr1e-3_sub6/7c86502248d8ce059d377094dc2c2500eee92fd7_ligand_6.pdbqt
 15 16 0 0 0
SMALL
GASTEIGER

@<TRIPOS>ATOM
      1  C          5.3760    2.8380    0.0770 C.3     1  UNL1        0.1270
      2  C          6.1140    3.8300    0.8440 C.2     1  UNL1        0.3030
      3  O          6.1390    3.9120    2.0730 O.2     1  UNL1       -0.2520
      4  O          6.8620    4.7750    0.1240 O.3     1  UNL1       -0.4810
      5  H          7.2390    4.4660   -0.7580 H       1  UNL1        0.2960
      6  C          5.3440    1.4980    0.7020 C.3     1  UNL1        0.0470
      7  C          6.2040    0.4620    0.1270 C.2     1  UNL1       -0.0430
      8  C          6.5200    0.4490   -1.2230 C.2     1  UNL1        0.0080
      9  C          6.6940   -0.5530    0.9050 C.2     1  UNL1        0.0540
     10  C          7.2990   -0.5450   -1.7720 C.2     1  UNL1        0.0510
     11  C          7.4780   -1.5600    0.3770 C.2     1  UNL1        0.1660
     12  C          7.7840   -1.5600   -0.9630 C.2     1  UNL1        0.1650
     13  O          8.0720   -2.6650    0.9610 O.2     1  UNL1       -0.4540
     14  O          8.5770   -2.6850   -1.1960 O.2     1  UNL1       -0.4540
     15  C          8.5070   -3.5480   -0.0840 C.3     1  UNL1        0.4680
@<TRIPOS>BOND
     1    10     8    1
     2    10    12    2
     3     8     7    2
     4    14    12    1
     5    14    15    1
     6    12    11    1
     7     5     4    1
     8    15    13    1
     9     1     6    1
    10     1     2    1
    11     4     2    1
    12     7     6    1
    13     7     9    1
    14    11     9    2
    15    11    13    1
    16     2     3    2
