MODEL 1
REMARK VINA RESULT:      -7.7      0.000      0.000
REMARK SMILES O=C(O)CCc1ccc2c(c1)OCO2
REMARK SMILES IDX 4 1 2 2 1 3 3 4 5 6 6 7 7 8 11 9 8 10 10 11 9 12 12 13 14 14
REMARK SMILES IDX 13 15
REMARK H PARENT 3 5
REMARK Flexibility Score: inf
ROOT
ATOM      1  C   UNL     1       5.461   2.859   0.079  1.00  0.00     0.127 C 
ENDROOT
BRANCH   1   2
ATOM      2  C   UNL     1       6.224   3.883   0.775  1.00  0.00     0.303 C 
ATOM      3  O   UNL     1       6.884   4.775   0.238  1.00  0.00    -0.252 OA
BRANCH   2   4
ATOM      4  O   UNL     1       6.208   3.856   2.178  1.00  0.00    -0.481 OA
ATOM      5  H   UNL     1       5.409   4.282   2.623  1.00  0.00     0.296 HD
ENDBRANCH   2   4
ENDBRANCH   1   2
BRANCH   1   6
ATOM      6  C   UNL     1       5.403   1.565   0.791  1.00  0.00     0.047 C 
BRANCH   6   7
ATOM      7  C   UNL     1       6.162   0.447   0.227  1.00  0.00    -0.043 A 
ATOM      8  C   UNL     1       6.590  -0.610   1.015  1.00  0.00     0.008 A 
ATOM      9  C   UNL     1       6.506   0.432  -1.099  1.00  0.00     0.054 A 
ATOM     10  C   UNL     1       7.335  -1.644   0.493  1.00  0.00     0.051 A 
ATOM     11  C   UNL     1       7.251  -0.595  -1.645  1.00  0.00     0.166 A 
ATOM     12  C   UNL     1       7.668  -1.637  -0.852  1.00  0.00     0.165 A 
ATOM     13  O   UNL     1       7.707  -0.816  -2.933  1.00  0.00    -0.454 OA
ATOM     14  O   UNL     1       8.390  -2.505  -1.673  1.00  0.00    -0.454 OA
ATOM     15  C   UNL     1       8.690  -1.861  -2.889  1.00  0.00     0.468 C 
ENDBRANCH   6   7
ENDBRANCH   1   6
TORSDOF 4
ENDMDL
MODEL 2
REMARK VINA RESULT:      -7.6      2.140      2.524
REMARK SMILES O=C(O)CCc1ccc2c(c1)OCO2
REMARK SMILES IDX 4 1 2 2 1 3 3 4 5 6 6 7 7 8 11 9 8 10 10 11 9 12 12 13 14 14
REMARK SMILES IDX 13 15
REMARK H PARENT 3 5
REMARK Flexibility Score: inf
ROOT
ATOM      1  C   UNL     1       4.688   1.851   0.677  1.00  0.00     0.127 C 
ENDROOT
BRANCH   1   2
ATOM      2  C   UNL     1       4.403   1.150   1.919  1.00  0.00     0.303 C 
ATOM      3  O   UNL     1       5.145   0.334   2.469  1.00  0.00    -0.252 OA
BRANCH   2   4
ATOM      4  O   UNL     1       3.178   1.426   2.548  1.00  0.00    -0.481 OA
ATOM      5  H   UNL     1       2.355   1.356   1.970  1.00  0.00     0.296 HD
ENDBRANCH   2   4
ENDBRANCH   1   2
BRANCH   1   6
ATOM      6  C   UNL     1       6.107   2.234   0.515  1.00  0.00     0.047 C 
BRANCH   6   7
ATOM      7  C   UNL     1       6.969   1.330  -0.249  1.00  0.00    -0.043 A 
ATOM      8  C   UNL     1       8.329   1.563  -0.378  1.00  0.00     0.008 A 
ATOM      9  C   UNL     1       6.445   0.242  -0.895  1.00  0.00     0.054 A 
ATOM     10  C   UNL     1       9.135   0.734  -1.126  1.00  0.00     0.051 A 
ATOM     11  C   UNL     1       7.234  -0.604  -1.651  1.00  0.00     0.166 A 
ATOM     12  C   UNL     1       8.581  -0.362  -1.769  1.00  0.00     0.165 A 
ATOM     13  O   UNL     1       6.928  -1.742  -2.377  1.00  0.00    -0.454 OA
ATOM     14  O   UNL     1       9.103  -1.370  -2.581  1.00  0.00    -0.454 OA
ATOM     15  C   UNL     1       8.048  -2.051  -3.220  1.00  0.00     0.468 C 
ENDBRANCH   6   7
ENDBRANCH   1   6
TORSDOF 4
ENDMDL
MODEL 3
REMARK VINA RESULT:      -7.5      1.952      2.862
REMARK SMILES O=C(O)CCc1ccc2c(c1)OCO2
REMARK SMILES IDX 4 1 2 2 1 3 3 4 5 6 6 7 7 8 11 9 8 10 10 11 9 12 12 13 14 14
REMARK SMILES IDX 13 15
REMARK H PARENT 3 5
REMARK Flexibility Score: inf
ROOT
ATOM      1  C   UNL     1       6.407   1.336   0.627  1.00  0.00     0.127 C 
ENDROOT
BRANCH   1   2
ATOM      2  C   UNL     1       5.188   1.350   1.421  1.00  0.00     0.303 C 
ATOM      3  O   UNL     1       4.266   2.159   1.303  1.00  0.00    -0.252 OA
BRANCH   2   4
ATOM      4  O   UNL     1       5.049   0.359   2.405  1.00  0.00    -0.481 OA
ATOM      5  H   UNL     1       5.857  -0.219   2.572  1.00  0.00     0.296 HD
ENDBRANCH   2   4
ENDBRANCH   1   2
BRANCH   1   6
ATOM      6  C   UNL     1       6.219   0.842  -0.754  1.00  0.00     0.047 C 
BRANCH   6   7
ATOM      7  C   UNL     1       6.976  -0.345  -1.157  1.00  0.00    -0.043 A 
ATOM      8  C   UNL     1       7.278  -0.594  -2.487  1.00  0.00     0.008 A 
ATOM      9  C   UNL     1       7.376  -1.269  -0.229  1.00  0.00     0.054 A 
ATOM     10  C   UNL     1       7.959  -1.728  -2.872  1.00  0.00     0.051 A 
ATOM     11  C   UNL     1       8.061  -2.414  -0.592  1.00  0.00     0.166 A 
ATOM     12  C   UNL     1       8.354  -2.647  -1.914  1.00  0.00     0.165 A 
ATOM     13  O   UNL     1       8.555  -3.466   0.159  1.00  0.00    -0.454 OA
ATOM     14  O   UNL     1       9.039  -3.862  -1.967  1.00  0.00    -0.454 OA
ATOM     15  C   UNL     1       8.899  -4.534  -0.736  1.00  0.00     0.468 C 
ENDBRANCH   6   7
ENDBRANCH   1   6
TORSDOF 4
ENDMDL
MODEL 4
REMARK VINA RESULT:      -7.5      0.946      2.114
REMARK SMILES O=C(O)CCc1ccc2c(c1)OCO2
REMARK SMILES IDX 4 1 2 2 1 3 3 4 5 6 6 7 7 8 11 9 8 10 10 11 9 12 12 13 14 14
REMARK SMILES IDX 13 15
REMARK H PARENT 3 5
REMARK Flexibility Score: inf
ROOT
ATOM      1  C   UNL     1       5.376   2.838   0.077  1.00  0.00     0.127 C 
ENDROOT
BRANCH   1   2
ATOM      2  C   UNL     1       6.114   3.830   0.844  1.00  0.00     0.303 C 
ATOM      3  O   UNL     1       6.139   3.912   2.073  1.00  0.00    -0.252 OA
BRANCH   2   4
ATOM      4  O   UNL     1       6.862   4.775   0.124  1.00  0.00    -0.481 OA
ATOM      5  H   UNL     1       7.239   4.466  -0.758  1.00  0.00     0.296 HD
ENDBRANCH   2   4
ENDBRANCH   1   2
BRANCH   1   6
ATOM      6  C   UNL     1       5.344   1.498   0.702  1.00  0.00     0.047 C 
BRANCH   6   7
ATOM      7  C   UNL     1       6.204   0.462   0.127  1.00  0.00    -0.043 A 
ATOM      8  C   UNL     1       6.520   0.449  -1.223  1.00  0.00     0.008 A 
ATOM      9  C   UNL     1       6.694  -0.553   0.905  1.00  0.00     0.054 A 
ATOM     10  C   UNL     1       7.299  -0.545  -1.772  1.00  0.00     0.051 A 
ATOM     11  C   UNL     1       7.478  -1.560   0.377  1.00  0.00     0.166 A 
ATOM     12  C   UNL     1       7.784  -1.560  -0.963  1.00  0.00     0.165 A 
ATOM     13  O   UNL     1       8.072  -2.665   0.961  1.00  0.00    -0.454 OA
ATOM     14  O   UNL     1       8.577  -2.685  -1.196  1.00  0.00    -0.454 OA
ATOM     15  C   UNL     1       8.507  -3.548  -0.084  1.00  0.00     0.468 C 
ENDBRANCH   6   7
ENDBRANCH   1   6
TORSDOF 4
ENDMDL
MODEL 5
REMARK VINA RESULT:      -7.5      1.796      5.266
REMARK SMILES O=C(O)CCc1ccc2c(c1)OCO2
REMARK SMILES IDX 4 1 2 2 1 3 3 4 5 6 6 7 7 8 11 9 8 10 10 11 9 12 12 13 14 14
REMARK SMILES IDX 13 15
REMARK H PARENT 3 5
REMARK Flexibility Score: inf
ROOT
ATOM      1  C   UNL     1       8.305  -0.187  -2.811  1.00  0.00     0.127 C 
ENDROOT
BRANCH   1   2
ATOM      2  C   UNL     1       8.509  -1.616  -2.992  1.00  0.00     0.303 C 
ATOM      3  O   UNL     1       9.591  -2.201  -2.916  1.00  0.00    -0.252 OA
BRANCH   2   4
ATOM      4  O   UNL     1       7.379  -2.397  -3.277  1.00  0.00    -0.481 OA
ATOM      5  H   UNL     1       6.809  -2.090  -4.050  1.00  0.00     0.296 HD
ENDBRANCH   2   4
ENDBRANCH   1   2
BRANCH   1   6
ATOM      6  C   UNL     1       8.728   0.317  -1.487  1.00  0.00     0.047 C 
BRANCH   6   7
ATOM      7  C   UNL     1       7.757   0.244  -0.393  1.00  0.00    -0.043 A 
ATOM      8  C   UNL     1       7.739  -0.825   0.489  1.00  0.00     0.008 A 
ATOM      9  C   UNL     1       6.808   1.218  -0.233  1.00  0.00     0.054 A 
ATOM     10  C   UNL     1       6.804  -0.913   1.496  1.00  0.00     0.051 A 
ATOM     11  C   UNL     1       5.860   1.151   0.771  1.00  0.00     0.166 A 
ATOM     12  C   UNL     1       5.855   0.086   1.639  1.00  0.00     0.165 A 
ATOM     13  O   UNL     1       4.826   2.003   1.117  1.00  0.00    -0.454 OA
ATOM     14  O   UNL     1       4.799   0.295   2.527  1.00  0.00    -0.454 OA
ATOM     15  C   UNL     1       3.960   1.312   2.030  1.00  0.00     0.468 C 
ENDBRANCH   6   7
ENDBRANCH   1   6
TORSDOF 4
ENDMDL
