@<TRIPOS>MOLECULE
/home/cewinharhar/GITHUB/reincatalyze/data/processed/docking_pred/2023-May-17-1006_maxeplen10_maxtrainstep1000_seadep16_gamma099_lrac9e-4_lrcr1e-3_sub6/7c86502248d8ce059d377094dc2c2500eee92fd7_ligand_6.pdbqt
 15 16 0 0 0
SMALL
GASTEIGER

@<TRIPOS>ATOM
      1  C          8.3050   -0.1870   -2.8110 C.3     1  UNL1        0.1270
      2  C          8.5090   -1.6160   -2.9920 C.2     1  UNL1        0.3030
      3  O          9.5910   -2.2010   -2.9160 O.2     1  UNL1       -0.2520
      4  O          7.3790   -2.3970   -3.2770 O.3     1  UNL1       -0.4810
      5  H          6.8090   -2.0900   -4.0500 H       1  UNL1        0.2960
      6  C          8.7280    0.3170   -1.4870 C.3     1  UNL1        0.0470
      7  C          7.7570    0.2440   -0.3930 C.2     1  UNL1       -0.0430
      8  C          7.7390   -0.8250    0.4890 C.2     1  UNL1        0.0080
      9  C          6.8080    1.2180   -0.2330 C.2     1  UNL1        0.0540
     10  C          6.8040   -0.9130    1.4960 C.2     1  UNL1        0.0510
     11  C          5.8600    1.1510    0.7710 C.2     1  UNL1        0.1660
     12  C          5.8550    0.0860    1.6390 C.2     1  UNL1        0.1650
     13  O          4.8260    2.0030    1.1170 O.2     1  UNL1       -0.4540
     14  O          4.7990    0.2950    2.5270 O.2     1  UNL1       -0.4540
     15  C          3.9600    1.3120    2.0300 C.3     1  UNL1        0.4680
@<TRIPOS>BOND
     1     5     4    1
     2     4     2    1
     3     2     3    2
     4     2     1    1
     5     1     6    1
     6     6     7    1
     7     7     9    2
     8     7     8    1
     9     9    11    1
    10     8    10    2
    11    11    13    1
    12    11    12    2
    13    13    15    1
    14    10    12    1
    15    12    14    1
    16    15    14    1
