@<TRIPOS>MOLECULE
/home/cewinharhar/GITHUB/reincatalyze/data/processed/docking_pred/2023-May-17-1006_maxeplen10_maxtrainstep1000_seadep16_gamma099_lrac9e-4_lrcr1e-3_sub6/7c86502248d8ce059d377094dc2c2500eee92fd7_ligand_6.pdbqt
 15 16 0 0 0
SMALL
GASTEIGER

@<TRIPOS>ATOM
      1  C          6.4070    1.3360    0.6270 C.3     1  UNL1        0.1270
      2  C          5.1880    1.3500    1.4210 C.2     1  UNL1        0.3030
      3  O          4.2660    2.1590    1.3030 O.2     1  UNL1       -0.2520
      4  O          5.0490    0.3590    2.4050 O.3     1  UNL1       -0.4810
      5  H          5.8570   -0.2190    2.5720 H       1  UNL1        0.2960
      6  C          6.2190    0.8420   -0.7540 C.3     1  UNL1        0.0470
      7  C          6.9760   -0.3450   -1.1570 C.2     1  UNL1       -0.0430
      8  C          7.2780   -0.5940   -2.4870 C.2     1  UNL1        0.0080
      9  C          7.3760   -1.2690   -0.2290 C.2     1  UNL1        0.0540
     10  C          7.9590   -1.7280   -2.8720 C.2     1  UNL1        0.0510
     11  C          8.0610   -2.4140   -0.5920 C.2     1  UNL1        0.1660
     12  C          8.3540   -2.6470   -1.9140 C.2     1  UNL1        0.1650
     13  O          8.5550   -3.4660    0.1590 O.2     1  UNL1       -0.4540
     14  O          9.0390   -3.8620   -1.9670 O.2     1  UNL1       -0.4540
     15  C          8.8990   -4.5340   -0.7360 C.3     1  UNL1        0.4680
@<TRIPOS>BOND
     1    10     8    1
     2    10    12    2
     3     8     7    2
     4    14    12    1
     5    14    15    1
     6    12    11    1
     7     7     6    1
     8     7     9    1
     9     6     1    1
    10    15    13    1
    11    11     9    2
    12    11    13    1
    13     1     2    1
    14     3     2    2
    15     2     4    1
    16     4     5    1
