@<TRIPOS>MOLECULE
/home/cewinharhar/GITHUB/reincatalyze/data/processed/docking_pred/2023-May-17-1006_maxeplen10_maxtrainstep1000_seadep16_gamma099_lrac9e-4_lrcr1e-3_sub6/7d60c2a66717a3f4b6d307e9593656cfb0aaeeb8_ligand_6.pdbqt
 15 16 0 0 0
SMALL
GASTEIGER

@<TRIPOS>ATOM
      1  C          5.4110    2.8680    0.1310 C.3     1  UNL1        0.1270
      2  C          6.2400    3.8480    0.8160 C.2     1  UNL1        0.3030
      3  O          6.8660    4.7610    0.2750 O.2     1  UNL1       -0.2520
      4  O          6.3360    3.7460    2.2120 O.3     1  UNL1       -0.4810
      5  H          5.5570    4.1080    2.7400 H       1  UNL1        0.2960
      6  C          5.3450    1.5570    0.8120 C.3     1  UNL1        0.0470
      7  C          6.1270    0.4580    0.2420 C.2     1  UNL1       -0.0430
      8  C          6.5960   -0.5820    1.0290 C.2     1  UNL1        0.0080
      9  C          6.4530    0.4470   -1.0880 C.2     1  UNL1        0.0540
     10  C          7.3620   -1.5980    0.5020 C.2     1  UNL1        0.0510
     11  C          7.2200   -0.5620   -1.6400 C.2     1  UNL1        0.1660
     12  C          7.6770   -1.5870   -0.8470 C.2     1  UNL1        0.1650
     13  O          7.6650   -0.7760   -2.9330 O.2     1  UNL1       -0.4540
     14  O          8.4120   -2.4390   -1.6740 O.2     1  UNL1       -0.4540
     15  C          8.6770   -1.7930   -2.8980 C.3     1  UNL1        0.4680
@<TRIPOS>BOND
     1    13    15    1
     2    13    11    1
     3    15    14    1
     4    14    12    1
     5    11     9    1
     6    11    12    2
     7     9     7    2
     8    12    10    1
     9     1     6    1
    10     1     2    1
    11     7     6    1
    12     7     8    1
    13     3     2    2
    14    10     8    2
    15     2     4    1
    16     4     5    1
