@<TRIPOS>MOLECULE
/home/cewinharhar/GITHUB/reincatalyze/data/processed/docking_pred/2023-May-17-1006_maxeplen10_maxtrainstep1000_seadep16_gamma099_lrac9e-4_lrcr1e-3_sub6/7d60c2a66717a3f4b6d307e9593656cfb0aaeeb8_ligand_6.pdbqt
 15 16 0 0 0
SMALL
GASTEIGER

@<TRIPOS>ATOM
      1  C          6.4100    1.3430    0.6480 C.3     1  UNL1        0.1270
      2  C          5.1950    1.3410    1.4480 C.2     1  UNL1        0.3030
      3  O          4.2540    2.1270    1.3240 O.2     1  UNL1       -0.2520
      4  O          5.0830    0.3630    2.4480 O.3     1  UNL1       -0.4810
      5  H          4.3730    0.5190    3.1470 H       1  UNL1        0.2960
      6  C          6.2190    0.8530   -0.7340 C.3     1  UNL1        0.0470
      7  C          6.9790   -0.3300   -1.1440 C.2     1  UNL1       -0.0430
      8  C          7.2950   -0.5630   -2.4730 C.2     1  UNL1        0.0080
      9  C          7.3690   -1.2660   -0.2230 C.2     1  UNL1        0.0540
     10  C          7.9790   -1.6920   -2.8650 C.2     1  UNL1        0.0510
     11  C          8.0560   -2.4060   -0.5930 C.2     1  UNL1        0.1660
     12  C          8.3640   -2.6240   -1.9140 C.2     1  UNL1        0.1650
     13  O          8.5420   -3.4680    0.1510 O.2     1  UNL1       -0.4540
     14  O          9.0480   -3.8390   -1.9740 O.2     1  UNL1       -0.4540
     15  C          8.8950   -4.5260   -0.7530 C.3     1  UNL1        0.4680
@<TRIPOS>BOND
     1    10     8    1
     2    10    12    2
     3     8     7    2
     4    14    12    1
     5    14    15    1
     6    12    11    1
     7     7     6    1
     8     7     9    1
     9    15    13    1
    10     6     1    1
    11    11     9    2
    12    11    13    1
    13     1     2    1
    14     3     2    2
    15     2     4    1
    16     4     5    1
