MODEL 1
REMARK VINA RESULT:      -7.7      0.000      0.000
REMARK SMILES O=C(O)CCc1ccc2c(c1)OCO2
REMARK SMILES IDX 4 1 2 2 1 3 3 4 5 6 6 7 7 8 11 9 8 10 10 11 9 12 12 13 14 14
REMARK SMILES IDX 13 15
REMARK H PARENT 3 5
REMARK Flexibility Score: inf
ROOT
ATOM      1  C   UNL     1       5.411   2.868   0.131  1.00  0.00     0.127 C 
ENDROOT
BRANCH   1   2
ATOM      2  C   UNL     1       6.240   3.848   0.816  1.00  0.00     0.303 C 
ATOM      3  O   UNL     1       6.866   4.761   0.275  1.00  0.00    -0.252 OA
BRANCH   2   4
ATOM      4  O   UNL     1       6.336   3.746   2.212  1.00  0.00    -0.481 OA
ATOM      5  H   UNL     1       5.557   4.108   2.740  1.00  0.00     0.296 HD
ENDBRANCH   2   4
ENDBRANCH   1   2
BRANCH   1   6
ATOM      6  C   UNL     1       5.345   1.557   0.812  1.00  0.00     0.047 C 
BRANCH   6   7
ATOM      7  C   UNL     1       6.127   0.458   0.242  1.00  0.00    -0.043 A 
ATOM      8  C   UNL     1       6.596  -0.582   1.029  1.00  0.00     0.008 A 
ATOM      9  C   UNL     1       6.453   0.447  -1.088  1.00  0.00     0.054 A 
ATOM     10  C   UNL     1       7.362  -1.598   0.502  1.00  0.00     0.051 A 
ATOM     11  C   UNL     1       7.220  -0.562  -1.640  1.00  0.00     0.166 A 
ATOM     12  C   UNL     1       7.677  -1.587  -0.847  1.00  0.00     0.165 A 
ATOM     13  O   UNL     1       7.665  -0.776  -2.933  1.00  0.00    -0.454 OA
ATOM     14  O   UNL     1       8.412  -2.439  -1.674  1.00  0.00    -0.454 OA
ATOM     15  C   UNL     1       8.677  -1.793  -2.898  1.00  0.00     0.468 C 
ENDBRANCH   6   7
ENDBRANCH   1   6
TORSDOF 4
ENDMDL
MODEL 2
REMARK VINA RESULT:      -7.6      2.120      2.507
REMARK SMILES O=C(O)CCc1ccc2c(c1)OCO2
REMARK SMILES IDX 4 1 2 2 1 3 3 4 5 6 6 7 7 8 11 9 8 10 10 11 9 12 12 13 14 14
REMARK SMILES IDX 13 15
REMARK H PARENT 3 5
REMARK Flexibility Score: inf
ROOT
ATOM      1  C   UNL     1       4.696   1.869   0.680  1.00  0.00     0.127 C 
ENDROOT
BRANCH   1   2
ATOM      2  C   UNL     1       4.406   1.159   1.916  1.00  0.00     0.303 C 
ATOM      3  O   UNL     1       5.145   0.338   2.462  1.00  0.00    -0.252 OA
BRANCH   2   4
ATOM      4  O   UNL     1       3.181   1.432   2.544  1.00  0.00    -0.481 OA
ATOM      5  H   UNL     1       3.150   2.258   3.121  1.00  0.00     0.296 HD
ENDBRANCH   2   4
ENDBRANCH   1   2
BRANCH   1   6
ATOM      6  C   UNL     1       6.119   2.240   0.520  1.00  0.00     0.047 C 
BRANCH   6   7
ATOM      7  C   UNL     1       6.973   1.331  -0.246  1.00  0.00    -0.043 A 
ATOM      8  C   UNL     1       8.336   1.554  -0.376  1.00  0.00     0.008 A 
ATOM      9  C   UNL     1       6.441   0.249  -0.895  1.00  0.00     0.054 A 
ATOM     10  C   UNL     1       9.135   0.720  -1.126  1.00  0.00     0.051 A 
ATOM     11  C   UNL     1       7.223  -0.601  -1.653  1.00  0.00     0.166 A 
ATOM     12  C   UNL     1       8.572  -0.369  -1.771  1.00  0.00     0.165 A 
ATOM     13  O   UNL     1       6.908  -1.735  -2.382  1.00  0.00    -0.454 OA
ATOM     14  O   UNL     1       9.085  -1.379  -2.586  1.00  0.00    -0.454 OA
ATOM     15  C   UNL     1       8.025  -2.051  -3.226  1.00  0.00     0.468 C 
ENDBRANCH   6   7
ENDBRANCH   1   6
TORSDOF 4
ENDMDL
MODEL 3
REMARK VINA RESULT:      -7.5      1.960      2.868
REMARK SMILES O=C(O)CCc1ccc2c(c1)OCO2
REMARK SMILES IDX 4 1 2 2 1 3 3 4 5 6 6 7 7 8 11 9 8 10 10 11 9 12 12 13 14 14
REMARK SMILES IDX 13 15
REMARK H PARENT 3 5
REMARK Flexibility Score: inf
ROOT
ATOM      1  C   UNL     1       6.410   1.343   0.648  1.00  0.00     0.127 C 
ENDROOT
BRANCH   1   2
ATOM      2  C   UNL     1       5.195   1.341   1.448  1.00  0.00     0.303 C 
ATOM      3  O   UNL     1       4.254   2.127   1.324  1.00  0.00    -0.252 OA
BRANCH   2   4
ATOM      4  O   UNL     1       5.083   0.363   2.448  1.00  0.00    -0.481 OA
ATOM      5  H   UNL     1       4.373   0.519   3.147  1.00  0.00     0.296 HD
ENDBRANCH   2   4
ENDBRANCH   1   2
BRANCH   1   6
ATOM      6  C   UNL     1       6.219   0.853  -0.734  1.00  0.00     0.047 C 
BRANCH   6   7
ATOM      7  C   UNL     1       6.979  -0.330  -1.144  1.00  0.00    -0.043 A 
ATOM      8  C   UNL     1       7.295  -0.563  -2.473  1.00  0.00     0.008 A 
ATOM      9  C   UNL     1       7.369  -1.266  -0.223  1.00  0.00     0.054 A 
ATOM     10  C   UNL     1       7.979  -1.692  -2.865  1.00  0.00     0.051 A 
ATOM     11  C   UNL     1       8.056  -2.406  -0.593  1.00  0.00     0.166 A 
ATOM     12  C   UNL     1       8.364  -2.624  -1.914  1.00  0.00     0.165 A 
ATOM     13  O   UNL     1       8.542  -3.468   0.151  1.00  0.00    -0.454 OA
ATOM     14  O   UNL     1       9.048  -3.839  -1.974  1.00  0.00    -0.454 OA
ATOM     15  C   UNL     1       8.895  -4.526  -0.753  1.00  0.00     0.468 C 
ENDBRANCH   6   7
ENDBRANCH   1   6
TORSDOF 4
ENDMDL
MODEL 4
REMARK VINA RESULT:      -7.5      1.796      5.287
REMARK SMILES O=C(O)CCc1ccc2c(c1)OCO2
REMARK SMILES IDX 4 1 2 2 1 3 3 4 5 6 6 7 7 8 11 9 8 10 10 11 9 12 12 13 14 14
REMARK SMILES IDX 13 15
REMARK H PARENT 3 5
REMARK Flexibility Score: inf
ROOT
ATOM      1  C   UNL     1       8.301  -0.318  -2.822  1.00  0.00     0.127 C 
ENDROOT
BRANCH   1   2
ATOM      2  C   UNL     1       8.468  -1.743  -3.058  1.00  0.00     0.303 C 
ATOM      3  O   UNL     1       9.537  -2.355  -3.028  1.00  0.00    -0.252 OA
BRANCH   2   4
ATOM      4  O   UNL     1       7.313  -2.488  -3.345  1.00  0.00    -0.481 OA
ATOM      5  H   UNL     1       7.369  -3.480  -3.175  1.00  0.00     0.296 HD
ENDBRANCH   2   4
ENDBRANCH   1   2
BRANCH   1   6
ATOM      6  C   UNL     1       8.759   0.127  -1.488  1.00  0.00     0.047 C 
BRANCH   6   7
ATOM      7  C   UNL     1       7.786   0.095  -0.393  1.00  0.00    -0.043 A 
ATOM      8  C   UNL     1       7.741  -0.959   0.505  1.00  0.00     0.008 A 
ATOM      9  C   UNL     1       6.862   1.096  -0.249  1.00  0.00     0.054 A 
ATOM     10  C   UNL     1       6.804  -1.008   1.513  1.00  0.00     0.051 A 
ATOM     11  C   UNL     1       5.913   1.068   0.755  1.00  0.00     0.166 A 
ATOM     12  C   UNL     1       5.880   0.017   1.640  1.00  0.00     0.165 A 
ATOM     13  O   UNL     1       4.900   1.951   1.087  1.00  0.00    -0.454 OA
ATOM     14  O   UNL     1       4.830   0.266   2.524  1.00  0.00    -0.454 OA
ATOM     15  C   UNL     1       4.017   1.296   2.010  1.00  0.00     0.468 C 
ENDBRANCH   6   7
ENDBRANCH   1   6
TORSDOF 4
ENDMDL
