@<TRIPOS>MOLECULE
/home/cewinharhar/GITHUB/reincatalyze/data/processed/docking_pred/2023-May-17-1006_maxeplen10_maxtrainstep1000_seadep16_gamma099_lrac9e-4_lrcr1e-3_sub6/7d60c2a66717a3f4b6d307e9593656cfb0aaeeb8_ligand_6.pdbqt
 15 16 0 0 0
SMALL
GASTEIGER

@<TRIPOS>ATOM
      1  C          8.3010   -0.3180   -2.8220 C.3     1  UNL1        0.1270
      2  C          8.4680   -1.7430   -3.0580 C.2     1  UNL1        0.3030
      3  O          9.5370   -2.3550   -3.0280 O.2     1  UNL1       -0.2520
      4  O          7.3130   -2.4880   -3.3450 O.3     1  UNL1       -0.4810
      5  H          7.3690   -3.4800   -3.1750 H       1  UNL1        0.2960
      6  C          8.7590    0.1270   -1.4880 C.3     1  UNL1        0.0470
      7  C          7.7860    0.0950   -0.3930 C.2     1  UNL1       -0.0430
      8  C          7.7410   -0.9590    0.5050 C.2     1  UNL1        0.0080
      9  C          6.8620    1.0960   -0.2490 C.2     1  UNL1        0.0540
     10  C          6.8040   -1.0080    1.5130 C.2     1  UNL1        0.0510
     11  C          5.9130    1.0680    0.7550 C.2     1  UNL1        0.1660
     12  C          5.8800    0.0170    1.6400 C.2     1  UNL1        0.1650
     13  O          4.9000    1.9510    1.0870 O.2     1  UNL1       -0.4540
     14  O          4.8300    0.2660    2.5240 O.2     1  UNL1       -0.4540
     15  C          4.0170    1.2960    2.0100 C.3     1  UNL1        0.4680
@<TRIPOS>BOND
     1     4     5    1
     2     4     2    1
     3     2     3    2
     4     2     1    1
     5     1     6    1
     6     6     7    1
     7     7     9    2
     8     7     8    1
     9     9    11    1
    10     8    10    2
    11    11    13    1
    12    11    12    2
    13    13    15    1
    14    10    12    1
    15    12    14    1
    16    15    14    1
