@<TRIPOS>MOLECULE
/home/cewinharhar/GITHUB/reincatalyze/data/processed/docking_pred/2023-May-17-1006_maxeplen10_maxtrainstep1000_seadep16_gamma099_lrac9e-4_lrcr1e-3_sub6/7d60c2a66717a3f4b6d307e9593656cfb0aaeeb8_ligand_6.pdbqt
 15 16 0 0 0
SMALL
GASTEIGER

@<TRIPOS>ATOM
      1  C          8.3120   -0.3190   -2.8440 C.3     1  UNL1        0.1270
      2  C          8.4690   -1.7470   -3.0670 C.2     1  UNL1        0.3030
      3  O          9.5350   -2.3660   -3.0330 O.2     1  UNL1       -0.2520
      4  O          7.3100   -2.4880   -3.3450 O.3     1  UNL1       -0.4810
      5  H          6.4650   -1.9550   -3.4890 H       1  UNL1        0.2960
      6  C          8.7650    0.1340   -1.5110 C.3     1  UNL1        0.0470
      7  C          7.7930    0.0970   -0.4170 C.2     1  UNL1       -0.0430
      8  C          7.7380   -0.9680    0.4690 C.2     1  UNL1        0.0080
      9  C          6.8770    1.1030   -0.2600 C.2     1  UNL1        0.0540
     10  C          6.8010   -1.0220    1.4760 C.2     1  UNL1        0.0510
     11  C          5.9280    1.0710    0.7440 C.2     1  UNL1        0.1660
     12  C          5.8860    0.0090    1.6150 C.2     1  UNL1        0.1650
     13  O          4.9230    1.9590    1.0880 O.2     1  UNL1       -0.4540
     14  O          4.8380    0.2570    2.5030 O.2     1  UNL1       -0.4540
     15  C          4.0340    1.3000    2.0020 C.3     1  UNL1        0.4680
@<TRIPOS>BOND
     1     5     4    1
     2     4     2    1
     3     2     3    2
     4     2     1    1
     5     1     6    1
     6     6     7    1
     7     7     9    2
     8     7     8    1
     9     9    11    1
    10     8    10    2
    11    11    13    1
    12    11    12    2
    13    13    15    1
    14    10    12    1
    15    12    14    1
    16    15    14    1
