@<TRIPOS>MOLECULE
/home/cewinharhar/GITHUB/reincatalyze/data/processed/docking_pred/2023-May-17-1006_maxeplen10_maxtrainstep1000_seadep16_gamma099_lrac9e-4_lrcr1e-3_sub6/7d60c2a66717a3f4b6d307e9593656cfb0aaeeb8_ligand_6.pdbqt
 15 16 0 0 0
SMALL
GASTEIGER

@<TRIPOS>ATOM
      1  C          4.6960    1.8690    0.6800 C.3     1  UNL1        0.1270
      2  C          4.4060    1.1590    1.9160 C.2     1  UNL1        0.3030
      3  O          5.1450    0.3380    2.4620 O.2     1  UNL1       -0.2520
      4  O          3.1810    1.4320    2.5440 O.3     1  UNL1       -0.4810
      5  H          3.1500    2.2580    3.1210 H       1  UNL1        0.2960
      6  C          6.1190    2.2400    0.5200 C.3     1  UNL1        0.0470
      7  C          6.9730    1.3310   -0.2460 C.2     1  UNL1       -0.0430
      8  C          8.3360    1.5540   -0.3760 C.2     1  UNL1        0.0080
      9  C          6.4410    0.2490   -0.8950 C.2     1  UNL1        0.0540
     10  C          9.1350    0.7200   -1.1260 C.2     1  UNL1        0.0510
     11  C          7.2230   -0.6010   -1.6530 C.2     1  UNL1        0.1660
     12  C          8.5720   -0.3690   -1.7710 C.2     1  UNL1        0.1650
     13  O          6.9080   -1.7350   -2.3820 O.2     1  UNL1       -0.4540
     14  O          9.0850   -1.3790   -2.5860 O.2     1  UNL1       -0.4540
     15  C          8.0250   -2.0510   -3.2260 C.3     1  UNL1        0.4680
@<TRIPOS>BOND
     1    15    14    1
     2    15    13    1
     3    14    12    1
     4    13    11    1
     5    12    11    2
     6    12    10    1
     7    11     9    1
     8    10     8    2
     9     9     7    2
    10     8     7    1
    11     7     6    1
    12     6     1    1
    13     1     2    1
    14     2     3    2
    15     2     4    1
    16     4     5    1
