@<TRIPOS>MOLECULE
/home/cewinharhar/GITHUB/reincatalyze/data/processed/docking_pred/2023-May-17-1006_maxeplen10_maxtrainstep1000_seadep16_gamma099_lrac9e-4_lrcr1e-3_sub6/7e2b2812a39c1bf8d23d6aab3a18bb39f1acac0e_ligand_6.pdbqt
 15 16 0 0 0
SMALL
GASTEIGER

@<TRIPOS>ATOM
      1  C          5.4100    2.8730    0.1190 C.3     1  UNL1        0.1270
      2  C          6.2390    3.8520    0.8040 C.2     1  UNL1        0.3030
      3  O          6.8600    4.7690    0.2640 O.2     1  UNL1       -0.2520
      4  O          6.3420    3.7450    2.2000 O.3     1  UNL1       -0.4810
      5  H          5.9470    2.9140    2.6130 H       1  UNL1        0.2960
      6  C          5.3370    1.5640    0.8030 C.3     1  UNL1        0.0470
      7  C          6.1210    0.4620    0.2420 C.2     1  UNL1       -0.0430
      8  C          6.5920   -0.5710    1.0380 C.2     1  UNL1        0.0080
      9  C          6.4450    0.4390   -1.0880 C.2     1  UNL1        0.0540
     10  C          7.3600   -1.5890    0.5190 C.2     1  UNL1        0.0510
     11  C          7.2130   -0.5730   -1.6320 C.2     1  UNL1        0.1660
     12  C          7.6730   -1.5900   -0.8310 C.2     1  UNL1        0.1650
     13  O          7.6560   -0.7980   -2.9230 O.2     1  UNL1       -0.4540
     14  O          8.4080   -2.4480   -1.6510 O.2     1  UNL1       -0.4540
     15  C          8.6710   -1.8120   -2.8800 C.3     1  UNL1        0.4680
@<TRIPOS>BOND
     1    13    15    1
     2    13    11    1
     3    15    14    1
     4    14    12    1
     5    11     9    1
     6    11    12    2
     7     9     7    2
     8    12    10    1
     9     1     6    1
    10     1     2    1
    11     7     6    1
    12     7     8    1
    13     3     2    2
    14    10     8    2
    15     2     4    1
    16     4     5    1
