MODEL 1
REMARK VINA RESULT:      -7.7      0.000      0.000
REMARK SMILES O=C(O)CCc1ccc2c(c1)OCO2
REMARK SMILES IDX 4 1 2 2 1 3 3 4 5 6 6 7 7 8 11 9 8 10 10 11 9 12 12 13 14 14
REMARK SMILES IDX 13 15
REMARK H PARENT 3 5
REMARK Flexibility Score: inf
ROOT
ATOM      1  C   UNL     1       5.410   2.873   0.119  1.00  0.00     0.127 C 
ENDROOT
BRANCH   1   2
ATOM      2  C   UNL     1       6.239   3.852   0.804  1.00  0.00     0.303 C 
ATOM      3  O   UNL     1       6.860   4.769   0.264  1.00  0.00    -0.252 OA
BRANCH   2   4
ATOM      4  O   UNL     1       6.342   3.745   2.200  1.00  0.00    -0.481 OA
ATOM      5  H   UNL     1       5.947   2.914   2.613  1.00  0.00     0.296 HD
ENDBRANCH   2   4
ENDBRANCH   1   2
BRANCH   1   6
ATOM      6  C   UNL     1       5.337   1.564   0.803  1.00  0.00     0.047 C 
BRANCH   6   7
ATOM      7  C   UNL     1       6.121   0.462   0.242  1.00  0.00    -0.043 A 
ATOM      8  C   UNL     1       6.592  -0.571   1.038  1.00  0.00     0.008 A 
ATOM      9  C   UNL     1       6.445   0.439  -1.088  1.00  0.00     0.054 A 
ATOM     10  C   UNL     1       7.360  -1.589   0.519  1.00  0.00     0.051 A 
ATOM     11  C   UNL     1       7.213  -0.573  -1.632  1.00  0.00     0.166 A 
ATOM     12  C   UNL     1       7.673  -1.590  -0.831  1.00  0.00     0.165 A 
ATOM     13  O   UNL     1       7.656  -0.798  -2.923  1.00  0.00    -0.454 OA
ATOM     14  O   UNL     1       8.408  -2.448  -1.651  1.00  0.00    -0.454 OA
ATOM     15  C   UNL     1       8.671  -1.812  -2.880  1.00  0.00     0.468 C 
ENDBRANCH   6   7
ENDBRANCH   1   6
TORSDOF 4
ENDMDL
MODEL 2
REMARK VINA RESULT:      -7.6      2.127      2.509
REMARK SMILES O=C(O)CCc1ccc2c(c1)OCO2
REMARK SMILES IDX 4 1 2 2 1 3 3 4 5 6 6 7 7 8 11 9 8 10 10 11 9 12 12 13 14 14
REMARK SMILES IDX 13 15
REMARK H PARENT 3 5
REMARK Flexibility Score: inf
ROOT
ATOM      1  C   UNL     1       4.707   1.888   0.685  1.00  0.00     0.127 C 
ENDROOT
BRANCH   1   2
ATOM      2  C   UNL     1       4.404   1.168   1.912  1.00  0.00     0.303 C 
ATOM      3  O   UNL     1       5.132   0.335   2.454  1.00  0.00    -0.252 OA
BRANCH   2   4
ATOM      4  O   UNL     1       3.176   1.445   2.535  1.00  0.00    -0.481 OA
ATOM      5  H   UNL     1       2.363   1.436   1.940  1.00  0.00     0.296 HD
ENDBRANCH   2   4
ENDBRANCH   1   2
BRANCH   1   6
ATOM      6  C   UNL     1       6.134   2.243   0.535  1.00  0.00     0.047 C 
BRANCH   6   7
ATOM      7  C   UNL     1       6.981   1.333  -0.239  1.00  0.00    -0.043 A 
ATOM      8  C   UNL     1       8.345   1.544  -0.368  1.00  0.00     0.008 A 
ATOM      9  C   UNL     1       6.438   0.260  -0.896  1.00  0.00     0.054 A 
ATOM     10  C   UNL     1       9.136   0.709  -1.125  1.00  0.00     0.051 A 
ATOM     11  C   UNL     1       7.212  -0.591  -1.661  1.00  0.00     0.166 A 
ATOM     12  C   UNL     1       8.563  -0.370  -1.779  1.00  0.00     0.165 A 
ATOM     13  O   UNL     1       6.887  -1.716  -2.398  1.00  0.00    -0.454 OA
ATOM     14  O   UNL     1       9.067  -1.378  -2.602  1.00  0.00    -0.454 OA
ATOM     15  C   UNL     1       8.000  -2.036  -3.246  1.00  0.00     0.468 C 
ENDBRANCH   6   7
ENDBRANCH   1   6
TORSDOF 4
ENDMDL
MODEL 3
REMARK VINA RESULT:      -7.5      1.800      5.280
REMARK SMILES O=C(O)CCc1ccc2c(c1)OCO2
REMARK SMILES IDX 4 1 2 2 1 3 3 4 5 6 6 7 7 8 11 9 8 10 10 11 9 12 12 13 14 14
REMARK SMILES IDX 13 15
REMARK H PARENT 3 5
REMARK Flexibility Score: inf
ROOT
ATOM      1  C   UNL     1       8.297  -0.313  -2.837  1.00  0.00     0.127 C 
ENDROOT
BRANCH   1   2
ATOM      2  C   UNL     1       8.464  -1.740  -3.062  1.00  0.00     0.303 C 
ATOM      3  O   UNL     1       9.532  -2.353  -3.018  1.00  0.00    -0.252 OA
BRANCH   2   4
ATOM      4  O   UNL     1       7.311  -2.486  -3.353  1.00  0.00    -0.481 OA
ATOM      5  H   UNL     1       6.984  -3.103  -2.626  1.00  0.00     0.296 HD
ENDBRANCH   2   4
ENDBRANCH   1   2
BRANCH   1   6
ATOM      6  C   UNL     1       8.760   0.144  -1.509  1.00  0.00     0.047 C 
BRANCH   6   7
ATOM      7  C   UNL     1       7.795   0.110  -0.407  1.00  0.00    -0.043 A 
ATOM      8  C   UNL     1       7.770  -0.936   0.502  1.00  0.00     0.008 A 
ATOM      9  C   UNL     1       6.859   1.099  -0.266  1.00  0.00     0.054 A 
ATOM     10  C   UNL     1       6.841  -0.987   1.517  1.00  0.00     0.051 A 
ATOM     11  C   UNL     1       5.917   1.069   0.745  1.00  0.00     0.166 A 
ATOM     12  C   UNL     1       5.904   0.027   1.640  1.00  0.00     0.165 A 
ATOM     13  O   UNL     1       4.895   1.943   1.075  1.00  0.00    -0.454 OA
ATOM     14  O   UNL     1       4.856   0.271   2.528  1.00  0.00    -0.454 OA
ATOM     15  C   UNL     1       4.027   1.285   2.010  1.00  0.00     0.468 C 
ENDBRANCH   6   7
ENDBRANCH   1   6
TORSDOF 4
ENDMDL
MODEL 4
REMARK VINA RESULT:      -7.5      0.943      2.112
REMARK SMILES O=C(O)CCc1ccc2c(c1)OCO2
REMARK SMILES IDX 4 1 2 2 1 3 3 4 5 6 6 7 7 8 11 9 8 10 10 11 9 12 12 13 14 14
REMARK SMILES IDX 13 15
REMARK H PARENT 3 5
REMARK Flexibility Score: inf
ROOT
ATOM      1  C   UNL     1       5.403   2.819   0.109  1.00  0.00     0.127 C 
ENDROOT
BRANCH   1   2
ATOM      2  C   UNL     1       6.200   3.772   0.866  1.00  0.00     0.303 C 
ATOM      3  O   UNL     1       6.343   3.775   2.090  1.00  0.00    -0.252 OA
BRANCH   2   4
ATOM      4  O   UNL     1       6.865   4.775   0.143  1.00  0.00    -0.481 OA
ATOM      5  H   UNL     1       6.799   5.710   0.515  1.00  0.00     0.296 HD
ENDBRANCH   2   4
ENDBRANCH   1   2
BRANCH   1   6
ATOM      6  C   UNL     1       5.355   1.468   0.707  1.00  0.00     0.047 C 
BRANCH   6   7
ATOM      7  C   UNL     1       6.214   0.437   0.121  1.00  0.00    -0.043 A 
ATOM      8  C   UNL     1       6.530   0.437  -1.229  1.00  0.00     0.008 A 
ATOM      9  C   UNL     1       6.703  -0.587   0.889  1.00  0.00     0.054 A 
ATOM     10  C   UNL     1       7.308  -0.552  -1.788  1.00  0.00     0.051 A 
ATOM     11  C   UNL     1       7.486  -1.589   0.350  1.00  0.00     0.166 A 
ATOM     12  C   UNL     1       7.792  -1.576  -0.990  1.00  0.00     0.165 A 
ATOM     13  O   UNL     1       8.079  -2.701   0.923  1.00  0.00    -0.454 OA
ATOM     14  O   UNL     1       8.584  -2.699  -1.234  1.00  0.00    -0.454 OA
ATOM     15  C   UNL     1       8.513  -3.573  -0.131  1.00  0.00     0.468 C 
ENDBRANCH   6   7
ENDBRANCH   1   6
TORSDOF 4
ENDMDL
MODEL 5
REMARK VINA RESULT:      -7.4      1.958      2.853
REMARK SMILES O=C(O)CCc1ccc2c(c1)OCO2
REMARK SMILES IDX 4 1 2 2 1 3 3 4 5 6 6 7 7 8 11 9 8 10 10 11 9 12 12 13 14 14
REMARK SMILES IDX 13 15
REMARK H PARENT 3 5
REMARK Flexibility Score: inf
ROOT
ATOM      1  C   UNL     1       6.444   1.295   0.791  1.00  0.00     0.127 C 
ENDROOT
BRANCH   1   2
ATOM      2  C   UNL     1       5.175   1.328   1.500  1.00  0.00     0.303 C 
ATOM      3  O   UNL     1       4.274   2.149   1.319  1.00  0.00    -0.252 OA
BRANCH   2   4
ATOM      4  O   UNL     1       4.954   0.342   2.474  1.00  0.00    -0.481 OA
ATOM      5  H   UNL     1       4.086   0.404   2.982  1.00  0.00     0.296 HD
ENDBRANCH   2   4
ENDBRANCH   1   2
BRANCH   1   6
ATOM      6  C   UNL     1       6.324   0.941  -0.640  1.00  0.00     0.047 C 
BRANCH   6   7
ATOM      7  C   UNL     1       7.038  -0.250  -1.105  1.00  0.00    -0.043 A 
ATOM      8  C   UNL     1       7.280  -0.470  -2.453  1.00  0.00     0.008 A 
ATOM      9  C   UNL     1       7.455  -1.207  -0.219  1.00  0.00     0.054 A 
ATOM     10  C   UNL     1       7.919  -1.607  -2.895  1.00  0.00     0.051 A 
ATOM     11  C   UNL     1       8.099  -2.356  -0.640  1.00  0.00     0.166 A 
ATOM     12  C   UNL     1       8.333  -2.559  -1.978  1.00  0.00     0.165 A 
ATOM     13  O   UNL     1       8.600  -3.438   0.063  1.00  0.00    -0.454 OA
ATOM     14  O   UNL     1       8.988  -3.787  -2.090  1.00  0.00    -0.454 OA
ATOM     15  C   UNL     1       8.884  -4.489  -0.873  1.00  0.00     0.468 C 
ENDBRANCH   6   7
ENDBRANCH   1   6
TORSDOF 4
ENDMDL
