@<TRIPOS>MOLECULE
/home/cewinharhar/GITHUB/reincatalyze/data/processed/docking_pred/2023-May-17-1006_maxeplen10_maxtrainstep1000_seadep16_gamma099_lrac9e-4_lrcr1e-3_sub6/7e2b2812a39c1bf8d23d6aab3a18bb39f1acac0e_ligand_6.pdbqt
 15 16 0 0 0
SMALL
GASTEIGER

@<TRIPOS>ATOM
      1  C          8.2970   -0.3130   -2.8370 C.3     1  UNL1        0.1270
      2  C          8.4640   -1.7400   -3.0620 C.2     1  UNL1        0.3030
      3  O          9.5320   -2.3530   -3.0180 O.2     1  UNL1       -0.2520
      4  O          7.3110   -2.4860   -3.3530 O.3     1  UNL1       -0.4810
      5  H          6.9840   -3.1030   -2.6260 H       1  UNL1        0.2960
      6  C          8.7600    0.1440   -1.5090 C.3     1  UNL1        0.0470
      7  C          7.7950    0.1100   -0.4070 C.2     1  UNL1       -0.0430
      8  C          7.7700   -0.9360    0.5020 C.2     1  UNL1        0.0080
      9  C          6.8590    1.0990   -0.2660 C.2     1  UNL1        0.0540
     10  C          6.8410   -0.9870    1.5170 C.2     1  UNL1        0.0510
     11  C          5.9170    1.0690    0.7450 C.2     1  UNL1        0.1660
     12  C          5.9040    0.0270    1.6400 C.2     1  UNL1        0.1650
     13  O          4.8950    1.9430    1.0750 O.2     1  UNL1       -0.4540
     14  O          4.8560    0.2710    2.5280 O.2     1  UNL1       -0.4540
     15  C          4.0270    1.2850    2.0100 C.3     1  UNL1        0.4680
@<TRIPOS>BOND
     1     4     2    1
     2     4     5    1
     3     2     3    2
     4     2     1    1
     5     1     6    1
     6     6     7    1
     7     7     9    2
     8     7     8    1
     9     9    11    1
    10     8    10    2
    11    11    13    1
    12    11    12    2
    13    13    15    1
    14    10    12    1
    15    12    14    1
    16    15    14    1
