@<TRIPOS>MOLECULE
/home/cewinharhar/GITHUB/reincatalyze/data/processed/docking_pred/2023-May-17-1006_maxeplen10_maxtrainstep1000_seadep16_gamma099_lrac9e-4_lrcr1e-3_sub6/7e2b2812a39c1bf8d23d6aab3a18bb39f1acac0e_ligand_6.pdbqt
 15 16 0 0 0
SMALL
GASTEIGER

@<TRIPOS>ATOM
      1  C          6.4440    1.2950    0.7910 C.3     1  UNL1        0.1270
      2  C          5.1750    1.3280    1.5000 C.2     1  UNL1        0.3030
      3  O          4.2740    2.1490    1.3190 O.2     1  UNL1       -0.2520
      4  O          4.9540    0.3420    2.4740 O.3     1  UNL1       -0.4810
      5  H          4.0860    0.4040    2.9820 H       1  UNL1        0.2960
      6  C          6.3240    0.9410   -0.6400 C.3     1  UNL1        0.0470
      7  C          7.0380   -0.2500   -1.1050 C.2     1  UNL1       -0.0430
      8  C          7.2800   -0.4700   -2.4530 C.2     1  UNL1        0.0080
      9  C          7.4550   -1.2070   -0.2190 C.2     1  UNL1        0.0540
     10  C          7.9190   -1.6070   -2.8950 C.2     1  UNL1        0.0510
     11  C          8.0990   -2.3560   -0.6400 C.2     1  UNL1        0.1660
     12  C          8.3330   -2.5590   -1.9780 C.2     1  UNL1        0.1650
     13  O          8.6000   -3.4380    0.0630 O.2     1  UNL1       -0.4540
     14  O          8.9880   -3.7870   -2.0900 O.2     1  UNL1       -0.4540
     15  C          8.8840   -4.4890   -0.8730 C.3     1  UNL1        0.4680
@<TRIPOS>BOND
     1    10     8    1
     2    10    12    2
     3     8     7    2
     4    14    12    1
     5    14    15    1
     6    12    11    1
     7     7     6    1
     8     7     9    1
     9    15    13    1
    10     6     1    1
    11    11     9    2
    12    11    13    1
    13     1     2    1
    14     3     2    2
    15     2     4    1
    16     4     5    1
