@<TRIPOS>MOLECULE
/home/cewinharhar/GITHUB/reincatalyze/data/processed/docking_pred/2023-May-17-1006_maxeplen10_maxtrainstep1000_seadep16_gamma099_lrac9e-4_lrcr1e-3_sub6/7e2b2812a39c1bf8d23d6aab3a18bb39f1acac0e_ligand_6.pdbqt
 15 16 0 0 0
SMALL
GASTEIGER

@<TRIPOS>ATOM
      1  C          4.7070    1.8880    0.6850 C.3     1  UNL1        0.1270
      2  C          4.4040    1.1680    1.9120 C.2     1  UNL1        0.3030
      3  O          5.1320    0.3350    2.4540 O.2     1  UNL1       -0.2520
      4  O          3.1760    1.4450    2.5350 O.3     1  UNL1       -0.4810
      5  H          2.3630    1.4360    1.9400 H       1  UNL1        0.2960
      6  C          6.1340    2.2430    0.5350 C.3     1  UNL1        0.0470
      7  C          6.9810    1.3330   -0.2390 C.2     1  UNL1       -0.0430
      8  C          8.3450    1.5440   -0.3680 C.2     1  UNL1        0.0080
      9  C          6.4380    0.2600   -0.8960 C.2     1  UNL1        0.0540
     10  C          9.1360    0.7090   -1.1250 C.2     1  UNL1        0.0510
     11  C          7.2120   -0.5910   -1.6610 C.2     1  UNL1        0.1660
     12  C          8.5630   -0.3700   -1.7790 C.2     1  UNL1        0.1650
     13  O          6.8870   -1.7160   -2.3980 O.2     1  UNL1       -0.4540
     14  O          9.0670   -1.3780   -2.6020 O.2     1  UNL1       -0.4540
     15  C          8.0000   -2.0360   -3.2460 C.3     1  UNL1        0.4680
@<TRIPOS>BOND
     1    15    14    1
     2    15    13    1
     3    14    12    1
     4    13    11    1
     5    12    11    2
     6    12    10    1
     7    11     9    1
     8    10     8    2
     9     9     7    2
    10     8     7    1
    11     7     6    1
    12     6     1    1
    13     1     2    1
    14     2     3    2
    15     2     4    1
    16     5     4    1
