@<TRIPOS>MOLECULE
/home/cewinharhar/GITHUB/reincatalyze/data/processed/docking_pred/2023-May-17-1006_maxeplen10_maxtrainstep1000_seadep16_gamma099_lrac9e-4_lrcr1e-3_sub6/7e2b2812a39c1bf8d23d6aab3a18bb39f1acac0e_ligand_6.pdbqt
 15 16 0 0 0
SMALL
GASTEIGER

@<TRIPOS>ATOM
      1  C          5.4030    2.8190    0.1090 C.3     1  UNL1        0.1270
      2  C          6.2000    3.7720    0.8660 C.2     1  UNL1        0.3030
      3  O          6.3430    3.7750    2.0900 O.2     1  UNL1       -0.2520
      4  O          6.8650    4.7750    0.1430 O.3     1  UNL1       -0.4810
      5  H          6.7990    5.7100    0.5150 H       1  UNL1        0.2960
      6  C          5.3550    1.4680    0.7070 C.3     1  UNL1        0.0470
      7  C          6.2140    0.4370    0.1210 C.2     1  UNL1       -0.0430
      8  C          6.5300    0.4370   -1.2290 C.2     1  UNL1        0.0080
      9  C          6.7030   -0.5870    0.8890 C.2     1  UNL1        0.0540
     10  C          7.3080   -0.5520   -1.7880 C.2     1  UNL1        0.0510
     11  C          7.4860   -1.5890    0.3500 C.2     1  UNL1        0.1660
     12  C          7.7920   -1.5760   -0.9900 C.2     1  UNL1        0.1650
     13  O          8.0790   -2.7010    0.9230 O.2     1  UNL1       -0.4540
     14  O          8.5840   -2.6990   -1.2340 O.2     1  UNL1       -0.4540
     15  C          8.5130   -3.5730   -0.1310 C.3     1  UNL1        0.4680
@<TRIPOS>BOND
     1    10     8    1
     2    10    12    2
     3    14    12    1
     4    14    15    1
     5     8     7    2
     6    12    11    1
     7    15    13    1
     8     1     6    1
     9     1     2    1
    10     7     6    1
    11     7     9    1
    12     4     5    1
    13     4     2    1
    14    11     9    2
    15    11    13    1
    16     2     3    2
