@<TRIPOS>MOLECULE
/home/cewinharhar/GITHUB/reincatalyze/data/processed/docking_pred/2023-May-17-1006_maxeplen10_maxtrainstep1000_seadep16_gamma099_lrac9e-4_lrcr1e-3_sub6/80b3dd8cd2b2e3944ffcf13b099740dfc166ef97_ligand_6.pdbqt
 15 16 0 0 0
SMALL
GASTEIGER

@<TRIPOS>ATOM
      1  C          5.4200    2.8640    0.1280 C.3     1  UNL1        0.1270
      2  C          6.2530    3.8410    0.8130 C.2     1  UNL1        0.3030
      3  O          6.9000    4.7380    0.2700 O.2     1  UNL1       -0.2520
      4  O          6.3280    3.7550    2.2120 O.3     1  UNL1       -0.4810
      5  H          7.2500    3.8350    2.6140 H       1  UNL1        0.2960
      6  C          5.3540    1.5520    0.8060 C.3     1  UNL1        0.0470
      7  C          6.1310    0.4520    0.2300 C.2     1  UNL1       -0.0430
      8  C          6.5810   -0.6030    1.0090 C.2     1  UNL1        0.0080
      9  C          6.4720    0.4550   -1.0970 C.2     1  UNL1        0.0540
     10  C          7.3430   -1.6190    0.4760 C.2     1  UNL1        0.0510
     11  C          7.2350   -0.5540   -1.6530 C.2     1  UNL1        0.1660
     12  C          7.6730   -1.5940   -0.8690 C.2     1  UNL1        0.1650
     13  O          7.6910   -0.7560   -2.9440 O.2     1  UNL1       -0.4540
     14  O          8.4080   -2.4430   -1.6990 O.2     1  UNL1       -0.4540
     15  C          8.6930   -1.7830   -2.9110 C.3     1  UNL1        0.4680
@<TRIPOS>BOND
     1    13    15    1
     2    13    11    1
     3    15    14    1
     4    14    12    1
     5    11     9    1
     6    11    12    2
     7     9     7    2
     8    12    10    1
     9     1     6    1
    10     1     2    1
    11     7     6    1
    12     7     8    1
    13     3     2    2
    14    10     8    2
    15     2     4    1
    16     4     5    1
