MODEL 1
REMARK VINA RESULT:      -7.7      0.000      0.000
REMARK SMILES O=C(O)CCc1ccc2c(c1)OCO2
REMARK SMILES IDX 4 1 2 2 1 3 3 4 5 6 6 7 7 8 11 9 8 10 10 11 9 12 12 13 14 14
REMARK SMILES IDX 13 15
REMARK H PARENT 3 5
REMARK Flexibility Score: inf
ROOT
ATOM      1  C   UNL     1       5.420   2.864   0.128  1.00  0.00     0.127 C 
ENDROOT
BRANCH   1   2
ATOM      2  C   UNL     1       6.253   3.841   0.813  1.00  0.00     0.303 C 
ATOM      3  O   UNL     1       6.900   4.738   0.270  1.00  0.00    -0.252 OA
BRANCH   2   4
ATOM      4  O   UNL     1       6.328   3.755   2.212  1.00  0.00    -0.481 OA
ATOM      5  H   UNL     1       7.250   3.835   2.614  1.00  0.00     0.296 HD
ENDBRANCH   2   4
ENDBRANCH   1   2
BRANCH   1   6
ATOM      6  C   UNL     1       5.354   1.552   0.806  1.00  0.00     0.047 C 
BRANCH   6   7
ATOM      7  C   UNL     1       6.131   0.452   0.230  1.00  0.00    -0.043 A 
ATOM      8  C   UNL     1       6.581  -0.603   1.009  1.00  0.00     0.008 A 
ATOM      9  C   UNL     1       6.472   0.455  -1.097  1.00  0.00     0.054 A 
ATOM     10  C   UNL     1       7.343  -1.619   0.476  1.00  0.00     0.051 A 
ATOM     11  C   UNL     1       7.235  -0.554  -1.653  1.00  0.00     0.166 A 
ATOM     12  C   UNL     1       7.673  -1.594  -0.869  1.00  0.00     0.165 A 
ATOM     13  O   UNL     1       7.691  -0.756  -2.944  1.00  0.00    -0.454 OA
ATOM     14  O   UNL     1       8.408  -2.443  -1.699  1.00  0.00    -0.454 OA
ATOM     15  C   UNL     1       8.693  -1.783  -2.911  1.00  0.00     0.468 C 
ENDBRANCH   6   7
ENDBRANCH   1   6
TORSDOF 4
ENDMDL
MODEL 2
REMARK VINA RESULT:      -7.6      2.132      2.529
REMARK SMILES O=C(O)CCc1ccc2c(c1)OCO2
REMARK SMILES IDX 4 1 2 2 1 3 3 4 5 6 6 7 7 8 11 9 8 10 10 11 9 12 12 13 14 14
REMARK SMILES IDX 13 15
REMARK H PARENT 3 5
REMARK Flexibility Score: inf
ROOT
ATOM      1  C   UNL     1       4.742   1.848   0.720  1.00  0.00     0.127 C 
ENDROOT
BRANCH   1   2
ATOM      2  C   UNL     1       4.415   1.128   1.940  1.00  0.00     0.303 C 
ATOM      3  O   UNL     1       5.126   0.284   2.487  1.00  0.00    -0.252 OA
BRANCH   2   4
ATOM      4  O   UNL     1       3.184   1.419   2.550  1.00  0.00    -0.481 OA
ATOM      5  H   UNL     1       2.494   0.683   2.532  1.00  0.00     0.296 HD
ENDBRANCH   2   4
ENDBRANCH   1   2
BRANCH   1   6
ATOM      6  C   UNL     1       6.174   2.193   0.591  1.00  0.00     0.047 C 
BRANCH   6   7
ATOM      7  C   UNL     1       7.017   1.299  -0.206  1.00  0.00    -0.043 A 
ATOM      8  C   UNL     1       8.370   1.543  -0.379  1.00  0.00     0.008 A 
ATOM      9  C   UNL     1       6.479   0.211  -0.841  1.00  0.00     0.054 A 
ATOM     10  C   UNL     1       9.157   0.723  -1.158  1.00  0.00     0.051 A 
ATOM     11  C   UNL     1       7.249  -0.625  -1.627  1.00  0.00     0.166 A 
ATOM     12  C   UNL     1       8.590  -0.372  -1.788  1.00  0.00     0.165 A 
ATOM     13  O   UNL     1       6.927  -1.761  -2.349  1.00  0.00    -0.454 OA
ATOM     14  O   UNL     1       9.091  -1.372  -2.623  1.00  0.00    -0.454 OA
ATOM     15  C   UNL     1       8.020  -2.058  -3.231  1.00  0.00     0.468 C 
ENDBRANCH   6   7
ENDBRANCH   1   6
TORSDOF 4
ENDMDL
MODEL 3
REMARK VINA RESULT:      -7.4      1.980      2.953
REMARK SMILES O=C(O)CCc1ccc2c(c1)OCO2
REMARK SMILES IDX 4 1 2 2 1 3 3 4 5 6 6 7 7 8 11 9 8 10 10 11 9 12 12 13 14 14
REMARK SMILES IDX 13 15
REMARK H PARENT 3 5
REMARK Flexibility Score: inf
ROOT
ATOM      1  C   UNL     1       6.413   1.327   0.679  1.00  0.00     0.127 C 
ENDROOT
BRANCH   1   2
ATOM      2  C   UNL     1       5.282   1.133   1.573  1.00  0.00     0.303 C 
ATOM      3  O   UNL     1       5.184   0.247   2.424  1.00  0.00    -0.252 OA
BRANCH   2   4
ATOM      4  O   UNL     1       4.208   2.030   1.458  1.00  0.00    -0.481 OA
ATOM      5  H   UNL     1       3.389   1.686   0.981  1.00  0.00     0.296 HD
ENDBRANCH   2   4
ENDBRANCH   1   2
BRANCH   1   6
ATOM      6  C   UNL     1       6.176   0.852  -0.701  1.00  0.00     0.047 C 
BRANCH   6   7
ATOM      7  C   UNL     1       6.952  -0.300  -1.164  1.00  0.00    -0.043 A 
ATOM      8  C   UNL     1       7.273  -0.468  -2.502  1.00  0.00     0.008 A 
ATOM      9  C   UNL     1       7.354  -1.272  -0.286  1.00  0.00     0.054 A 
ATOM     10  C   UNL     1       7.972  -1.569  -2.943  1.00  0.00     0.051 A 
ATOM     11  C   UNL     1       8.057  -2.385  -0.706  1.00  0.00     0.166 A 
ATOM     12  C   UNL     1       8.368  -2.537  -2.035  1.00  0.00     0.165 A 
ATOM     13  O   UNL     1       8.556  -3.473  -0.011  1.00  0.00    -0.454 OA
ATOM     14  O   UNL     1       9.069  -3.739  -2.150  1.00  0.00    -0.454 OA
ATOM     15  C   UNL     1       8.924  -4.483  -0.962  1.00  0.00     0.468 C 
ENDBRANCH   6   7
ENDBRANCH   1   6
TORSDOF 4
ENDMDL
MODEL 4
REMARK VINA RESULT:      -7.4      1.804      5.289
REMARK SMILES O=C(O)CCc1ccc2c(c1)OCO2
REMARK SMILES IDX 4 1 2 2 1 3 3 4 5 6 6 7 7 8 11 9 8 10 10 11 9 12 12 13 14 14
REMARK SMILES IDX 13 15
REMARK H PARENT 3 5
REMARK Flexibility Score: inf
ROOT
ATOM      1  C   UNL     1       8.293  -0.342  -2.855  1.00  0.00     0.127 C 
ENDROOT
BRANCH   1   2
ATOM      2  C   UNL     1       8.468  -1.769  -3.077  1.00  0.00     0.303 C 
ATOM      3  O   UNL     1       9.541  -2.373  -3.045  1.00  0.00    -0.252 OA
BRANCH   2   4
ATOM      4  O   UNL     1       7.317  -2.524  -3.351  1.00  0.00    -0.481 OA
ATOM      5  H   UNL     1       6.490  -2.002  -3.599  1.00  0.00     0.296 HD
ENDBRANCH   2   4
ENDBRANCH   1   2
BRANCH   1   6
ATOM      6  C   UNL     1       8.749   0.119  -1.526  1.00  0.00     0.047 C 
BRANCH   6   7
ATOM      7  C   UNL     1       7.783   0.077  -0.426  1.00  0.00    -0.043 A 
ATOM      8  C   UNL     1       7.741  -0.988   0.460  1.00  0.00     0.008 A 
ATOM      9  C   UNL     1       6.862   1.077  -0.264  1.00  0.00     0.054 A 
ATOM     10  C   UNL     1       6.810  -1.047   1.473  1.00  0.00     0.051 A 
ATOM     11  C   UNL     1       5.918   1.040   0.745  1.00  0.00     0.166 A 
ATOM     12  C   UNL     1       5.889  -0.022   1.617  1.00  0.00     0.165 A 
ATOM     13  O   UNL     1       4.910   1.921   1.093  1.00  0.00    -0.454 OA
ATOM     14  O   UNL     1       4.844   0.219   2.510  1.00  0.00    -0.454 OA
ATOM     15  C   UNL     1       4.031   1.257   2.014  1.00  0.00     0.468 C 
ENDBRANCH   6   7
ENDBRANCH   1   6
TORSDOF 4
ENDMDL
MODEL 5
REMARK VINA RESULT:      -7.4      0.990      2.124
REMARK SMILES O=C(O)CCc1ccc2c(c1)OCO2
REMARK SMILES IDX 4 1 2 2 1 3 3 4 5 6 6 7 7 8 11 9 8 10 10 11 9 12 12 13 14 14
REMARK SMILES IDX 13 15
REMARK H PARENT 3 5
REMARK Flexibility Score: inf
ROOT
ATOM      1  C   UNL     1       5.625   2.674   0.178  1.00  0.00     0.127 C 
ENDROOT
BRANCH   1   2
ATOM      2  C   UNL     1       6.343   3.659   0.973  1.00  0.00     0.303 C 
ATOM      3  O   UNL     1       6.533   3.598   2.189  1.00  0.00    -0.252 OA
BRANCH   2   4
ATOM      4  O   UNL     1       6.864   4.775   0.299  1.00  0.00    -0.481 OA
ATOM      5  H   UNL     1       7.869   4.825   0.232  1.00  0.00     0.296 HD
ENDBRANCH   2   4
ENDBRANCH   1   2
BRANCH   1   6
ATOM      6  C   UNL     1       5.592   1.325   0.780  1.00  0.00     0.047 C 
BRANCH   6   7
ATOM      7  C   UNL     1       6.373   0.272   0.127  1.00  0.00    -0.043 A 
ATOM      8  C   UNL     1       6.501   0.215  -1.252  1.00  0.00     0.008 A 
ATOM      9  C   UNL     1       6.972  -0.715   0.864  1.00  0.00     0.054 A 
ATOM     10  C   UNL     1       7.205  -0.795  -1.870  1.00  0.00     0.051 A 
ATOM     11  C   UNL     1       7.684  -1.738   0.266  1.00  0.00     0.166 A 
ATOM     12  C   UNL     1       7.803  -1.781  -1.102  1.00  0.00     0.165 A 
ATOM     13  O   UNL     1       8.360  -2.821   0.800  1.00  0.00    -0.454 OA
ATOM     14  O   UNL     1       8.565  -2.911  -1.404  1.00  0.00    -0.454 OA
ATOM     15  C   UNL     1       8.654  -3.737  -0.266  1.00  0.00     0.468 C 
ENDBRANCH   6   7
ENDBRANCH   1   6
TORSDOF 4
ENDMDL
