@<TRIPOS>MOLECULE
/home/cewinharhar/GITHUB/reincatalyze/data/processed/docking_pred/2023-May-17-1006_maxeplen10_maxtrainstep1000_seadep16_gamma099_lrac9e-4_lrcr1e-3_sub6/80b3dd8cd2b2e3944ffcf13b099740dfc166ef97_ligand_6.pdbqt
 15 16 0 0 0
SMALL
GASTEIGER

@<TRIPOS>ATOM
      1  C          5.6250    2.6740    0.1780 C.3     1  UNL1        0.1270
      2  C          6.3430    3.6590    0.9730 C.2     1  UNL1        0.3030
      3  O          6.5330    3.5980    2.1890 O.2     1  UNL1       -0.2520
      4  O          6.8640    4.7750    0.2990 O.3     1  UNL1       -0.4810
      5  H          7.8690    4.8250    0.2320 H       1  UNL1        0.2960
      6  C          5.5920    1.3250    0.7800 C.3     1  UNL1        0.0470
      7  C          6.3730    0.2720    0.1270 C.2     1  UNL1       -0.0430
      8  C          6.5010    0.2150   -1.2520 C.2     1  UNL1        0.0080
      9  C          6.9720   -0.7150    0.8640 C.2     1  UNL1        0.0540
     10  C          7.2050   -0.7950   -1.8700 C.2     1  UNL1        0.0510
     11  C          7.6840   -1.7380    0.2660 C.2     1  UNL1        0.1660
     12  C          7.8030   -1.7810   -1.1020 C.2     1  UNL1        0.1650
     13  O          8.3600   -2.8210    0.8000 O.2     1  UNL1       -0.4540
     14  O          8.5650   -2.9110   -1.4040 O.2     1  UNL1       -0.4540
     15  C          8.6540   -3.7370   -0.2660 C.3     1  UNL1        0.4680
@<TRIPOS>BOND
     1    10     8    1
     2    10    12    2
     3    14    12    1
     4    14    15    1
     5     8     7    2
     6    12    11    1
     7    15    13    1
     8     7     6    1
     9     7     9    1
    10     1     6    1
    11     1     2    1
    12     5     4    1
    13    11    13    1
    14    11     9    2
    15     4     2    1
    16     2     3    2
