@<TRIPOS>MOLECULE
/home/cewinharhar/GITHUB/reincatalyze/data/processed/docking_pred/2023-May-17-1006_maxeplen10_maxtrainstep1000_seadep16_gamma099_lrac9e-4_lrcr1e-3_sub6/80b3dd8cd2b2e3944ffcf13b099740dfc166ef97_ligand_6.pdbqt
 15 16 0 0 0
SMALL
GASTEIGER

@<TRIPOS>ATOM
      1  C          6.4130    1.3270    0.6790 C.3     1  UNL1        0.1270
      2  C          5.2820    1.1330    1.5730 C.2     1  UNL1        0.3030
      3  O          5.1840    0.2470    2.4240 O.2     1  UNL1       -0.2520
      4  O          4.2080    2.0300    1.4580 O.3     1  UNL1       -0.4810
      5  H          3.3890    1.6860    0.9810 H       1  UNL1        0.2960
      6  C          6.1760    0.8520   -0.7010 C.3     1  UNL1        0.0470
      7  C          6.9520   -0.3000   -1.1640 C.2     1  UNL1       -0.0430
      8  C          7.2730   -0.4680   -2.5020 C.2     1  UNL1        0.0080
      9  C          7.3540   -1.2720   -0.2860 C.2     1  UNL1        0.0540
     10  C          7.9720   -1.5690   -2.9430 C.2     1  UNL1        0.0510
     11  C          8.0570   -2.3850   -0.7060 C.2     1  UNL1        0.1660
     12  C          8.3680   -2.5370   -2.0350 C.2     1  UNL1        0.1650
     13  O          8.5560   -3.4730   -0.0110 O.2     1  UNL1       -0.4540
     14  O          9.0690   -3.7390   -2.1500 O.2     1  UNL1       -0.4540
     15  C          8.9240   -4.4830   -0.9620 C.3     1  UNL1        0.4680
@<TRIPOS>BOND
     1    10     8    1
     2    10    12    2
     3     8     7    2
     4    14    12    1
     5    14    15    1
     6    12    11    1
     7     7     6    1
     8     7     9    1
     9    15    13    1
    10    11     9    2
    11    11    13    1
    12     6     1    1
    13     1     2    1
    14     5     4    1
    15     4     2    1
    16     2     3    2
