@<TRIPOS>MOLECULE
/home/cewinharhar/GITHUB/reincatalyze/data/processed/docking_pred/2023-May-17-1006_maxeplen10_maxtrainstep1000_seadep16_gamma099_lrac9e-4_lrcr1e-3_sub6/80b3dd8cd2b2e3944ffcf13b099740dfc166ef97_ligand_6.pdbqt
 15 16 0 0 0
SMALL
GASTEIGER

@<TRIPOS>ATOM
      1  C          8.2930   -0.3420   -2.8550 C.3     1  UNL1        0.1270
      2  C          8.4680   -1.7690   -3.0770 C.2     1  UNL1        0.3030
      3  O          9.5410   -2.3730   -3.0450 O.2     1  UNL1       -0.2520
      4  O          7.3170   -2.5240   -3.3510 O.3     1  UNL1       -0.4810
      5  H          6.4900   -2.0020   -3.5990 H       1  UNL1        0.2960
      6  C          8.7490    0.1190   -1.5260 C.3     1  UNL1        0.0470
      7  C          7.7830    0.0770   -0.4260 C.2     1  UNL1       -0.0430
      8  C          7.7410   -0.9880    0.4600 C.2     1  UNL1        0.0080
      9  C          6.8620    1.0770   -0.2640 C.2     1  UNL1        0.0540
     10  C          6.8100   -1.0470    1.4730 C.2     1  UNL1        0.0510
     11  C          5.9180    1.0400    0.7450 C.2     1  UNL1        0.1660
     12  C          5.8890   -0.0220    1.6170 C.2     1  UNL1        0.1650
     13  O          4.9100    1.9210    1.0930 O.2     1  UNL1       -0.4540
     14  O          4.8440    0.2190    2.5100 O.2     1  UNL1       -0.4540
     15  C          4.0310    1.2570    2.0140 C.3     1  UNL1        0.4680
@<TRIPOS>BOND
     1     5     4    1
     2     4     2    1
     3     2     3    2
     4     2     1    1
     5     1     6    1
     6     6     7    1
     7     7     9    2
     8     7     8    1
     9     9    11    1
    10     8    10    2
    11    11    13    1
    12    11    12    2
    13    13    15    1
    14    10    12    1
    15    12    14    1
    16    15    14    1
