@<TRIPOS>MOLECULE
/home/cewinharhar/GITHUB/reincatalyze/data/processed/docking_pred/2023-May-17-1006_maxeplen10_maxtrainstep1000_seadep16_gamma099_lrac9e-4_lrcr1e-3_sub6/80c9945afd0f5f9f0270d56cce32b054e5c09707_ligand_6.pdbqt
 15 16 0 0 0
SMALL
GASTEIGER

@<TRIPOS>ATOM
      1  C          5.4200    2.8740    0.1110 C.3     1  UNL1        0.1270
      2  C          6.2480    3.8650    0.7790 C.2     1  UNL1        0.3030
      3  O          6.9080    4.7430    0.2200 O.2     1  UNL1       -0.2520
      4  O          6.3030    3.8200    2.1810 O.3     1  UNL1       -0.4810
      5  H          6.9840    4.4200    2.6200 H       1  UNL1        0.2960
      6  C          5.3650    1.5700    0.8060 C.3     1  UNL1        0.0470
      7  C          6.1350    0.4640    0.2340 C.2     1  UNL1       -0.0430
      8  C          6.5760   -0.5930    1.0150 C.2     1  UNL1        0.0080
      9  C          6.4780    0.4630   -1.0920 C.2     1  UNL1        0.0540
     10  C          7.3310   -1.6150    0.4860 C.2     1  UNL1        0.0510
     11  C          7.2350   -0.5530   -1.6450 C.2     1  UNL1        0.1660
     12  C          7.6640   -1.5950   -0.8590 C.2     1  UNL1        0.1650
     13  O          7.6920   -0.7600   -2.9350 O.2     1  UNL1       -0.4540
     14  O          8.3940   -2.4500   -1.6860 O.2     1  UNL1       -0.4540
     15  C          8.6870   -1.7950   -2.8990 C.3     1  UNL1        0.4680
@<TRIPOS>BOND
     1    13    15    1
     2    13    11    1
     3    15    14    1
     4    14    12    1
     5    11     9    1
     6    11    12    2
     7     9     7    2
     8    12    10    1
     9     1     2    1
    10     1     6    1
    11     3     2    2
    12     7     6    1
    13     7     8    1
    14    10     8    2
    15     2     4    1
    16     4     5    1
