MODEL 1
REMARK VINA RESULT:      -7.7      0.000      0.000
REMARK SMILES O=C(O)CCc1ccc2c(c1)OCO2
REMARK SMILES IDX 4 1 2 2 1 3 3 4 5 6 6 7 7 8 11 9 8 10 10 11 9 12 12 13 14 14
REMARK SMILES IDX 13 15
REMARK H PARENT 3 5
REMARK Flexibility Score: inf
ROOT
ATOM      1  C   UNL     1       5.420   2.874   0.111  1.00  0.00     0.127 C 
ENDROOT
BRANCH   1   2
ATOM      2  C   UNL     1       6.248   3.865   0.779  1.00  0.00     0.303 C 
ATOM      3  O   UNL     1       6.908   4.743   0.220  1.00  0.00    -0.252 OA
BRANCH   2   4
ATOM      4  O   UNL     1       6.303   3.820   2.181  1.00  0.00    -0.481 OA
ATOM      5  H   UNL     1       6.984   4.420   2.620  1.00  0.00     0.296 HD
ENDBRANCH   2   4
ENDBRANCH   1   2
BRANCH   1   6
ATOM      6  C   UNL     1       5.365   1.570   0.806  1.00  0.00     0.047 C 
BRANCH   6   7
ATOM      7  C   UNL     1       6.135   0.464   0.234  1.00  0.00    -0.043 A 
ATOM      8  C   UNL     1       6.576  -0.593   1.015  1.00  0.00     0.008 A 
ATOM      9  C   UNL     1       6.478   0.463  -1.092  1.00  0.00     0.054 A 
ATOM     10  C   UNL     1       7.331  -1.615   0.486  1.00  0.00     0.051 A 
ATOM     11  C   UNL     1       7.235  -0.553  -1.645  1.00  0.00     0.166 A 
ATOM     12  C   UNL     1       7.664  -1.595  -0.859  1.00  0.00     0.165 A 
ATOM     13  O   UNL     1       7.692  -0.760  -2.935  1.00  0.00    -0.454 OA
ATOM     14  O   UNL     1       8.394  -2.450  -1.686  1.00  0.00    -0.454 OA
ATOM     15  C   UNL     1       8.687  -1.795  -2.899  1.00  0.00     0.468 C 
ENDBRANCH   6   7
ENDBRANCH   1   6
TORSDOF 4
ENDMDL
MODEL 2
REMARK VINA RESULT:      -7.6      2.133      2.526
REMARK SMILES O=C(O)CCc1ccc2c(c1)OCO2
REMARK SMILES IDX 4 1 2 2 1 3 3 4 5 6 6 7 7 8 11 9 8 10 10 11 9 12 12 13 14 14
REMARK SMILES IDX 13 15
REMARK H PARENT 3 5
REMARK Flexibility Score: inf
ROOT
ATOM      1  C   UNL     1       4.694   1.875   0.676  1.00  0.00     0.127 C 
ENDROOT
BRANCH   1   2
ATOM      2  C   UNL     1       4.392   1.171   1.913  1.00  0.00     0.303 C 
ATOM      3  O   UNL     1       5.120   0.343   2.463  1.00  0.00    -0.252 OA
BRANCH   2   4
ATOM      4  O   UNL     1       3.168   1.459   2.536  1.00  0.00    -0.481 OA
ATOM      5  H   UNL     1       2.934   0.897   3.340  1.00  0.00     0.296 HD
ENDBRANCH   2   4
ENDBRANCH   1   2
BRANCH   1   6
ATOM      6  C   UNL     1       6.118   2.244   0.528  1.00  0.00     0.047 C 
BRANCH   6   7
ATOM      7  C   UNL     1       6.974   1.342  -0.245  1.00  0.00    -0.043 A 
ATOM      8  C   UNL     1       8.333   1.577  -0.388  1.00  0.00     0.008 A 
ATOM      9  C   UNL     1       6.446   0.253  -0.886  1.00  0.00     0.054 A 
ATOM     10  C   UNL     1       9.133   0.750  -1.144  1.00  0.00     0.051 A 
ATOM     11  C   UNL     1       7.229  -0.592  -1.650  1.00  0.00     0.166 A 
ATOM     12  C   UNL     1       8.575  -0.347  -1.782  1.00  0.00     0.165 A 
ATOM     13  O   UNL     1       6.918  -1.730  -2.373  1.00  0.00    -0.454 OA
ATOM     14  O   UNL     1       9.089  -1.354  -2.599  1.00  0.00    -0.454 OA
ATOM     15  C   UNL     1       8.030  -2.037  -3.228  1.00  0.00     0.468 C 
ENDBRANCH   6   7
ENDBRANCH   1   6
TORSDOF 4
ENDMDL
MODEL 3
REMARK VINA RESULT:      -7.5      1.960      2.865
REMARK SMILES O=C(O)CCc1ccc2c(c1)OCO2
REMARK SMILES IDX 4 1 2 2 1 3 3 4 5 6 6 7 7 8 11 9 8 10 10 11 9 12 12 13 14 14
REMARK SMILES IDX 13 15
REMARK H PARENT 3 5
REMARK Flexibility Score: inf
ROOT
ATOM      1  C   UNL     1       6.423   1.301   0.713  1.00  0.00     0.127 C 
ENDROOT
BRANCH   1   2
ATOM      2  C   UNL     1       5.176   1.331   1.461  1.00  0.00     0.303 C 
ATOM      3  O   UNL     1       4.272   2.155   1.315  1.00  0.00    -0.252 OA
BRANCH   2   4
ATOM      4  O   UNL     1       4.985   0.337   2.434  1.00  0.00    -0.481 OA
ATOM      5  H   UNL     1       4.029   0.152   2.699  1.00  0.00     0.296 HD
ENDBRANCH   2   4
ENDBRANCH   1   2
BRANCH   1   6
ATOM      6  C   UNL     1       6.265   0.901  -0.701  1.00  0.00     0.047 C 
BRANCH   6   7
ATOM      7  C   UNL     1       7.006  -0.277  -1.159  1.00  0.00    -0.043 A 
ATOM      8  C   UNL     1       7.278  -0.485  -2.503  1.00  0.00     0.008 A 
ATOM      9  C   UNL     1       7.420  -1.232  -0.270  1.00  0.00     0.054 A 
ATOM     10  C   UNL     1       7.942  -1.609  -2.938  1.00  0.00     0.051 A 
ATOM     11  C   UNL     1       8.089  -2.369  -0.684  1.00  0.00     0.166 A 
ATOM     12  C   UNL     1       8.353  -2.561  -2.019  1.00  0.00     0.165 A 
ATOM     13  O   UNL     1       8.593  -3.447   0.022  1.00  0.00    -0.454 OA
ATOM     14  O   UNL     1       9.028  -3.778  -2.125  1.00  0.00    -0.454 OA
ATOM     15  C   UNL     1       8.910  -4.488  -0.914  1.00  0.00     0.468 C 
ENDBRANCH   6   7
ENDBRANCH   1   6
TORSDOF 4
ENDMDL
MODEL 4
REMARK VINA RESULT:      -7.4      1.798      5.284
REMARK SMILES O=C(O)CCc1ccc2c(c1)OCO2
REMARK SMILES IDX 4 1 2 2 1 3 3 4 5 6 6 7 7 8 11 9 8 10 10 11 9 12 12 13 14 14
REMARK SMILES IDX 13 15
REMARK H PARENT 3 5
REMARK Flexibility Score: inf
ROOT
ATOM      1  C   UNL     1       8.322  -0.314  -2.818  1.00  0.00     0.127 C 
ENDROOT
BRANCH   1   2
ATOM      2  C   UNL     1       8.473  -1.741  -3.057  1.00  0.00     0.303 C 
ATOM      3  O   UNL     1       9.536  -2.364  -3.030  1.00  0.00    -0.252 OA
BRANCH   2   4
ATOM      4  O   UNL     1       7.310  -2.474  -3.342  1.00  0.00    -0.481 OA
ATOM      5  H   UNL     1       7.358  -3.467  -3.174  1.00  0.00     0.296 HD
ENDBRANCH   2   4
ENDBRANCH   1   2
BRANCH   1   6
ATOM      6  C   UNL     1       8.769   0.121  -1.478  1.00  0.00     0.047 C 
BRANCH   6   7
ATOM      7  C   UNL     1       7.787   0.088  -0.392  1.00  0.00    -0.043 A 
ATOM      8  C   UNL     1       7.718  -0.979   0.490  1.00  0.00     0.008 A 
ATOM      9  C   UNL     1       6.878   1.101  -0.241  1.00  0.00     0.054 A 
ATOM     10  C   UNL     1       6.771  -1.028   1.489  1.00  0.00     0.051 A 
ATOM     11  C   UNL     1       5.919   1.073   0.755  1.00  0.00     0.166 A 
ATOM     12  C   UNL     1       5.863   0.010   1.623  1.00  0.00     0.165 A 
ATOM     13  O   UNL     1       4.918   1.967   1.092  1.00  0.00    -0.454 OA
ATOM     14  O   UNL     1       4.809   0.263   2.502  1.00  0.00    -0.454 OA
ATOM     15  C   UNL     1       4.017   1.313   1.997  1.00  0.00     0.468 C 
ENDBRANCH   6   7
ENDBRANCH   1   6
TORSDOF 4
ENDMDL
MODEL 5
REMARK VINA RESULT:      -7.4      1.022      2.133
REMARK SMILES O=C(O)CCc1ccc2c(c1)OCO2
REMARK SMILES IDX 4 1 2 2 1 3 3 4 5 6 6 7 7 8 11 9 8 10 10 11 9 12 12 13 14 14
REMARK SMILES IDX 13 15
REMARK H PARENT 3 5
REMARK Flexibility Score: inf
ROOT
ATOM      1  C   UNL     1       5.718   2.621   0.121  1.00  0.00     0.127 C 
ENDROOT
BRANCH   1   2
ATOM      2  C   UNL     1       6.374   3.615   0.957  1.00  0.00     0.303 C 
ATOM      3  O   UNL     1       6.547   3.526   2.174  1.00  0.00    -0.252 OA
BRANCH   2   4
ATOM      4  O   UNL     1       6.850   4.775   0.326  1.00  0.00    -0.481 OA
ATOM      5  H   UNL     1       7.329   5.437   0.916  1.00  0.00     0.296 HD
ENDBRANCH   2   4
ENDBRANCH   1   2
BRANCH   1   6
ATOM      6  C   UNL     1       5.662   1.272   0.725  1.00  0.00     0.047 C 
BRANCH   6   7
ATOM      7  C   UNL     1       6.420   0.205   0.069  1.00  0.00    -0.043 A 
ATOM      8  C   UNL     1       6.529   0.135  -1.311  1.00  0.00     0.008 A 
ATOM      9  C   UNL     1       7.016  -0.784   0.805  1.00  0.00     0.054 A 
ATOM     10  C   UNL     1       7.211  -0.888  -1.930  1.00  0.00     0.051 A 
ATOM     11  C   UNL     1       7.706  -1.821   0.206  1.00  0.00     0.166 A 
ATOM     12  C   UNL     1       7.807  -1.876  -1.163  1.00  0.00     0.165 A 
ATOM     13  O   UNL     1       8.376  -2.908   0.739  1.00  0.00    -0.454 OA
ATOM     14  O   UNL     1       8.550  -3.018  -1.467  1.00  0.00    -0.454 OA
ATOM     15  C   UNL     1       8.644  -3.836  -0.324  1.00  0.00     0.468 C 
ENDBRANCH   6   7
ENDBRANCH   1   6
TORSDOF 4
ENDMDL
