@<TRIPOS>MOLECULE
/home/cewinharhar/GITHUB/reincatalyze/data/processed/docking_pred/2023-May-17-1006_maxeplen10_maxtrainstep1000_seadep16_gamma099_lrac9e-4_lrcr1e-3_sub6/80c9945afd0f5f9f0270d56cce32b054e5c09707_ligand_6.pdbqt
 15 16 0 0 0
SMALL
GASTEIGER

@<TRIPOS>ATOM
      1  C          5.7180    2.6210    0.1210 C.3     1  UNL1        0.1270
      2  C          6.3740    3.6150    0.9570 C.2     1  UNL1        0.3030
      3  O          6.5470    3.5260    2.1740 O.2     1  UNL1       -0.2520
      4  O          6.8500    4.7750    0.3260 O.3     1  UNL1       -0.4810
      5  H          7.3290    5.4370    0.9160 H       1  UNL1        0.2960
      6  C          5.6620    1.2720    0.7250 C.3     1  UNL1        0.0470
      7  C          6.4200    0.2050    0.0690 C.2     1  UNL1       -0.0430
      8  C          6.5290    0.1350   -1.3110 C.2     1  UNL1        0.0080
      9  C          7.0160   -0.7840    0.8050 C.2     1  UNL1        0.0540
     10  C          7.2110   -0.8880   -1.9300 C.2     1  UNL1        0.0510
     11  C          7.7060   -1.8210    0.2060 C.2     1  UNL1        0.1660
     12  C          7.8070   -1.8760   -1.1630 C.2     1  UNL1        0.1650
     13  O          8.3760   -2.9080    0.7390 O.2     1  UNL1       -0.4540
     14  O          8.5500   -3.0180   -1.4670 O.2     1  UNL1       -0.4540
     15  C          8.6440   -3.8360   -0.3240 C.3     1  UNL1        0.4680
@<TRIPOS>BOND
     1    10     8    1
     2    10    12    2
     3    14    12    1
     4    14    15    1
     5     8     7    2
     6    12    11    1
     7    15    13    1
     8     7     6    1
     9     7     9    1
    10     1     6    1
    11     1     2    1
    12    11    13    1
    13    11     9    2
    14     4     5    1
    15     4     2    1
    16     2     3    2
