@<TRIPOS>MOLECULE
/home/cewinharhar/GITHUB/reincatalyze/data/processed/docking_pred/2023-May-17-1006_maxeplen10_maxtrainstep1000_seadep16_gamma099_lrac9e-4_lrcr1e-3_sub6/80c9945afd0f5f9f0270d56cce32b054e5c09707_ligand_6.pdbqt
 15 16 0 0 0
SMALL
GASTEIGER

@<TRIPOS>ATOM
      1  C          6.4230    1.3010    0.7130 C.3     1  UNL1        0.1270
      2  C          5.1760    1.3310    1.4610 C.2     1  UNL1        0.3030
      3  O          4.2720    2.1550    1.3150 O.2     1  UNL1       -0.2520
      4  O          4.9850    0.3370    2.4340 O.3     1  UNL1       -0.4810
      5  H          4.0290    0.1520    2.6990 H       1  UNL1        0.2960
      6  C          6.2650    0.9010   -0.7010 C.3     1  UNL1        0.0470
      7  C          7.0060   -0.2770   -1.1590 C.2     1  UNL1       -0.0430
      8  C          7.2780   -0.4850   -2.5030 C.2     1  UNL1        0.0080
      9  C          7.4200   -1.2320   -0.2700 C.2     1  UNL1        0.0540
     10  C          7.9420   -1.6090   -2.9380 C.2     1  UNL1        0.0510
     11  C          8.0890   -2.3690   -0.6840 C.2     1  UNL1        0.1660
     12  C          8.3530   -2.5610   -2.0190 C.2     1  UNL1        0.1650
     13  O          8.5930   -3.4470    0.0220 O.2     1  UNL1       -0.4540
     14  O          9.0280   -3.7780   -2.1250 O.2     1  UNL1       -0.4540
     15  C          8.9100   -4.4880   -0.9140 C.3     1  UNL1        0.4680
@<TRIPOS>BOND
     1    10     8    1
     2    10    12    2
     3     8     7    2
     4    14    12    1
     5    14    15    1
     6    12    11    1
     7     7     6    1
     8     7     9    1
     9    15    13    1
    10     6     1    1
    11    11     9    2
    12    11    13    1
    13     1     2    1
    14     3     2    2
    15     2     4    1
    16     4     5    1
