@<TRIPOS>MOLECULE
/home/cewinharhar/GITHUB/reincatalyze/data/processed/docking_pred/2023-May-17-1006_maxeplen10_maxtrainstep1000_seadep16_gamma099_lrac9e-4_lrcr1e-3_sub6/80c9945afd0f5f9f0270d56cce32b054e5c09707_ligand_6.pdbqt
 15 16 0 0 0
SMALL
GASTEIGER

@<TRIPOS>ATOM
      1  C          8.3220   -0.3140   -2.8180 C.3     1  UNL1        0.1270
      2  C          8.4730   -1.7410   -3.0570 C.2     1  UNL1        0.3030
      3  O          9.5360   -2.3640   -3.0300 O.2     1  UNL1       -0.2520
      4  O          7.3100   -2.4740   -3.3420 O.3     1  UNL1       -0.4810
      5  H          7.3580   -3.4670   -3.1740 H       1  UNL1        0.2960
      6  C          8.7690    0.1210   -1.4780 C.3     1  UNL1        0.0470
      7  C          7.7870    0.0880   -0.3920 C.2     1  UNL1       -0.0430
      8  C          7.7180   -0.9790    0.4900 C.2     1  UNL1        0.0080
      9  C          6.8780    1.1010   -0.2410 C.2     1  UNL1        0.0540
     10  C          6.7710   -1.0280    1.4890 C.2     1  UNL1        0.0510
     11  C          5.9190    1.0730    0.7550 C.2     1  UNL1        0.1660
     12  C          5.8630    0.0100    1.6230 C.2     1  UNL1        0.1650
     13  O          4.9180    1.9670    1.0920 O.2     1  UNL1       -0.4540
     14  O          4.8090    0.2630    2.5020 O.2     1  UNL1       -0.4540
     15  C          4.0170    1.3130    1.9970 C.3     1  UNL1        0.4680
@<TRIPOS>BOND
     1     4     5    1
     2     4     2    1
     3     2     3    2
     4     2     1    1
     5     1     6    1
     6     6     7    1
     7     7     9    2
     8     7     8    1
     9     9    11    1
    10     8    10    2
    11    11    13    1
    12    11    12    2
    13    13    15    1
    14    10    12    1
    15    12    14    1
    16    15    14    1
