@<TRIPOS>MOLECULE
/home/cewinharhar/GITHUB/reincatalyze/data/processed/docking_pred/2023-May-17-1006_maxeplen10_maxtrainstep1000_seadep16_gamma099_lrac9e-4_lrcr1e-3_sub6/80ffcc0cdcaea1df7ad243f542ab1163fa4dc1ce_ligand_6.pdbqt
 15 16 0 0 0
SMALL
GASTEIGER

@<TRIPOS>ATOM
      1  C          6.3060    0.1970    0.8920 C.3     1  UNL1        0.1270
      2  C          5.2390    0.8970    1.5910 C.2     1  UNL1        0.3030
      3  O          4.4950    0.4050    2.4410 O.2     1  UNL1       -0.2520
      4  O          5.0380    2.2490    1.2720 O.3     1  UNL1       -0.4810
      5  H          4.1620    2.4770    0.8290 H       1  UNL1        0.2960
      6  C          6.4530   -1.2200    1.2870 C.3     1  UNL1        0.0470
      7  C          7.5630   -1.5620    2.1800 C.2     1  UNL1       -0.0430
      8  C          7.5390   -1.2300    3.5250 C.2     1  UNL1        0.0080
      9  C          8.6810   -2.1900    1.6980 C.2     1  UNL1        0.0540
     10  C          8.5980   -1.5190    4.3580 C.2     1  UNL1        0.0510
     11  C          9.7540   -2.4910    2.5150 C.2     1  UNL1        0.1660
     12  C          9.7170   -2.1570    3.8470 C.2     1  UNL1        0.1650
     13  O         10.9640   -3.1100    2.2520 O.2     1  UNL1       -0.4540
     14  O         10.9250   -2.5810    4.4030 O.2     1  UNL1       -0.4540
     15  C         11.8340   -2.8900    3.3720 C.3     1  UNL1        0.4680
@<TRIPOS>BOND
     1     5     4    1
     2     1     6    1
     3     1     2    1
     4     4     2    1
     5     6     7    1
     6     2     3    2
     7     9     7    2
     8     9    11    1
     9     7     8    1
    10    13    11    1
    11    13    15    1
    12    11    12    2
    13    15    14    1
    14     8    10    2
    15    12    10    1
    16    12    14    1
