@<TRIPOS>MOLECULE
/home/cewinharhar/GITHUB/reincatalyze/data/processed/docking_pred/2023-May-17-1006_maxeplen10_maxtrainstep1000_seadep16_gamma099_lrac9e-4_lrcr1e-3_sub6/80ffcc0cdcaea1df7ad243f542ab1163fa4dc1ce_ligand_6.pdbqt
 15 16 0 0 0
SMALL
GASTEIGER

@<TRIPOS>ATOM
      1  C          6.4220    1.2870    0.7380 C.3     1  UNL1        0.1270
      2  C          5.1740    1.2860    1.4850 C.2     1  UNL1        0.3030
      3  O          4.2580    2.1000    1.3540 O.2     1  UNL1       -0.2520
      4  O          4.9940    0.2710    2.4380 O.3     1  UNL1       -0.4810
      5  H          4.0430    0.0830    2.7150 H       1  UNL1        0.2960
      6  C          6.2710    0.9070   -0.6830 C.3     1  UNL1        0.0470
      7  C          7.0020   -0.2740   -1.1490 C.2     1  UNL1       -0.0430
      8  C          7.2660   -0.4780   -2.4940 C.2     1  UNL1        0.0080
      9  C          7.4140   -1.2360   -0.2650 C.2     1  UNL1        0.0540
     10  C          7.9210   -1.6050   -2.9370 C.2     1  UNL1        0.0510
     11  C          8.0730   -2.3750   -0.6870 C.2     1  UNL1        0.1660
     12  C          8.3300   -2.5630   -2.0240 C.2     1  UNL1        0.1650
     13  O          8.5730   -3.4590    0.0120 O.2     1  UNL1       -0.4540
     14  O          8.9970   -3.7840   -2.1380 O.2     1  UNL1       -0.4540
     15  C          8.8800   -4.4990   -0.9290 C.3     1  UNL1        0.4680
@<TRIPOS>BOND
     1    10     8    1
     2    10    12    2
     3     8     7    2
     4    14    12    1
     5    14    15    1
     6    12    11    1
     7     7     6    1
     8     7     9    1
     9    15    13    1
    10    11     9    2
    11    11    13    1
    12     6     1    1
    13     1     2    1
    14     3     2    2
    15     2     4    1
    16     4     5    1
