@<TRIPOS>MOLECULE
/home/cewinharhar/GITHUB/reincatalyze/data/processed/docking_pred/2023-May-17-1006_maxeplen10_maxtrainstep1000_seadep16_gamma099_lrac9e-4_lrcr1e-3_sub6/80ffcc0cdcaea1df7ad243f542ab1163fa4dc1ce_ligand_6.pdbqt
 15 16 0 0 0
SMALL
GASTEIGER

@<TRIPOS>ATOM
      1  C          4.7560    1.8470    0.7080 C.3     1  UNL1        0.1270
      2  C          4.4950    1.1280    1.9450 C.2     1  UNL1        0.3030
      3  O          5.2730    0.3500    2.5000 O.2     1  UNL1       -0.2520
      4  O          3.2510    1.3370    2.5620 O.3     1  UNL1       -0.4810
      5  H          3.2010    1.1240    3.5460 H       1  UNL1        0.2960
      6  C          6.1740    2.2210    0.5180 C.3     1  UNL1        0.0470
      7  C          7.0180    1.3050   -0.2510 C.2     1  UNL1       -0.0430
      8  C          8.3850    1.5070   -0.3710 C.2     1  UNL1        0.0080
      9  C          6.4720    0.2370   -0.9120 C.2     1  UNL1        0.0540
     10  C          9.1740    0.6670   -1.1240 C.2     1  UNL1        0.0510
     11  C          7.2450   -0.6190   -1.6730 C.2     1  UNL1        0.1660
     12  C          8.5980   -0.4080   -1.7820 C.2     1  UNL1        0.1650
     13  O          6.9160   -1.7410   -2.4130 O.2     1  UNL1       -0.4540
     14  O          9.0990   -1.4190   -2.6020 O.2     1  UNL1       -0.4540
     15  C          8.0320   -2.0680   -3.2540 C.3     1  UNL1        0.4680
@<TRIPOS>BOND
     1    15    14    1
     2    15    13    1
     3    14    12    1
     4    13    11    1
     5    12    11    2
     6    12    10    1
     7    11     9    1
     8    10     8    2
     9     9     7    2
    10     8     7    1
    11     7     6    1
    12     6     1    1
    13     1     2    1
    14     2     3    2
    15     2     4    1
    16     4     5    1
