@<TRIPOS>MOLECULE
/home/cewinharhar/GITHUB/reincatalyze/data/processed/docking_pred/2023-May-17-1006_maxeplen10_maxtrainstep1000_seadep16_gamma099_lrac9e-4_lrcr1e-3_sub6/80ffcc0cdcaea1df7ad243f542ab1163fa4dc1ce_ligand_6.pdbqt
 15 16 0 0 0
SMALL
GASTEIGER

@<TRIPOS>ATOM
      1  C          5.1360    2.7590    0.0070 C.3     1  UNL1        0.1270
      2  C          6.0890    3.6470    0.6530 C.2     1  UNL1        0.3030
      3  O          6.8710    4.4030    0.0740 O.2     1  UNL1       -0.2520
      4  O          6.1220    3.6460    2.0560 O.3     1  UNL1       -0.4810
      5  H          5.4870    4.2780    2.5180 H       1  UNL1        0.2960
      6  C          5.7480    1.5480   -0.5820 C.3     1  UNL1        0.0470
      7  C          6.3040    0.5540    0.3380 C.2     1  UNL1       -0.0430
      8  C          5.5890    0.1040    1.4370 C.2     1  UNL1        0.0080
      9  C          7.5710    0.0660    0.1590 C.2     1  UNL1        0.0540
     10  C          6.1240   -0.8030    2.3240 C.2     1  UNL1        0.0510
     11  C          8.1280   -0.8460    1.0350 C.2     1  UNL1        0.1660
     12  C          7.4080   -1.2840    2.1200 C.2     1  UNL1        0.1650
     13  O          9.3660   -1.4640    1.0530 O.2     1  UNL1       -0.4540
     14  O          8.2220   -2.1840    2.8090 O.2     1  UNL1       -0.4540
     15  C          9.5470   -2.0720    2.3410 C.3     1  UNL1        0.4680
@<TRIPOS>BOND
     1     6     1    1
     2     6     7    1
     3     1     2    1
     4     3     2    2
     5     9     7    2
     6     9    11    1
     7     7     8    1
     8     2     4    1
     9    11    13    1
    10    11    12    2
    11    13    15    1
    12     8    10    2
    13     4     5    1
    14    12    10    1
    15    12    14    1
    16    15    14    1
