@<TRIPOS>MOLECULE
/home/cewinharhar/GITHUB/reincatalyze/data/processed/docking_pred/2023-May-17-1006_maxeplen10_maxtrainstep1000_seadep16_gamma099_lrac9e-4_lrcr1e-3_sub6/80ffcc0cdcaea1df7ad243f542ab1163fa4dc1ce_ligand_6.pdbqt
 15 16 0 0 0
SMALL
GASTEIGER

@<TRIPOS>ATOM
      1  C          5.3790    2.9020    0.0720 C.3     1  UNL1        0.1270
      2  C          6.2190    3.8480    0.7890 C.2     1  UNL1        0.3030
      3  O          6.8510    4.7750    0.2790 O.2     1  UNL1       -0.2520
      4  O          6.3190    3.6960    2.1800 O.3     1  UNL1       -0.4810
      5  H          6.0000    2.8160    2.5560 H       1  UNL1        0.2960
      6  C          5.2610    1.5840    0.7320 C.3     1  UNL1        0.0470
      7  C          6.0430    0.4770    0.1780 C.2     1  UNL1       -0.0430
      8  C          6.4390   -0.5960    0.9620 C.2     1  UNL1        0.0080
      9  C          6.4410    0.4880   -1.1330 C.2     1  UNL1        0.0540
     10  C          7.2050   -1.6200    0.4510 C.2     1  UNL1        0.0510
     11  C          7.2090   -0.5290   -1.6680 C.2     1  UNL1        0.1660
     12  C          7.5930   -1.5860   -0.8780 C.2     1  UNL1        0.1650
     13  O          7.7170   -0.7250   -2.9400 O.2     1  UNL1       -0.4540
     14  O          8.3480   -2.4380   -1.6850 O.2     1  UNL1       -0.4540
     15  C          8.6980   -1.7710   -2.8760 C.3     1  UNL1        0.4680
@<TRIPOS>BOND
     1    13    15    1
     2    13    11    1
     3    15    14    1
     4    14    12    1
     5    11     9    1
     6    11    12    2
     7     9     7    2
     8    12    10    1
     9     1     6    1
    10     1     2    1
    11     7     6    1
    12     7     8    1
    13     3     2    2
    14    10     8    2
    15     2     4    1
    16     4     5    1
