MODEL 1
REMARK VINA RESULT:      -7.6      0.000      0.000
REMARK SMILES O=C(O)CCc1ccc2c(c1)OCO2
REMARK SMILES IDX 4 1 2 2 1 3 3 4 5 6 6 7 7 8 11 9 8 10 10 11 9 12 12 13 14 14
REMARK SMILES IDX 13 15
REMARK H PARENT 3 5
REMARK Flexibility Score: inf
ROOT
ATOM      1  C   UNL     1       5.423   2.878   0.111  1.00  0.00     0.127 C 
ENDROOT
BRANCH   1   2
ATOM      2  C   UNL     1       6.247   3.859   0.800  1.00  0.00     0.303 C 
ATOM      3  O   UNL     1       6.873   4.774   0.262  1.00  0.00    -0.252 OA
BRANCH   2   4
ATOM      4  O   UNL     1       6.338   3.757   2.197  1.00  0.00    -0.481 OA
ATOM      5  H   UNL     1       5.794   3.025   2.627  1.00  0.00     0.296 HD
ENDBRANCH   2   4
ENDBRANCH   1   2
BRANCH   1   6
ATOM      6  C   UNL     1       5.355   1.567   0.792  1.00  0.00     0.047 C 
BRANCH   6   7
ATOM      7  C   UNL     1       6.136   0.467   0.223  1.00  0.00    -0.043 A 
ATOM      8  C   UNL     1       6.602  -0.575   1.011  1.00  0.00     0.008 A 
ATOM      9  C   UNL     1       6.464   0.456  -1.107  1.00  0.00     0.054 A 
ATOM     10  C   UNL     1       7.367  -1.591   0.484  1.00  0.00     0.051 A 
ATOM     11  C   UNL     1       7.230  -0.554  -1.657  1.00  0.00     0.166 A 
ATOM     12  C   UNL     1       7.684  -1.581  -0.865  1.00  0.00     0.165 A 
ATOM     13  O   UNL     1       7.676  -0.768  -2.950  1.00  0.00    -0.454 OA
ATOM     14  O   UNL     1       8.418  -2.433  -1.691  1.00  0.00    -0.454 OA
ATOM     15  C   UNL     1       8.687  -1.787  -2.914  1.00  0.00     0.468 C 
ENDBRANCH   6   7
ENDBRANCH   1   6
TORSDOF 4
ENDMDL
MODEL 2
REMARK VINA RESULT:      -7.5      2.125      2.514
REMARK SMILES O=C(O)CCc1ccc2c(c1)OCO2
REMARK SMILES IDX 4 1 2 2 1 3 3 4 5 6 6 7 7 8 11 9 8 10 10 11 9 12 12 13 14 14
REMARK SMILES IDX 13 15
REMARK H PARENT 3 5
REMARK Flexibility Score: inf
ROOT
ATOM      1  C   UNL     1       4.698   1.860   0.693  1.00  0.00     0.127 C 
ENDROOT
BRANCH   1   2
ATOM      2  C   UNL     1       4.408   1.144   1.926  1.00  0.00     0.303 C 
ATOM      3  O   UNL     1       5.147   0.319   2.466  1.00  0.00    -0.252 OA
BRANCH   2   4
ATOM      4  O   UNL     1       3.183   1.415   2.555  1.00  0.00    -0.481 OA
ATOM      5  H   UNL     1       3.212   2.063   3.327  1.00  0.00     0.296 HD
ENDBRANCH   2   4
ENDBRANCH   1   2
BRANCH   1   6
ATOM      6  C   UNL     1       6.120   2.233   0.536  1.00  0.00     0.047 C 
BRANCH   6   7
ATOM      7  C   UNL     1       6.975   1.328  -0.235  1.00  0.00    -0.043 A 
ATOM      8  C   UNL     1       8.337   1.555  -0.368  1.00  0.00     0.008 A 
ATOM      9  C   UNL     1       6.444   0.245  -0.884  1.00  0.00     0.054 A 
ATOM     10  C   UNL     1       9.136   0.725  -1.122  1.00  0.00     0.051 A 
ATOM     11  C   UNL     1       7.227  -0.601  -1.646  1.00  0.00     0.166 A 
ATOM     12  C   UNL     1       8.575  -0.365  -1.768  1.00  0.00     0.165 A 
ATOM     13  O   UNL     1       6.913  -1.734  -2.376  1.00  0.00    -0.454 OA
ATOM     14  O   UNL     1       9.089  -1.372  -2.586  1.00  0.00    -0.454 OA
ATOM     15  C   UNL     1       8.029  -2.046  -3.224  1.00  0.00     0.468 C 
ENDBRANCH   6   7
ENDBRANCH   1   6
TORSDOF 4
ENDMDL
MODEL 3
REMARK VINA RESULT:      -7.4      1.807      5.268
REMARK SMILES O=C(O)CCc1ccc2c(c1)OCO2
REMARK SMILES IDX 4 1 2 2 1 3 3 4 5 6 6 7 7 8 11 9 8 10 10 11 9 12 12 13 14 14
REMARK SMILES IDX 13 15
REMARK H PARENT 3 5
REMARK Flexibility Score: inf
ROOT
ATOM      1  C   UNL     1       8.247  -0.203  -2.827  1.00  0.00     0.127 C 
ENDROOT
BRANCH   1   2
ATOM      2  C   UNL     1       8.482  -1.622  -3.040  1.00  0.00     0.303 C 
ATOM      3  O   UNL     1       9.570  -2.193  -2.934  1.00  0.00    -0.252 OA
BRANCH   2   4
ATOM      4  O   UNL     1       7.378  -2.412  -3.396  1.00  0.00    -0.481 OA
ATOM      5  H   UNL     1       7.034  -3.042  -2.688  1.00  0.00     0.296 HD
ENDBRANCH   2   4
ENDBRANCH   1   2
BRANCH   1   6
ATOM      6  C   UNL     1       8.698   0.289  -1.507  1.00  0.00     0.047 C 
BRANCH   6   7
ATOM      7  C   UNL     1       7.743   0.228  -0.399  1.00  0.00    -0.043 A 
ATOM      8  C   UNL     1       7.758  -0.813   0.516  1.00  0.00     0.008 A 
ATOM      9  C   UNL     1       6.774   1.186  -0.257  1.00  0.00     0.054 A 
ATOM     10  C   UNL     1       6.838  -0.890   1.537  1.00  0.00     0.051 A 
ATOM     11  C   UNL     1       5.840   1.130   0.760  1.00  0.00     0.166 A 
ATOM     12  C   UNL     1       5.869   0.092   1.660  1.00  0.00     0.165 A 
ATOM     13  O   UNL     1       4.792   1.970   1.093  1.00  0.00    -0.454 OA
ATOM     14  O   UNL     1       4.819   0.306   2.555  1.00  0.00    -0.454 OA
ATOM     15  C   UNL     1       3.952   1.289   2.037  1.00  0.00     0.468 C 
ENDBRANCH   6   7
ENDBRANCH   1   6
TORSDOF 4
ENDMDL
MODEL 4
REMARK VINA RESULT:      -7.4      0.960      2.127
REMARK SMILES O=C(O)CCc1ccc2c(c1)OCO2
REMARK SMILES IDX 4 1 2 2 1 3 3 4 5 6 6 7 7 8 11 9 8 10 10 11 9 12 12 13 14 14
REMARK SMILES IDX 13 15
REMARK H PARENT 3 5
REMARK Flexibility Score: inf
ROOT
ATOM      1  C   UNL     1       5.387   2.833   0.078  1.00  0.00     0.127 C 
ENDROOT
BRANCH   1   2
ATOM      2  C   UNL     1       6.145   3.812   0.841  1.00  0.00     0.303 C 
ATOM      3  O   UNL     1       6.210   3.870   2.070  1.00  0.00    -0.252 OA
BRANCH   2   4
ATOM      4  O   UNL     1       6.866   4.775   0.117  1.00  0.00    -0.481 OA
ATOM      5  H   UNL     1       7.156   5.593   0.630  1.00  0.00     0.296 HD
ENDBRANCH   2   4
ENDBRANCH   1   2
BRANCH   1   6
ATOM      6  C   UNL     1       5.346   1.491   0.697  1.00  0.00     0.047 C 
BRANCH   6   7
ATOM      7  C   UNL     1       6.204   0.453   0.121  1.00  0.00    -0.043 A 
ATOM      8  C   UNL     1       6.525   0.444  -1.227  1.00  0.00     0.008 A 
ATOM      9  C   UNL     1       6.686  -0.567   0.898  1.00  0.00     0.054 A 
ATOM     10  C   UNL     1       7.303  -0.551  -1.777  1.00  0.00     0.051 A 
ATOM     11  C   UNL     1       7.469  -1.576   0.368  1.00  0.00     0.166 A 
ATOM     12  C   UNL     1       7.780  -1.571  -0.970  1.00  0.00     0.165 A 
ATOM     13  O   UNL     1       8.055  -2.685   0.951  1.00  0.00    -0.454 OA
ATOM     14  O   UNL     1       8.569  -2.699  -1.204  1.00  0.00    -0.454 OA
ATOM     15  C   UNL     1       8.491  -3.565  -0.096  1.00  0.00     0.468 C 
ENDBRANCH   6   7
ENDBRANCH   1   6
TORSDOF 4
ENDMDL
MODEL 5
REMARK VINA RESULT:      -7.3      1.968      2.867
REMARK SMILES O=C(O)CCc1ccc2c(c1)OCO2
REMARK SMILES IDX 4 1 2 2 1 3 3 4 5 6 6 7 7 8 11 9 8 10 10 11 9 12 12 13 14 14
REMARK SMILES IDX 13 15
REMARK H PARENT 3 5
REMARK Flexibility Score: inf
ROOT
ATOM      1  C   UNL     1       6.427   1.274   0.784  1.00  0.00     0.127 C 
ENDROOT
BRANCH   1   2
ATOM      2  C   UNL     1       5.158   1.309   1.494  1.00  0.00     0.303 C 
ATOM      3  O   UNL     1       4.265   2.143   1.327  1.00  0.00    -0.252 OA
BRANCH   2   4
ATOM      4  O   UNL     1       4.927   0.311   2.453  1.00  0.00    -0.481 OA
ATOM      5  H   UNL     1       5.747  -0.118   2.855  1.00  0.00     0.296 HD
ENDBRANCH   2   4
ENDBRANCH   1   2
BRANCH   1   6
ATOM      6  C   UNL     1       6.305   0.915  -0.645  1.00  0.00     0.047 C 
BRANCH   6   7
ATOM      7  C   UNL     1       7.027  -0.271  -1.109  1.00  0.00    -0.043 A 
ATOM      8  C   UNL     1       7.278  -0.486  -2.456  1.00  0.00     0.008 A 
ATOM      9  C   UNL     1       7.444  -1.229  -0.223  1.00  0.00     0.054 A 
ATOM     10  C   UNL     1       7.925  -1.619  -2.897  1.00  0.00     0.051 A 
ATOM     11  C   UNL     1       8.096  -2.373  -0.643  1.00  0.00     0.166 A 
ATOM     12  C   UNL     1       8.339  -2.572  -1.980  1.00  0.00     0.165 A 
ATOM     13  O   UNL     1       8.598  -3.454   0.060  1.00  0.00    -0.454 OA
ATOM     14  O   UNL     1       9.000  -3.796  -2.092  1.00  0.00    -0.454 OA
ATOM     15  C   UNL     1       8.892  -4.501  -0.877  1.00  0.00     0.468 C 
ENDBRANCH   6   7
ENDBRANCH   1   6
TORSDOF 4
ENDMDL
