@<TRIPOS>MOLECULE
/home/cewinharhar/GITHUB/reincatalyze/data/processed/docking_pred/2023-May-17-1006_maxeplen10_maxtrainstep1000_seadep16_gamma099_lrac9e-4_lrcr1e-3_sub6/81487a167534eaf1a49a57d95a0bec7d9495d7bd_ligand_6.pdbqt
 15 16 0 0 0
SMALL
GASTEIGER

@<TRIPOS>ATOM
      1  C          5.3870    2.8330    0.0780 C.3     1  UNL1        0.1270
      2  C          6.1450    3.8120    0.8410 C.2     1  UNL1        0.3030
      3  O          6.2100    3.8700    2.0700 O.2     1  UNL1       -0.2520
      4  O          6.8660    4.7750    0.1170 O.3     1  UNL1       -0.4810
      5  H          7.1560    5.5930    0.6300 H       1  UNL1        0.2960
      6  C          5.3460    1.4910    0.6970 C.3     1  UNL1        0.0470
      7  C          6.2040    0.4530    0.1210 C.2     1  UNL1       -0.0430
      8  C          6.5250    0.4440   -1.2270 C.2     1  UNL1        0.0080
      9  C          6.6860   -0.5670    0.8980 C.2     1  UNL1        0.0540
     10  C          7.3030   -0.5510   -1.7770 C.2     1  UNL1        0.0510
     11  C          7.4690   -1.5760    0.3680 C.2     1  UNL1        0.1660
     12  C          7.7800   -1.5710   -0.9700 C.2     1  UNL1        0.1650
     13  O          8.0550   -2.6850    0.9510 O.2     1  UNL1       -0.4540
     14  O          8.5690   -2.6990   -1.2040 O.2     1  UNL1       -0.4540
     15  C          8.4910   -3.5650   -0.0960 C.3     1  UNL1        0.4680
@<TRIPOS>BOND
     1    10     8    1
     2    10    12    2
     3     8     7    2
     4    14    12    1
     5    14    15    1
     6    12    11    1
     7    15    13    1
     8     1     6    1
     9     1     2    1
    10     4     5    1
    11     4     2    1
    12     7     6    1
    13     7     9    1
    14    11     9    2
    15    11    13    1
    16     2     3    2
