@<TRIPOS>MOLECULE
/home/cewinharhar/GITHUB/reincatalyze/data/processed/docking_pred/2023-May-17-1006_maxeplen10_maxtrainstep1000_seadep16_gamma099_lrac9e-4_lrcr1e-3_sub6/81487a167534eaf1a49a57d95a0bec7d9495d7bd_ligand_6.pdbqt
 15 16 0 0 0
SMALL
GASTEIGER

@<TRIPOS>ATOM
      1  C          4.6980    1.8600    0.6930 C.3     1  UNL1        0.1270
      2  C          4.4080    1.1440    1.9260 C.2     1  UNL1        0.3030
      3  O          5.1470    0.3190    2.4660 O.2     1  UNL1       -0.2520
      4  O          3.1830    1.4150    2.5550 O.3     1  UNL1       -0.4810
      5  H          3.2120    2.0630    3.3270 H       1  UNL1        0.2960
      6  C          6.1200    2.2330    0.5360 C.3     1  UNL1        0.0470
      7  C          6.9750    1.3280   -0.2350 C.2     1  UNL1       -0.0430
      8  C          8.3370    1.5550   -0.3680 C.2     1  UNL1        0.0080
      9  C          6.4440    0.2450   -0.8840 C.2     1  UNL1        0.0540
     10  C          9.1360    0.7250   -1.1220 C.2     1  UNL1        0.0510
     11  C          7.2270   -0.6010   -1.6460 C.2     1  UNL1        0.1660
     12  C          8.5750   -0.3650   -1.7680 C.2     1  UNL1        0.1650
     13  O          6.9130   -1.7340   -2.3760 O.2     1  UNL1       -0.4540
     14  O          9.0890   -1.3720   -2.5860 O.2     1  UNL1       -0.4540
     15  C          8.0290   -2.0460   -3.2240 C.3     1  UNL1        0.4680
@<TRIPOS>BOND
     1    15    14    1
     2    15    13    1
     3    14    12    1
     4    13    11    1
     5    12    11    2
     6    12    10    1
     7    11     9    1
     8    10     8    2
     9     9     7    2
    10     8     7    1
    11     7     6    1
    12     6     1    1
    13     1     2    1
    14     2     3    2
    15     2     4    1
    16     4     5    1
