@<TRIPOS>MOLECULE
/home/cewinharhar/GITHUB/reincatalyze/data/processed/docking_pred/2023-May-17-1006_maxeplen10_maxtrainstep1000_seadep16_gamma099_lrac9e-4_lrcr1e-3_sub6/81487a167534eaf1a49a57d95a0bec7d9495d7bd_ligand_6.pdbqt
 15 16 0 0 0
SMALL
GASTEIGER

@<TRIPOS>ATOM
      1  C          8.2470   -0.2030   -2.8270 C.3     1  UNL1        0.1270
      2  C          8.4820   -1.6220   -3.0400 C.2     1  UNL1        0.3030
      3  O          9.5700   -2.1930   -2.9340 O.2     1  UNL1       -0.2520
      4  O          7.3780   -2.4120   -3.3960 O.3     1  UNL1       -0.4810
      5  H          7.0340   -3.0420   -2.6880 H       1  UNL1        0.2960
      6  C          8.6980    0.2890   -1.5070 C.3     1  UNL1        0.0470
      7  C          7.7430    0.2280   -0.3990 C.2     1  UNL1       -0.0430
      8  C          7.7580   -0.8130    0.5160 C.2     1  UNL1        0.0080
      9  C          6.7740    1.1860   -0.2570 C.2     1  UNL1        0.0540
     10  C          6.8380   -0.8900    1.5370 C.2     1  UNL1        0.0510
     11  C          5.8400    1.1300    0.7600 C.2     1  UNL1        0.1660
     12  C          5.8690    0.0920    1.6600 C.2     1  UNL1        0.1650
     13  O          4.7920    1.9700    1.0930 O.2     1  UNL1       -0.4540
     14  O          4.8190    0.3060    2.5550 O.2     1  UNL1       -0.4540
     15  C          3.9520    1.2890    2.0370 C.3     1  UNL1        0.4680
@<TRIPOS>BOND
     1     4     2    1
     2     4     5    1
     3     2     3    2
     4     2     1    1
     5     1     6    1
     6     6     7    1
     7     7     9    2
     8     7     8    1
     9     9    11    1
    10     8    10    2
    11    11    13    1
    12    11    12    2
    13    13    15    1
    14    10    12    1
    15    12    14    1
    16    15    14    1
