@<TRIPOS>MOLECULE
/home/cewinharhar/GITHUB/reincatalyze/data/processed/docking_pred/2023-May-17-1006_maxeplen10_maxtrainstep1000_seadep16_gamma099_lrac9e-4_lrcr1e-3_sub6/81487a167534eaf1a49a57d95a0bec7d9495d7bd_ligand_6.pdbqt
 15 16 0 0 0
SMALL
GASTEIGER

@<TRIPOS>ATOM
      1  C          5.4230    2.8780    0.1110 C.3     1  UNL1        0.1270
      2  C          6.2470    3.8590    0.8000 C.2     1  UNL1        0.3030
      3  O          6.8730    4.7740    0.2620 O.2     1  UNL1       -0.2520
      4  O          6.3380    3.7570    2.1970 O.3     1  UNL1       -0.4810
      5  H          5.7940    3.0250    2.6270 H       1  UNL1        0.2960
      6  C          5.3550    1.5670    0.7920 C.3     1  UNL1        0.0470
      7  C          6.1360    0.4670    0.2230 C.2     1  UNL1       -0.0430
      8  C          6.6020   -0.5750    1.0110 C.2     1  UNL1        0.0080
      9  C          6.4640    0.4560   -1.1070 C.2     1  UNL1        0.0540
     10  C          7.3670   -1.5910    0.4840 C.2     1  UNL1        0.0510
     11  C          7.2300   -0.5540   -1.6570 C.2     1  UNL1        0.1660
     12  C          7.6840   -1.5810   -0.8650 C.2     1  UNL1        0.1650
     13  O          7.6760   -0.7680   -2.9500 O.2     1  UNL1       -0.4540
     14  O          8.4180   -2.4330   -1.6910 O.2     1  UNL1       -0.4540
     15  C          8.6870   -1.7870   -2.9140 C.3     1  UNL1        0.4680
@<TRIPOS>BOND
     1    13    15    1
     2    13    11    1
     3    15    14    1
     4    14    12    1
     5    11     9    1
     6    11    12    2
     7     9     7    2
     8    12    10    1
     9     1     6    1
    10     1     2    1
    11     7     6    1
    12     7     8    1
    13     3     2    2
    14    10     8    2
    15     2     4    1
    16     4     5    1
