@<TRIPOS>MOLECULE
/home/cewinharhar/GITHUB/reincatalyze/data/processed/docking_pred/2023-May-17-1006_maxeplen10_maxtrainstep1000_seadep16_gamma099_lrac9e-4_lrcr1e-3_sub6/81487a167534eaf1a49a57d95a0bec7d9495d7bd_ligand_6.pdbqt
 15 16 0 0 0
SMALL
GASTEIGER

@<TRIPOS>ATOM
      1  C          6.4270    1.2740    0.7840 C.3     1  UNL1        0.1270
      2  C          5.1580    1.3090    1.4940 C.2     1  UNL1        0.3030
      3  O          4.2650    2.1430    1.3270 O.2     1  UNL1       -0.2520
      4  O          4.9270    0.3110    2.4530 O.3     1  UNL1       -0.4810
      5  H          5.7470   -0.1180    2.8550 H       1  UNL1        0.2960
      6  C          6.3050    0.9150   -0.6450 C.3     1  UNL1        0.0470
      7  C          7.0270   -0.2710   -1.1090 C.2     1  UNL1       -0.0430
      8  C          7.2780   -0.4860   -2.4560 C.2     1  UNL1        0.0080
      9  C          7.4440   -1.2290   -0.2230 C.2     1  UNL1        0.0540
     10  C          7.9250   -1.6190   -2.8970 C.2     1  UNL1        0.0510
     11  C          8.0960   -2.3730   -0.6430 C.2     1  UNL1        0.1660
     12  C          8.3390   -2.5720   -1.9800 C.2     1  UNL1        0.1650
     13  O          8.5980   -3.4540    0.0600 O.2     1  UNL1       -0.4540
     14  O          9.0000   -3.7960   -2.0920 O.2     1  UNL1       -0.4540
     15  C          8.8920   -4.5010   -0.8770 C.3     1  UNL1        0.4680
@<TRIPOS>BOND
     1    10     8    1
     2    10    12    2
     3     8     7    2
     4    14    12    1
     5    14    15    1
     6    12    11    1
     7     7     6    1
     8     7     9    1
     9    15    13    1
    10     6     1    1
    11    11     9    2
    12    11    13    1
    13     1     2    1
    14     3     2    2
    15     2     4    1
    16     4     5    1
