@<TRIPOS>MOLECULE
/home/cewinharhar/GITHUB/reincatalyze/data/processed/docking_pred/2023-May-17-1006_maxeplen10_maxtrainstep1000_seadep16_gamma099_lrac9e-4_lrcr1e-3_sub6/82066193004a6cdbe54a2a950d109d8cafa96b54_ligand_6.pdbqt
 15 16 0 0 0
SMALL
GASTEIGER

@<TRIPOS>ATOM
      1  C          4.7310    1.8400    0.6970 C.3     1  UNL1        0.1270
      2  C          4.4210    1.1320    1.9290 C.2     1  UNL1        0.3030
      3  O          5.1460    0.3010    2.4800 O.2     1  UNL1       -0.2520
      4  O          3.1920    1.4170    2.5450 O.3     1  UNL1       -0.4810
      5  H          2.8830    0.7610    3.2470 H       1  UNL1        0.2960
      6  C          6.1580    2.1980    0.5530 C.3     1  UNL1        0.0470
      7  C          7.0060    1.2970   -0.2310 C.2     1  UNL1       -0.0430
      8  C          8.3660    1.5240   -0.3740 C.2     1  UNL1        0.0080
      9  C          6.4680    0.2180   -0.8810 C.2     1  UNL1        0.0540
     10  C          9.1580    0.6980   -1.1400 C.2     1  UNL1        0.0510
     11  C          7.2440   -0.6250   -1.6540 C.2     1  UNL1        0.1660
     12  C          8.5910   -0.3880   -1.7870 C.2     1  UNL1        0.1650
     13  O          6.9230   -1.7540   -2.3880 O.2     1  UNL1       -0.4540
     14  O          9.0970   -1.3910   -2.6150 O.2     1  UNL1       -0.4540
     15  C          8.0310   -2.0610   -3.2480 C.3     1  UNL1        0.4680
@<TRIPOS>BOND
     1    15    14    1
     2    15    13    1
     3    14    12    1
     4    13    11    1
     5    12    11    2
     6    12    10    1
     7    11     9    1
     8    10     8    2
     9     9     7    2
    10     8     7    1
    11     7     6    1
    12     6     1    1
    13     1     2    1
    14     2     3    2
    15     2     4    1
    16     4     5    1
