@<TRIPOS>MOLECULE
/home/cewinharhar/GITHUB/reincatalyze/data/processed/docking_pred/2023-May-17-1006_maxeplen10_maxtrainstep1000_seadep16_gamma099_lrac9e-4_lrcr1e-3_sub6/82066193004a6cdbe54a2a950d109d8cafa96b54_ligand_6.pdbqt
 15 16 0 0 0
SMALL
GASTEIGER

@<TRIPOS>ATOM
      1  C          5.4200    2.8720    0.1150 C.3     1  UNL1        0.1270
      2  C          6.2490    3.8520    0.7990 C.2     1  UNL1        0.3030
      3  O          6.8900    4.7540    0.2550 O.2     1  UNL1       -0.2520
      4  O          6.3280    3.7660    2.1980 O.3     1  UNL1       -0.4810
      5  H          5.9960    4.5670    2.7130 H       1  UNL1        0.2960
      6  C          5.3590    1.5600    0.7950 C.3     1  UNL1        0.0470
      7  C          6.1370    0.4620    0.2180 C.2     1  UNL1       -0.0430
      8  C          6.5900   -0.5920    0.9970 C.2     1  UNL1        0.0080
      9  C          6.4740    0.4640   -1.1090 C.2     1  UNL1        0.0540
     10  C          7.3520   -1.6070    0.4630 C.2     1  UNL1        0.0510
     11  C          7.2370   -0.5450   -1.6670 C.2     1  UNL1        0.1660
     12  C          7.6790   -1.5830   -0.8830 C.2     1  UNL1        0.1650
     13  O          7.6900   -0.7470   -2.9580 O.2     1  UNL1       -0.4540
     14  O          8.4130   -2.4310   -1.7140 O.2     1  UNL1       -0.4540
     15  C          8.6940   -1.7730   -2.9270 C.3     1  UNL1        0.4680
@<TRIPOS>BOND
     1    13    15    1
     2    13    11    1
     3    15    14    1
     4    14    12    1
     5    11     9    1
     6    11    12    2
     7     9     7    2
     8    12    10    1
     9     1     6    1
    10     1     2    1
    11     7     6    1
    12     7     8    1
    13     3     2    2
    14    10     8    2
    15     2     4    1
    16     4     5    1
