@<TRIPOS>MOLECULE
/home/cewinharhar/GITHUB/reincatalyze/data/processed/docking_pred/2023-May-17-1006_maxeplen10_maxtrainstep1000_seadep16_gamma099_lrac9e-4_lrcr1e-3_sub6/82066193004a6cdbe54a2a950d109d8cafa96b54_ligand_6.pdbqt
 15 16 0 0 0
SMALL
GASTEIGER

@<TRIPOS>ATOM
      1  C          6.4280    1.2350    0.7130 C.3     1  UNL1        0.1270
      2  C          5.2420    1.1380    1.5500 C.2     1  UNL1        0.3030
      3  O          5.0480    0.2900    2.4230 O.2     1  UNL1       -0.2520
      4  O          4.2310    2.0910    1.3490 O.3     1  UNL1       -0.4810
      5  H          3.2860    1.7390    1.3250 H       1  UNL1        0.2960
      6  C          6.2230    0.7670   -0.6740 C.3     1  UNL1        0.0470
      7  C          6.9840   -0.4050   -1.1120 C.2     1  UNL1       -0.0430
      8  C          7.2780   -0.6200   -2.4500 C.2     1  UNL1        0.0080
      9  C          7.3960   -1.3500   -0.2100 C.2     1  UNL1        0.0540
     10  C          7.9620   -1.7400   -2.8680 C.2     1  UNL1        0.0510
     11  C          8.0850   -2.4810   -0.6060 C.2     1  UNL1        0.1660
     12  C          8.3700   -2.6800   -1.9350 C.2     1  UNL1        0.1650
     13  O          8.5910   -3.5480    0.1150 O.2     1  UNL1       -0.4540
     14  O          9.0610   -3.8890   -2.0230 O.2     1  UNL1       -0.4540
     15  C          8.9340   -4.5920   -0.8080 C.3     1  UNL1        0.4680
@<TRIPOS>BOND
     1    10     8    1
     2    10    12    2
     3     8     7    2
     4    14    12    1
     5    14    15    1
     6    12    11    1
     7     7     6    1
     8     7     9    1
     9    15    13    1
    10     6     1    1
    11    11     9    2
    12    11    13    1
    13     1     2    1
    14     5     4    1
    15     4     2    1
    16     2     3    2
