@<TRIPOS>MOLECULE
/home/cewinharhar/GITHUB/reincatalyze/data/processed/docking_pred/2023-May-17-1006_maxeplen10_maxtrainstep1000_seadep16_gamma099_lrac9e-4_lrcr1e-3_sub6/82066193004a6cdbe54a2a950d109d8cafa96b54_ligand_6.pdbqt
 15 16 0 0 0
SMALL
GASTEIGER

@<TRIPOS>ATOM
      1  C          5.5960    2.6530    0.1990 C.3     1  UNL1        0.1270
      2  C          6.2040    3.7460    0.9420 C.2     1  UNL1        0.3030
      3  O          6.1790    3.8820    2.1660 O.2     1  UNL1       -0.2520
      4  O          6.8780    4.7310    0.2030 O.3     1  UNL1       -0.4810
      5  H          7.7920    4.9920    0.5380 H       1  UNL1        0.2960
      6  C          5.7100    1.3380    0.8660 C.3     1  UNL1        0.0470
      7  C          6.4460    0.2840    0.1650 C.2     1  UNL1       -0.0430
      8  C          6.5220    0.2520   -1.2190 C.2     1  UNL1        0.0080
      9  C          7.0520   -0.7290    0.8600 C.2     1  UNL1        0.0540
     10  C          7.1840   -0.7590   -1.8810 C.2     1  UNL1        0.0510
     11  C          7.7210   -1.7520    0.2170 C.2     1  UNL1        0.1660
     12  C          7.7900   -1.7710   -1.1550 C.2     1  UNL1        0.1650
     13  O          8.3950   -2.8580    0.7040 O.2     1  UNL1       -0.4540
     14  O          8.5180   -2.9090   -1.5070 O.2     1  UNL1       -0.4540
     15  C          8.6330   -3.7580   -0.3890 C.3     1  UNL1        0.4680
@<TRIPOS>BOND
     1    10     8    1
     2    10    12    2
     3    14    12    1
     4    14    15    1
     5     8     7    2
     6    12    11    1
     7    15    13    1
     8     7     9    1
     9     7     6    1
    10     1     6    1
    11     1     2    1
    12     4     5    1
    13     4     2    1
    14    11    13    1
    15    11     9    2
    16     2     3    2
