@<TRIPOS>MOLECULE
/home/cewinharhar/GITHUB/reincatalyze/data/processed/docking_pred/2023-May-17-1006_maxeplen10_maxtrainstep1000_seadep16_gamma099_lrac9e-4_lrcr1e-3_sub6/82066193004a6cdbe54a2a950d109d8cafa96b54_ligand_6.pdbqt
 15 16 0 0 0
SMALL
GASTEIGER

@<TRIPOS>ATOM
      1  C          8.3040   -0.3150   -2.8450 C.3     1  UNL1        0.1270
      2  C          8.4640   -1.7440   -3.0680 C.2     1  UNL1        0.3030
      3  O          9.5300   -2.3610   -3.0290 O.2     1  UNL1       -0.2520
      4  O          7.3070   -2.4850   -3.3540 O.3     1  UNL1       -0.4810
      5  H          7.2650   -2.9120   -4.2660 H       1  UNL1        0.2960
      6  C          8.7590    0.1380   -1.5130 C.3     1  UNL1        0.0470
      7  C          7.7890    0.1010   -0.4170 C.2     1  UNL1       -0.0430
      8  C          7.7400   -0.9620    0.4720 C.2     1  UNL1        0.0080
      9  C          6.8700    1.1040   -0.2610 C.2     1  UNL1        0.0540
     10  C          6.8050   -1.0160    1.4810 C.2     1  UNL1        0.0510
     11  C          5.9220    1.0720    0.7450 C.2     1  UNL1        0.1660
     12  C          5.8860    0.0130    1.6190 C.2     1  UNL1        0.1650
     13  O          4.9150    1.9570    1.0870 O.2     1  UNL1       -0.4540
     14  O          4.8380    0.2590    2.5080 O.2     1  UNL1       -0.4540
     15  C          4.0300    1.2980    2.0050 C.3     1  UNL1        0.4680
@<TRIPOS>BOND
     1     5     4    1
     2     4     2    1
     3     2     3    2
     4     2     1    1
     5     1     6    1
     6     6     7    1
     7     7     9    2
     8     7     8    1
     9     9    11    1
    10     8    10    2
    11    11    13    1
    12    11    12    2
    13    13    15    1
    14    10    12    1
    15    12    14    1
    16    15    14    1
