@<TRIPOS>MOLECULE
/home/cewinharhar/GITHUB/reincatalyze/data/processed/docking_pred/2023-May-17-1006_maxeplen10_maxtrainstep1000_seadep16_gamma099_lrac9e-4_lrcr1e-3_sub6/84f6a015bafc2578e701aafee66be27aa4cb1192_ligand_6.pdbqt
 15 16 0 0 0
SMALL
GASTEIGER

@<TRIPOS>ATOM
      1  C          8.3100   -0.3230   -2.8470 C.3     1  UNL1        0.1270
      2  C          8.4700   -1.7520   -3.0680 C.2     1  UNL1        0.3030
      3  O          9.5360   -2.3680   -3.0320 O.2     1  UNL1       -0.2520
      4  O          7.3110   -2.4950   -3.3470 O.3     1  UNL1       -0.4810
      5  H          6.7590   -2.7740   -2.5510 H       1  UNL1        0.2960
      6  C          8.7610    0.1320   -1.5150 C.3     1  UNL1        0.0470
      7  C          7.7870    0.0950   -0.4210 C.2     1  UNL1       -0.0430
      8  C          7.7290   -0.9730    0.4610 C.2     1  UNL1        0.0080
      9  C          6.8740    1.1030   -0.2620 C.2     1  UNL1        0.0540
     10  C          6.7910   -1.0260    1.4680 C.2     1  UNL1        0.0510
     11  C          5.9240    1.0710    0.7410 C.2     1  UNL1        0.1660
     12  C          5.8790    0.0070    1.6090 C.2     1  UNL1        0.1650
     13  O          4.9210    1.9610    1.0860 O.2     1  UNL1       -0.4540
     14  O          4.8300    0.2550    2.4970 O.2     1  UNL1       -0.4540
     15  C          4.0300    1.3020    1.9980 C.3     1  UNL1        0.4680
@<TRIPOS>BOND
     1     4     2    1
     2     4     5    1
     3     2     3    2
     4     2     1    1
     5     1     6    1
     6     6     7    1
     7     7     9    2
     8     7     8    1
     9     9    11    1
    10     8    10    2
    11    11    13    1
    12    11    12    2
    13    13    15    1
    14    10    12    1
    15    12    14    1
    16    15    14    1
