@<TRIPOS>MOLECULE
/home/cewinharhar/GITHUB/reincatalyze/data/processed/docking_pred/2023-May-17-1006_maxeplen10_maxtrainstep1000_seadep16_gamma099_lrac9e-4_lrcr1e-3_sub6/84f6a015bafc2578e701aafee66be27aa4cb1192_ligand_6.pdbqt
 15 16 0 0 0
SMALL
GASTEIGER

@<TRIPOS>ATOM
      1  C          4.7070    1.8930    0.6840 C.3     1  UNL1        0.1270
      2  C          4.4050    1.1750    1.9120 C.2     1  UNL1        0.3030
      3  O          5.1350    0.3440    2.4550 O.2     1  UNL1       -0.2520
      4  O          3.1780    1.4520    2.5350 O.3     1  UNL1       -0.4810
      5  H          3.2250    1.9590    3.4050 H       1  UNL1        0.2960
      6  C          6.1340    2.2500    0.5320 C.3     1  UNL1        0.0470
      7  C          6.9810    1.3390   -0.2400 C.2     1  UNL1       -0.0430
      8  C          8.3450    1.5520   -0.3680 C.2     1  UNL1        0.0080
      9  C          6.4400    0.2640   -0.8940 C.2     1  UNL1        0.0540
     10  C          9.1380    0.7170   -1.1230 C.2     1  UNL1        0.0510
     11  C          7.2160   -0.5880   -1.6570 C.2     1  UNL1        0.1660
     12  C          8.5670   -0.3650   -1.7740 C.2     1  UNL1        0.1650
     13  O          6.8920   -1.7150   -2.3920 O.2     1  UNL1       -0.4540
     14  O          9.0720   -1.3750   -2.5950 O.2     1  UNL1       -0.4540
     15  C          8.0070   -2.0350   -3.2390 C.3     1  UNL1        0.4680
@<TRIPOS>BOND
     1    15    14    1
     2    15    13    1
     3    14    12    1
     4    13    11    1
     5    12    11    2
     6    12    10    1
     7    11     9    1
     8    10     8    2
     9     9     7    2
    10     8     7    1
    11     7     6    1
    12     6     1    1
    13     1     2    1
    14     2     3    2
    15     2     4    1
    16     4     5    1
