@<TRIPOS>MOLECULE
/home/cewinharhar/GITHUB/reincatalyze/data/processed/docking_pred/2023-May-17-1006_maxeplen10_maxtrainstep1000_seadep16_gamma099_lrac9e-4_lrcr1e-3_sub6/84f6a015bafc2578e701aafee66be27aa4cb1192_ligand_6.pdbqt
 15 16 0 0 0
SMALL
GASTEIGER

@<TRIPOS>ATOM
      1  C          5.5440    2.7620   -0.1290 C.3     1  UNL1        0.1270
      2  C          6.1800    3.6830    0.8000 C.2     1  UNL1        0.3030
      3  O          6.1630    3.5890    2.0280 O.2     1  UNL1       -0.2520
      4  O          6.8740    4.7740    0.2520 O.3     1  UNL1       -0.4810
      5  H          6.7070    5.6700    0.6840 H       1  UNL1        0.2960
      6  C          5.3530    1.4000    0.4130 C.3     1  UNL1        0.0470
      7  C          6.2190    0.3370   -0.1030 C.2     1  UNL1       -0.0430
      8  C          6.5390    0.2540   -1.4500 C.2     1  UNL1        0.0080
      9  C          6.7090   -0.6330    0.7290 C.2     1  UNL1        0.0540
     10  C          7.3240   -0.7650   -1.9430 C.2     1  UNL1        0.0510
     11  C          7.4990   -1.6650    0.2570 C.2     1  UNL1        0.1660
     12  C          7.8090   -1.7340   -1.0800 C.2     1  UNL1        0.1650
     13  O          8.0940   -2.7350    0.9010 O.2     1  UNL1       -0.4540
     14  O          8.6070   -2.8670   -1.2500 O.2     1  UNL1       -0.4540
     15  C          8.5360   -3.6700   -0.0950 C.3     1  UNL1        0.4680
@<TRIPOS>BOND
     1    10     8    1
     2    10    12    2
     3     8     7    2
     4    14    12    1
     5    14    15    1
     6    12    11    1
     7     1     6    1
     8     1     2    1
     9     7     6    1
    10     7     9    1
    11    15    13    1
    12     4     5    1
    13     4     2    1
    14    11     9    2
    15    11    13    1
    16     2     3    2
