MODEL 1
REMARK VINA RESULT:      -7.6      0.000      0.000
REMARK SMILES O=C(O)CCc1ccc2c(c1)OCO2
REMARK SMILES IDX 4 1 2 2 1 3 3 4 5 6 6 7 7 8 11 9 8 10 10 11 9 12 12 13 14 14
REMARK SMILES IDX 13 15
REMARK H PARENT 3 5
REMARK Flexibility Score: inf
ROOT
ATOM      1  C   UNL     1       5.428   2.873   0.105  1.00  0.00     0.127 C 
ENDROOT
BRANCH   1   2
ATOM      2  C   UNL     1       6.258   3.852   0.789  1.00  0.00     0.303 C 
ATOM      3  O   UNL     1       6.926   4.733   0.243  1.00  0.00    -0.252 OA
BRANCH   2   4
ATOM      4  O   UNL     1       6.305   3.792   2.190  1.00  0.00    -0.481 OA
ATOM      5  H   UNL     1       5.518   4.189   2.680  1.00  0.00     0.296 HD
ENDBRANCH   2   4
ENDBRANCH   1   2
BRANCH   1   6
ATOM      6  C   UNL     1       5.355   1.565   0.791  1.00  0.00     0.047 C 
BRANCH   6   7
ATOM      7  C   UNL     1       6.125   0.457   0.221  1.00  0.00    -0.043 A 
ATOM      8  C   UNL     1       6.548  -0.608   1.000  1.00  0.00     0.008 A 
ATOM      9  C   UNL     1       6.483   0.461  -1.101  1.00  0.00     0.054 A 
ATOM     10  C   UNL     1       7.302  -1.633   0.473  1.00  0.00     0.051 A 
ATOM     11  C   UNL     1       7.239  -0.556  -1.652  1.00  0.00     0.166 A 
ATOM     12  C   UNL     1       7.651  -1.606  -0.868  1.00  0.00     0.165 A 
ATOM     13  O   UNL     1       7.709  -0.758  -2.938  1.00  0.00    -0.454 OA
ATOM     14  O   UNL     1       8.385  -2.461  -1.692  1.00  0.00    -0.454 OA
ATOM     15  C   UNL     1       8.696  -1.800  -2.897  1.00  0.00     0.468 C 
ENDBRANCH   6   7
ENDBRANCH   1   6
TORSDOF 4
ENDMDL
MODEL 2
REMARK VINA RESULT:      -7.6      2.126      2.518
REMARK SMILES O=C(O)CCc1ccc2c(c1)OCO2
REMARK SMILES IDX 4 1 2 2 1 3 3 4 5 6 6 7 7 8 11 9 8 10 10 11 9 12 12 13 14 14
REMARK SMILES IDX 13 15
REMARK H PARENT 3 5
REMARK Flexibility Score: inf
ROOT
ATOM      1  C   UNL     1       4.707   1.893   0.684  1.00  0.00     0.127 C 
ENDROOT
BRANCH   1   2
ATOM      2  C   UNL     1       4.405   1.175   1.912  1.00  0.00     0.303 C 
ATOM      3  O   UNL     1       5.135   0.344   2.455  1.00  0.00    -0.252 OA
BRANCH   2   4
ATOM      4  O   UNL     1       3.178   1.452   2.535  1.00  0.00    -0.481 OA
ATOM      5  H   UNL     1       3.225   1.959   3.405  1.00  0.00     0.296 HD
ENDBRANCH   2   4
ENDBRANCH   1   2
BRANCH   1   6
ATOM      6  C   UNL     1       6.134   2.250   0.532  1.00  0.00     0.047 C 
BRANCH   6   7
ATOM      7  C   UNL     1       6.981   1.339  -0.240  1.00  0.00    -0.043 A 
ATOM      8  C   UNL     1       8.345   1.552  -0.368  1.00  0.00     0.008 A 
ATOM      9  C   UNL     1       6.440   0.264  -0.894  1.00  0.00     0.054 A 
ATOM     10  C   UNL     1       9.138   0.717  -1.123  1.00  0.00     0.051 A 
ATOM     11  C   UNL     1       7.216  -0.588  -1.657  1.00  0.00     0.166 A 
ATOM     12  C   UNL     1       8.567  -0.365  -1.774  1.00  0.00     0.165 A 
ATOM     13  O   UNL     1       6.892  -1.715  -2.392  1.00  0.00    -0.454 OA
ATOM     14  O   UNL     1       9.072  -1.375  -2.595  1.00  0.00    -0.454 OA
ATOM     15  C   UNL     1       8.007  -2.035  -3.239  1.00  0.00     0.468 C 
ENDBRANCH   6   7
ENDBRANCH   1   6
TORSDOF 4
ENDMDL
MODEL 3
REMARK VINA RESULT:      -7.5      1.989      2.896
REMARK SMILES O=C(O)CCc1ccc2c(c1)OCO2
REMARK SMILES IDX 4 1 2 2 1 3 3 4 5 6 6 7 7 8 11 9 8 10 10 11 9 12 12 13 14 14
REMARK SMILES IDX 13 15
REMARK H PARENT 3 5
REMARK Flexibility Score: inf
ROOT
ATOM      1  C   UNL     1       6.406   1.296   0.688  1.00  0.00     0.127 C 
ENDROOT
BRANCH   1   2
ATOM      2  C   UNL     1       5.182   1.299   1.474  1.00  0.00     0.303 C 
ATOM      3  O   UNL     1       4.242   2.084   1.334  1.00  0.00    -0.252 OA
BRANCH   2   4
ATOM      4  O   UNL     1       5.059   0.326   2.478  1.00  0.00    -0.481 OA
ATOM      5  H   UNL     1       5.820  -0.330   2.558  1.00  0.00     0.296 HD
ENDBRANCH   2   4
ENDBRANCH   1   2
BRANCH   1   6
ATOM      6  C   UNL     1       6.227   0.815  -0.699  1.00  0.00     0.047 C 
BRANCH   6   7
ATOM      7  C   UNL     1       6.982  -0.372  -1.106  1.00  0.00    -0.043 A 
ATOM      8  C   UNL     1       7.280  -0.619  -2.437  1.00  0.00     0.008 A 
ATOM      9  C   UNL     1       7.383  -1.298  -0.181  1.00  0.00     0.054 A 
ATOM     10  C   UNL     1       7.958  -1.753  -2.826  1.00  0.00     0.051 A 
ATOM     11  C   UNL     1       8.065  -2.443  -0.547  1.00  0.00     0.166 A 
ATOM     12  C   UNL     1       8.355  -2.675  -1.870  1.00  0.00     0.165 A 
ATOM     13  O   UNL     1       8.560  -3.497   0.201  1.00  0.00    -0.454 OA
ATOM     14  O   UNL     1       9.038  -3.891  -1.926  1.00  0.00    -0.454 OA
ATOM     15  C   UNL     1       8.900  -4.565  -0.697  1.00  0.00     0.468 C 
ENDBRANCH   6   7
ENDBRANCH   1   6
TORSDOF 4
ENDMDL
MODEL 4
REMARK VINA RESULT:      -7.4      1.797      5.283
REMARK SMILES O=C(O)CCc1ccc2c(c1)OCO2
REMARK SMILES IDX 4 1 2 2 1 3 3 4 5 6 6 7 7 8 11 9 8 10 10 11 9 12 12 13 14 14
REMARK SMILES IDX 13 15
REMARK H PARENT 3 5
REMARK Flexibility Score: inf
ROOT
ATOM      1  C   UNL     1       8.310  -0.323  -2.847  1.00  0.00     0.127 C 
ENDROOT
BRANCH   1   2
ATOM      2  C   UNL     1       8.470  -1.752  -3.068  1.00  0.00     0.303 C 
ATOM      3  O   UNL     1       9.536  -2.368  -3.032  1.00  0.00    -0.252 OA
BRANCH   2   4
ATOM      4  O   UNL     1       7.311  -2.495  -3.347  1.00  0.00    -0.481 OA
ATOM      5  H   UNL     1       6.759  -2.774  -2.551  1.00  0.00     0.296 HD
ENDBRANCH   2   4
ENDBRANCH   1   2
BRANCH   1   6
ATOM      6  C   UNL     1       8.761   0.132  -1.515  1.00  0.00     0.047 C 
BRANCH   6   7
ATOM      7  C   UNL     1       7.787   0.095  -0.421  1.00  0.00    -0.043 A 
ATOM      8  C   UNL     1       7.729  -0.973   0.461  1.00  0.00     0.008 A 
ATOM      9  C   UNL     1       6.874   1.103  -0.262  1.00  0.00     0.054 A 
ATOM     10  C   UNL     1       6.791  -1.026   1.468  1.00  0.00     0.051 A 
ATOM     11  C   UNL     1       5.924   1.071   0.741  1.00  0.00     0.166 A 
ATOM     12  C   UNL     1       5.879   0.007   1.609  1.00  0.00     0.165 A 
ATOM     13  O   UNL     1       4.921   1.961   1.086  1.00  0.00    -0.454 OA
ATOM     14  O   UNL     1       4.830   0.255   2.497  1.00  0.00    -0.454 OA
ATOM     15  C   UNL     1       4.030   1.302   1.998  1.00  0.00     0.468 C 
ENDBRANCH   6   7
ENDBRANCH   1   6
TORSDOF 4
ENDMDL
MODEL 5
REMARK VINA RESULT:      -7.4      1.001      2.139
REMARK SMILES O=C(O)CCc1ccc2c(c1)OCO2
REMARK SMILES IDX 4 1 2 2 1 3 3 4 5 6 6 7 7 8 11 9 8 10 10 11 9 12 12 13 14 14
REMARK SMILES IDX 13 15
REMARK H PARENT 3 5
REMARK Flexibility Score: inf
ROOT
ATOM      1  C   UNL     1       5.544   2.762  -0.129  1.00  0.00     0.127 C 
ENDROOT
BRANCH   1   2
ATOM      2  C   UNL     1       6.180   3.683   0.800  1.00  0.00     0.303 C 
ATOM      3  O   UNL     1       6.163   3.589   2.028  1.00  0.00    -0.252 OA
BRANCH   2   4
ATOM      4  O   UNL     1       6.874   4.774   0.252  1.00  0.00    -0.481 OA
ATOM      5  H   UNL     1       6.707   5.670   0.684  1.00  0.00     0.296 HD
ENDBRANCH   2   4
ENDBRANCH   1   2
BRANCH   1   6
ATOM      6  C   UNL     1       5.353   1.400   0.413  1.00  0.00     0.047 C 
BRANCH   6   7
ATOM      7  C   UNL     1       6.219   0.337  -0.103  1.00  0.00    -0.043 A 
ATOM      8  C   UNL     1       6.539   0.254  -1.450  1.00  0.00     0.008 A 
ATOM      9  C   UNL     1       6.709  -0.633   0.729  1.00  0.00     0.054 A 
ATOM     10  C   UNL     1       7.324  -0.765  -1.943  1.00  0.00     0.051 A 
ATOM     11  C   UNL     1       7.499  -1.665   0.257  1.00  0.00     0.166 A 
ATOM     12  C   UNL     1       7.809  -1.734  -1.080  1.00  0.00     0.165 A 
ATOM     13  O   UNL     1       8.094  -2.735   0.901  1.00  0.00    -0.454 OA
ATOM     14  O   UNL     1       8.607  -2.867  -1.250  1.00  0.00    -0.454 OA
ATOM     15  C   UNL     1       8.536  -3.670  -0.095  1.00  0.00     0.468 C 
ENDBRANCH   6   7
ENDBRANCH   1   6
TORSDOF 4
ENDMDL
