@<TRIPOS>MOLECULE
/home/cewinharhar/GITHUB/reincatalyze/data/processed/docking_pred/2023-May-17-1006_maxeplen10_maxtrainstep1000_seadep16_gamma099_lrac9e-4_lrcr1e-3_sub6/84f6a015bafc2578e701aafee66be27aa4cb1192_ligand_6.pdbqt
 15 16 0 0 0
SMALL
GASTEIGER

@<TRIPOS>ATOM
      1  C          6.4060    1.2960    0.6880 C.3     1  UNL1        0.1270
      2  C          5.1820    1.2990    1.4740 C.2     1  UNL1        0.3030
      3  O          4.2420    2.0840    1.3340 O.2     1  UNL1       -0.2520
      4  O          5.0590    0.3260    2.4780 O.3     1  UNL1       -0.4810
      5  H          5.8200   -0.3300    2.5580 H       1  UNL1        0.2960
      6  C          6.2270    0.8150   -0.6990 C.3     1  UNL1        0.0470
      7  C          6.9820   -0.3720   -1.1060 C.2     1  UNL1       -0.0430
      8  C          7.2800   -0.6190   -2.4370 C.2     1  UNL1        0.0080
      9  C          7.3830   -1.2980   -0.1810 C.2     1  UNL1        0.0540
     10  C          7.9580   -1.7530   -2.8260 C.2     1  UNL1        0.0510
     11  C          8.0650   -2.4430   -0.5470 C.2     1  UNL1        0.1660
     12  C          8.3550   -2.6750   -1.8700 C.2     1  UNL1        0.1650
     13  O          8.5600   -3.4970    0.2010 O.2     1  UNL1       -0.4540
     14  O          9.0380   -3.8910   -1.9260 O.2     1  UNL1       -0.4540
     15  C          8.9000   -4.5650   -0.6970 C.3     1  UNL1        0.4680
@<TRIPOS>BOND
     1    10     8    1
     2    10    12    2
     3     8     7    2
     4    14    12    1
     5    14    15    1
     6    12    11    1
     7     7     6    1
     8     7     9    1
     9     6     1    1
    10    15    13    1
    11    11     9    2
    12    11    13    1
    13     1     2    1
    14     3     2    2
    15     2     4    1
    16     4     5    1
