@<TRIPOS>MOLECULE
/home/cewinharhar/GITHUB/reincatalyze/data/processed/docking_pred/2023-May-17-1006_maxeplen10_maxtrainstep1000_seadep16_gamma099_lrac9e-4_lrcr1e-3_sub6/84f6a015bafc2578e701aafee66be27aa4cb1192_ligand_6.pdbqt
 15 16 0 0 0
SMALL
GASTEIGER

@<TRIPOS>ATOM
      1  C          5.4280    2.8730    0.1050 C.3     1  UNL1        0.1270
      2  C          6.2580    3.8520    0.7890 C.2     1  UNL1        0.3030
      3  O          6.9260    4.7330    0.2430 O.2     1  UNL1       -0.2520
      4  O          6.3050    3.7920    2.1900 O.3     1  UNL1       -0.4810
      5  H          5.5180    4.1890    2.6800 H       1  UNL1        0.2960
      6  C          5.3550    1.5650    0.7910 C.3     1  UNL1        0.0470
      7  C          6.1250    0.4570    0.2210 C.2     1  UNL1       -0.0430
      8  C          6.5480   -0.6080    1.0000 C.2     1  UNL1        0.0080
      9  C          6.4830    0.4610   -1.1010 C.2     1  UNL1        0.0540
     10  C          7.3020   -1.6330    0.4730 C.2     1  UNL1        0.0510
     11  C          7.2390   -0.5560   -1.6520 C.2     1  UNL1        0.1660
     12  C          7.6510   -1.6060   -0.8680 C.2     1  UNL1        0.1650
     13  O          7.7090   -0.7580   -2.9380 O.2     1  UNL1       -0.4540
     14  O          8.3850   -2.4610   -1.6920 O.2     1  UNL1       -0.4540
     15  C          8.6960   -1.8000   -2.8970 C.3     1  UNL1        0.4680
@<TRIPOS>BOND
     1    13    15    1
     2    13    11    1
     3    15    14    1
     4    14    12    1
     5    11     9    1
     6    11    12    2
     7     9     7    2
     8    12    10    1
     9     1     2    1
    10     1     6    1
    11     7     6    1
    12     7     8    1
    13     3     2    2
    14    10     8    2
    15     2     4    1
    16     4     5    1
