@<TRIPOS>MOLECULE
/home/cewinharhar/GITHUB/reincatalyze/data/processed/docking_pred/2023-May-17-1006_maxeplen10_maxtrainstep1000_seadep16_gamma099_lrac9e-4_lrcr1e-3_sub6/8651a6b7cbc4b018fd9bb7015a505d05e6fdae34_ligand_6.pdbqt
 15 16 0 0 0
SMALL
GASTEIGER

@<TRIPOS>ATOM
      1  C          8.1580   -0.5240   -2.2430 C.3     1  UNL1        0.1270
      2  C          8.4030   -1.7910   -2.9130 C.2     1  UNL1        0.3030
      3  O          9.5040   -2.3280   -3.0530 O.2     1  UNL1       -0.2520
      4  O          7.2920   -2.4630   -3.4460 O.3     1  UNL1       -0.4810
      5  H          6.4290   -1.9430   -3.4760 H       1  UNL1        0.2960
      6  C          6.8560   -0.4540   -1.5470 C.3     1  UNL1        0.0470
      7  C          6.6230    0.6870   -0.6590 C.2     1  UNL1       -0.0430
      8  C          5.4780    1.4630   -0.7610 C.2     1  UNL1        0.0080
      9  C          7.5540    1.0450    0.2800 C.2     1  UNL1        0.0540
     10  C          5.2740    2.5570    0.0490 C.2     1  UNL1        0.0510
     11  C          7.3700    2.1390    1.1040 C.2     1  UNL1        0.1660
     12  C          6.2300    2.8990    0.9920 C.2     1  UNL1        0.1650
     13  O          8.1600    2.6790    2.1040 O.2     1  UNL1       -0.4540
     14  O          6.3300    3.9170    1.9410 O.2     1  UNL1       -0.4540
     15  C          7.6520    3.9830    2.4230 C.3     1  UNL1        0.4680
@<TRIPOS>BOND
     1     5     4    1
     2     4     2    1
     3     3     2    2
     4     2     1    1
     5     1     6    1
     6     6     7    1
     7     8     7    2
     8     8    10    1
     9     7     9    1
    10    10    12    2
    11     9    11    2
    12    12    11    1
    13    12    14    1
    14    11    13    1
    15    14    15    1
    16    13    15    1
