@<TRIPOS>MOLECULE
/home/cewinharhar/GITHUB/reincatalyze/data/processed/docking_pred/2023-May-17-1006_maxeplen10_maxtrainstep1000_seadep16_gamma099_lrac9e-4_lrcr1e-3_sub6/8651a6b7cbc4b018fd9bb7015a505d05e6fdae34_ligand_6.pdbqt
 15 16 0 0 0
SMALL
GASTEIGER

@<TRIPOS>ATOM
      1  C          4.7370    1.9030    0.7860 C.3     1  UNL1        0.1270
      2  C          4.3630    1.1430    1.9690 C.2     1  UNL1        0.3030
      3  O          5.0340    0.2500    2.4890 O.2     1  UNL1       -0.2520
      4  O          3.1330    1.4510    2.5700 O.3     1  UNL1       -0.4810
      5  H          2.7690    2.3740    2.3920 H       1  UNL1        0.2960
      6  C          6.1760    2.2330    0.7150 C.3     1  UNL1        0.0470
      7  C          7.0370    1.3460   -0.0700 C.2     1  UNL1       -0.0430
      8  C          8.4080    1.5360   -0.1340 C.2     1  UNL1        0.0080
      9  C          6.5020    0.3180   -0.8010 C.2     1  UNL1        0.0540
     10  C          9.2150    0.7250   -0.9010 C.2     1  UNL1        0.0510
     11  C          7.2910   -0.5090   -1.5770 C.2     1  UNL1        0.1660
     12  C          8.6500   -0.3090   -1.6300 C.2     1  UNL1        0.1650
     13  O          6.9760   -1.5890   -2.3820 O.2     1  UNL1       -0.4540
     14  O          9.1680   -1.2850   -2.4820 O.2     1  UNL1       -0.4540
     15  C          8.1170   -1.8880   -3.2010 C.3     1  UNL1        0.4680
@<TRIPOS>BOND
     1    15    14    1
     2    15    13    1
     3    14    12    1
     4    13    11    1
     5    12    11    2
     6    12    10    1
     7    11     9    1
     8    10     8    2
     9     9     7    2
    10     8     7    1
    11     7     6    1
    12     6     1    1
    13     1     2    1
    14     2     3    2
    15     2     4    1
    16     5     4    1
