MODEL 1
REMARK VINA RESULT:      -7.7      0.000      0.000
REMARK SMILES O=C(O)CCc1ccc2c(c1)OCO2
REMARK SMILES IDX 4 1 2 2 1 3 3 4 5 6 6 7 7 8 11 9 8 10 10 11 9 12 12 13 14 14
REMARK SMILES IDX 13 15
REMARK H PARENT 3 5
REMARK Flexibility Score: inf
ROOT
ATOM      1  C   UNL     1       8.158  -0.524  -2.243  1.00  0.00     0.127 C 
ENDROOT
BRANCH   1   2
ATOM      2  C   UNL     1       8.403  -1.791  -2.913  1.00  0.00     0.303 C 
ATOM      3  O   UNL     1       9.504  -2.328  -3.053  1.00  0.00    -0.252 OA
BRANCH   2   4
ATOM      4  O   UNL     1       7.292  -2.463  -3.446  1.00  0.00    -0.481 OA
ATOM      5  H   UNL     1       6.429  -1.943  -3.476  1.00  0.00     0.296 HD
ENDBRANCH   2   4
ENDBRANCH   1   2
BRANCH   1   6
ATOM      6  C   UNL     1       6.856  -0.454  -1.547  1.00  0.00     0.047 C 
BRANCH   6   7
ATOM      7  C   UNL     1       6.623   0.687  -0.659  1.00  0.00    -0.043 A 
ATOM      8  C   UNL     1       5.478   1.463  -0.761  1.00  0.00     0.008 A 
ATOM      9  C   UNL     1       7.554   1.045   0.280  1.00  0.00     0.054 A 
ATOM     10  C   UNL     1       5.274   2.557   0.049  1.00  0.00     0.051 A 
ATOM     11  C   UNL     1       7.370   2.139   1.104  1.00  0.00     0.166 A 
ATOM     12  C   UNL     1       6.230   2.899   0.992  1.00  0.00     0.165 A 
ATOM     13  O   UNL     1       8.160   2.679   2.104  1.00  0.00    -0.454 OA
ATOM     14  O   UNL     1       6.330   3.917   1.941  1.00  0.00    -0.454 OA
ATOM     15  C   UNL     1       7.652   3.983   2.423  1.00  0.00     0.468 C 
ENDBRANCH   6   7
ENDBRANCH   1   6
TORSDOF 4
ENDMDL
MODEL 2
REMARK VINA RESULT:      -7.5      1.909      5.638
REMARK SMILES O=C(O)CCc1ccc2c(c1)OCO2
REMARK SMILES IDX 4 1 2 2 1 3 3 4 5 6 6 7 7 8 11 9 8 10 10 11 9 12 12 13 14 14
REMARK SMILES IDX 13 15
REMARK H PARENT 3 5
REMARK Flexibility Score: inf
ROOT
ATOM      1  C   UNL     1       4.737   1.903   0.786  1.00  0.00     0.127 C 
ENDROOT
BRANCH   1   2
ATOM      2  C   UNL     1       4.363   1.143   1.969  1.00  0.00     0.303 C 
ATOM      3  O   UNL     1       5.034   0.250   2.489  1.00  0.00    -0.252 OA
BRANCH   2   4
ATOM      4  O   UNL     1       3.133   1.451   2.570  1.00  0.00    -0.481 OA
ATOM      5  H   UNL     1       2.769   2.374   2.392  1.00  0.00     0.296 HD
ENDBRANCH   2   4
ENDBRANCH   1   2
BRANCH   1   6
ATOM      6  C   UNL     1       6.176   2.233   0.715  1.00  0.00     0.047 C 
BRANCH   6   7
ATOM      7  C   UNL     1       7.037   1.346  -0.070  1.00  0.00    -0.043 A 
ATOM      8  C   UNL     1       8.408   1.536  -0.134  1.00  0.00     0.008 A 
ATOM      9  C   UNL     1       6.502   0.318  -0.801  1.00  0.00     0.054 A 
ATOM     10  C   UNL     1       9.215   0.725  -0.901  1.00  0.00     0.051 A 
ATOM     11  C   UNL     1       7.291  -0.509  -1.577  1.00  0.00     0.166 A 
ATOM     12  C   UNL     1       8.650  -0.309  -1.630  1.00  0.00     0.165 A 
ATOM     13  O   UNL     1       6.976  -1.589  -2.382  1.00  0.00    -0.454 OA
ATOM     14  O   UNL     1       9.168  -1.285  -2.482  1.00  0.00    -0.454 OA
ATOM     15  C   UNL     1       8.117  -1.888  -3.201  1.00  0.00     0.468 C 
ENDBRANCH   6   7
ENDBRANCH   1   6
TORSDOF 4
ENDMDL
MODEL 3
REMARK VINA RESULT:      -7.2      1.952      2.056
REMARK SMILES O=C(O)CCc1ccc2c(c1)OCO2
REMARK SMILES IDX 4 1 2 2 1 3 3 4 5 6 6 7 7 8 11 9 8 10 10 11 9 12 12 13 14 14
REMARK SMILES IDX 13 15
REMARK H PARENT 3 5
REMARK Flexibility Score: inf
ROOT
ATOM      1  C   UNL     1       7.395  -1.611  -0.921  1.00  0.00     0.127 C 
ENDROOT
BRANCH   1   2
ATOM      2  C   UNL     1       7.820  -1.986   0.418  1.00  0.00     0.303 C 
ATOM      3  O   UNL     1       8.953  -1.836   0.879  1.00  0.00    -0.252 OA
BRANCH   2   4
ATOM      4  O   UNL     1       6.860  -2.569   1.260  1.00  0.00    -0.481 OA
ATOM      5  H   UNL     1       7.018  -2.471   2.251  1.00  0.00     0.296 HD
ENDBRANCH   2   4
ENDBRANCH   1   2
BRANCH   1   6
ATOM      6  C   UNL     1       7.761  -0.231  -1.303  1.00  0.00     0.047 C 
BRANCH   6   7
ATOM      7  C   UNL     1       7.153   0.866  -0.546  1.00  0.00    -0.043 A 
ATOM      8  C   UNL     1       5.790   1.114  -0.598  1.00  0.00     0.008 A 
ATOM      9  C   UNL     1       7.925   1.707   0.210  1.00  0.00     0.054 A 
ATOM     10  C   UNL     1       5.222   2.166   0.084  1.00  0.00     0.051 A 
ATOM     11  C   UNL     1       7.377   2.769   0.903  1.00  0.00     0.166 A 
ATOM     12  C   UNL     1       6.024   3.003   0.843  1.00  0.00     0.165 A 
ATOM     13  O   UNL     1       7.952   3.731   1.716  1.00  0.00    -0.454 OA
ATOM     14  O   UNL     1       5.773   4.126   1.633  1.00  0.00    -0.454 OA
ATOM     15  C   UNL     1       6.989   4.775   1.927  1.00  0.00     0.468 C 
ENDBRANCH   6   7
ENDBRANCH   1   6
TORSDOF 4
ENDMDL
MODEL 4
REMARK VINA RESULT:      -7.2      2.327      5.416
REMARK SMILES O=C(O)CCc1ccc2c(c1)OCO2
REMARK SMILES IDX 4 1 2 2 1 3 3 4 5 6 6 7 7 8 11 9 8 10 10 11 9 12 12 13 14 14
REMARK SMILES IDX 13 15
REMARK H PARENT 3 5
REMARK Flexibility Score: inf
ROOT
ATOM      1  C   UNL     1       6.120   3.640   0.076  1.00  0.00     0.127 C 
ENDROOT
BRANCH   1   2
ATOM      2  C   UNL     1       6.694   3.886   1.389  1.00  0.00     0.303 C 
ATOM      3  O   UNL     1       6.115   4.424   2.335  1.00  0.00    -0.252 OA
BRANCH   2   4
ATOM      4  O   UNL     1       8.020   3.477   1.600  1.00  0.00    -0.481 OA
ATOM      5  H   UNL     1       8.697   4.212   1.732  1.00  0.00     0.296 HD
ENDBRANCH   2   4
ENDBRANCH   1   2
BRANCH   1   6
ATOM      6  C   UNL     1       5.148   2.526   0.044  1.00  0.00     0.047 C 
BRANCH   6   7
ATOM      7  C   UNL     1       5.615   1.207   0.478  1.00  0.00    -0.043 A 
ATOM      8  C   UNL     1       5.245   0.675   1.703  1.00  0.00     0.008 A 
ATOM      9  C   UNL     1       6.467   0.474  -0.304  1.00  0.00     0.054 A 
ATOM     10  C   UNL     1       5.712  -0.549   2.128  1.00  0.00     0.051 A 
ATOM     11  C   UNL     1       6.948  -0.756   0.101  1.00  0.00     0.166 A 
ATOM     12  C   UNL     1       6.572  -1.272   1.318  1.00  0.00     0.165 A 
ATOM     13  O   UNL     1       7.802  -1.657  -0.513  1.00  0.00    -0.454 OA
ATOM     14  O   UNL     1       7.210  -2.508   1.445  1.00  0.00    -0.454 OA
ATOM     15  C   UNL     1       8.217  -2.621   0.467  1.00  0.00     0.468 C 
ENDBRANCH   6   7
ENDBRANCH   1   6
TORSDOF 4
ENDMDL
MODEL 5
REMARK VINA RESULT:      -7.1      3.284      4.946
REMARK SMILES O=C(O)CCc1ccc2c(c1)OCO2
REMARK SMILES IDX 4 1 2 2 1 3 3 4 5 6 6 7 7 8 11 9 8 10 10 11 9 12 12 13 14 14
REMARK SMILES IDX 13 15
REMARK H PARENT 3 5
REMARK Flexibility Score: inf
ROOT
ATOM      1  C   UNL     1       6.007   0.560   0.269  1.00  0.00     0.127 C 
ENDROOT
BRANCH   1   2
ATOM      2  C   UNL     1       5.133   1.118   1.289  1.00  0.00     0.303 C 
ATOM      3  O   UNL     1       4.558   2.206   1.224  1.00  0.00    -0.252 OA
BRANCH   2   4
ATOM      4  O   UNL     1       4.923   0.352   2.446  1.00  0.00    -0.481 OA
ATOM      5  H   UNL     1       3.971   0.072   2.629  1.00  0.00     0.296 HD
ENDBRANCH   2   4
ENDBRANCH   1   2
BRANCH   1   6
ATOM      6  C   UNL     1       7.165   1.418  -0.063  1.00  0.00     0.047 C 
BRANCH   6   7
ATOM      7  C   UNL     1       8.279   1.449   0.887  1.00  0.00    -0.043 A 
ATOM      8  C   UNL     1       8.332   2.381   1.912  1.00  0.00     0.008 A 
ATOM      9  C   UNL     1       9.327   0.576   0.765  1.00  0.00     0.054 A 
ATOM     10  C   UNL     1       9.396   2.434   2.784  1.00  0.00     0.051 A 
ATOM     11  C   UNL     1      10.406   0.611   1.629  1.00  0.00     0.166 A 
ATOM     12  C   UNL     1      10.444   1.539   2.641  1.00  0.00     0.165 A 
ATOM     13  O   UNL     1      11.555  -0.158   1.696  1.00  0.00    -0.454 OA
ATOM     14  O   UNL     1      11.637   1.331   3.335  1.00  0.00    -0.454 OA
ATOM     15  C   UNL     1      12.481   0.495   2.578  1.00  0.00     0.468 C 
ENDBRANCH   6   7
ENDBRANCH   1   6
TORSDOF 4
ENDMDL
