@<TRIPOS>MOLECULE
/home/cewinharhar/GITHUB/reincatalyze/data/processed/docking_pred/2023-May-17-1006_maxeplen10_maxtrainstep1000_seadep16_gamma099_lrac9e-4_lrcr1e-3_sub6/8651a6b7cbc4b018fd9bb7015a505d05e6fdae34_ligand_6.pdbqt
 15 16 0 0 0
SMALL
GASTEIGER

@<TRIPOS>ATOM
      1  C          7.3950   -1.6110   -0.9210 C.3     1  UNL1        0.1270
      2  C          7.8200   -1.9860    0.4180 C.2     1  UNL1        0.3030
      3  O          8.9530   -1.8360    0.8790 O.2     1  UNL1       -0.2520
      4  O          6.8600   -2.5690    1.2600 O.3     1  UNL1       -0.4810
      5  H          7.0180   -2.4710    2.2510 H       1  UNL1        0.2960
      6  C          7.7610   -0.2310   -1.3030 C.3     1  UNL1        0.0470
      7  C          7.1530    0.8660   -0.5460 C.2     1  UNL1       -0.0430
      8  C          5.7900    1.1140   -0.5980 C.2     1  UNL1        0.0080
      9  C          7.9250    1.7070    0.2100 C.2     1  UNL1        0.0540
     10  C          5.2220    2.1660    0.0840 C.2     1  UNL1        0.0510
     11  C          7.3770    2.7690    0.9030 C.2     1  UNL1        0.1660
     12  C          6.0240    3.0030    0.8430 C.2     1  UNL1        0.1650
     13  O          7.9520    3.7310    1.7160 O.2     1  UNL1       -0.4540
     14  O          5.7730    4.1260    1.6330 O.2     1  UNL1       -0.4540
     15  C          6.9890    4.7750    1.9270 C.3     1  UNL1        0.4680
@<TRIPOS>BOND
     1     6     1    1
     2     6     7    1
     3     1     2    1
     4     8     7    2
     5     8    10    1
     6     7     9    1
     7    10    12    2
     8     9    11    2
     9     2     3    2
    10     2     4    1
    11    12    11    1
    12    12    14    1
    13    11    13    1
    14     4     5    1
    15    14    15    1
    16    13    15    1
