@<TRIPOS>MOLECULE
/home/cewinharhar/GITHUB/reincatalyze/data/processed/docking_pred/2023-May-17-1006_maxeplen10_maxtrainstep1000_seadep16_gamma099_lrac9e-4_lrcr1e-3_sub6/8651a6b7cbc4b018fd9bb7015a505d05e6fdae34_ligand_6.pdbqt
 15 16 0 0 0
SMALL
GASTEIGER

@<TRIPOS>ATOM
      1  C          6.1200    3.6400    0.0760 C.3     1  UNL1        0.1270
      2  C          6.6940    3.8860    1.3890 C.2     1  UNL1        0.3030
      3  O          6.1150    4.4240    2.3350 O.2     1  UNL1       -0.2520
      4  O          8.0200    3.4770    1.6000 O.3     1  UNL1       -0.4810
      5  H          8.6970    4.2120    1.7320 H       1  UNL1        0.2960
      6  C          5.1480    2.5260    0.0440 C.3     1  UNL1        0.0470
      7  C          5.6150    1.2070    0.4780 C.2     1  UNL1       -0.0430
      8  C          5.2450    0.6750    1.7030 C.2     1  UNL1        0.0080
      9  C          6.4670    0.4740   -0.3040 C.2     1  UNL1        0.0540
     10  C          5.7120   -0.5490    2.1280 C.2     1  UNL1        0.0510
     11  C          6.9480   -0.7560    0.1010 C.2     1  UNL1        0.1660
     12  C          6.5720   -1.2720    1.3180 C.2     1  UNL1        0.1650
     13  O          7.8020   -1.6570   -0.5130 O.2     1  UNL1       -0.4540
     14  O          7.2100   -2.5080    1.4450 O.2     1  UNL1       -0.4540
     15  C          8.2170   -2.6210    0.4670 C.3     1  UNL1        0.4680
@<TRIPOS>BOND
     1    13    11    1
     2    13    15    1
     3     9    11    1
     4     9     7    2
     5     6     1    1
     6     6     7    1
     7     1     2    1
     8    11    12    2
     9    15    14    1
    10     7     8    1
    11    12    14    1
    12    12    10    1
    13     2     4    1
    14     2     3    2
    15     4     5    1
    16     8    10    2
