@<TRIPOS>MOLECULE
/home/cewinharhar/GITHUB/reincatalyze/data/processed/docking_pred/2023-May-17-1006_maxeplen10_maxtrainstep1000_seadep16_gamma099_lrac9e-4_lrcr1e-3_sub6/8651a6b7cbc4b018fd9bb7015a505d05e6fdae34_ligand_6.pdbqt
 15 16 0 0 0
SMALL
GASTEIGER

@<TRIPOS>ATOM
      1  C          6.0070    0.5600    0.2690 C.3     1  UNL1        0.1270
      2  C          5.1330    1.1180    1.2890 C.2     1  UNL1        0.3030
      3  O          4.5580    2.2060    1.2240 O.2     1  UNL1       -0.2520
      4  O          4.9230    0.3520    2.4460 O.3     1  UNL1       -0.4810
      5  H          3.9710    0.0720    2.6290 H       1  UNL1        0.2960
      6  C          7.1650    1.4180   -0.0630 C.3     1  UNL1        0.0470
      7  C          8.2790    1.4490    0.8870 C.2     1  UNL1       -0.0430
      8  C          8.3320    2.3810    1.9120 C.2     1  UNL1        0.0080
      9  C          9.3270    0.5760    0.7650 C.2     1  UNL1        0.0540
     10  C          9.3960    2.4340    2.7840 C.2     1  UNL1        0.0510
     11  C         10.4060    0.6110    1.6290 C.2     1  UNL1        0.1660
     12  C         10.4440    1.5390    2.6410 C.2     1  UNL1        0.1650
     13  O         11.5550   -0.1580    1.6960 O.2     1  UNL1       -0.4540
     14  O         11.6370    1.3310    3.3350 O.2     1  UNL1       -0.4540
     15  C         12.4810    0.4950    2.5780 C.3     1  UNL1        0.4680
@<TRIPOS>BOND
     1     6     1    1
     2     6     7    1
     3     1     2    1
     4     9     7    2
     5     9    11    1
     6     7     8    1
     7     3     2    2
     8     2     4    1
     9    11    13    1
    10    11    12    2
    11    13    15    1
    12     8    10    2
    13     4     5    1
    14    15    14    1
    15    12    10    1
    16    12    14    1
