@<TRIPOS>MOLECULE
/home/cewinharhar/GITHUB/reincatalyze/data/processed/docking_pred/2023-May-17-1006_maxeplen10_maxtrainstep1000_seadep16_gamma099_lrac9e-4_lrcr1e-3_sub6/86abca178b5bca4973d3a72a1df8ea50f2d75826_ligand_6.pdbqt
 15 16 0 0 0
SMALL
GASTEIGER

@<TRIPOS>ATOM
      1  C          5.4090    2.8570    0.1290 C.3     1  UNL1        0.1270
      2  C          6.2380    3.8350    0.8150 C.2     1  UNL1        0.3030
      3  O          6.8530    4.7580    0.2760 O.2     1  UNL1       -0.2520
      4  O          6.3500    3.7220    2.2100 O.3     1  UNL1       -0.4810
      5  H          5.8250    4.3890    2.7540 H       1  UNL1        0.2960
      6  C          5.3390    1.5470    0.8110 C.3     1  UNL1        0.0470
      7  C          6.1300    0.4490    0.2510 C.2     1  UNL1       -0.0430
      8  C          6.6050   -0.5820    1.0480 C.2     1  UNL1        0.0080
      9  C          6.4590    0.4300   -1.0780 C.2     1  UNL1        0.0540
     10  C          7.3790   -1.5950    0.5290 C.2     1  UNL1        0.0510
     11  C          7.2350   -0.5770   -1.6200 C.2     1  UNL1        0.1660
     12  C          7.6970   -1.5930   -0.8190 C.2     1  UNL1        0.1650
     13  O          7.6830   -0.7980   -2.9110 O.2     1  UNL1       -0.4540
     14  O          8.4400   -2.4460   -1.6380 O.2     1  UNL1       -0.4540
     15  C          8.7030   -1.8070   -2.8660 C.3     1  UNL1        0.4680
@<TRIPOS>BOND
     1    13    15    1
     2    13    11    1
     3    15    14    1
     4    14    12    1
     5    11     9    1
     6    11    12    2
     7     9     7    2
     8    12    10    1
     9     1     6    1
    10     1     2    1
    11     7     6    1
    12     7     8    1
    13     3     2    2
    14    10     8    2
    15     2     4    1
    16     4     5    1
