@<TRIPOS>MOLECULE
/home/cewinharhar/GITHUB/reincatalyze/data/processed/docking_pred/2023-May-17-1006_maxeplen10_maxtrainstep1000_seadep16_gamma099_lrac9e-4_lrcr1e-3_sub6/86abca178b5bca4973d3a72a1df8ea50f2d75826_ligand_6.pdbqt
 15 16 0 0 0
SMALL
GASTEIGER

@<TRIPOS>ATOM
      1  C          8.3120   -0.3280   -2.8200 C.3     1  UNL1        0.1270
      2  C          8.4680   -1.7540   -3.0560 C.2     1  UNL1        0.3030
      3  O          9.5330   -2.3740   -3.0290 O.2     1  UNL1       -0.2520
      4  O          7.3070   -2.4910   -3.3400 O.3     1  UNL1       -0.4810
      5  H          6.9280   -3.0350   -2.5800 H       1  UNL1        0.2960
      6  C          8.7660    0.1120   -1.4830 C.3     1  UNL1        0.0470
      7  C          7.7890    0.0840   -0.3920 C.2     1  UNL1       -0.0430
      8  C          7.7330   -0.9730    0.5030 C.2     1  UNL1        0.0080
      9  C          6.8710    1.0890   -0.2490 C.2     1  UNL1        0.0540
     10  C          6.7920   -1.0190    1.5070 C.2     1  UNL1        0.0510
     11  C          5.9170    1.0650    0.7510 C.2     1  UNL1        0.1660
     12  C          5.8740    0.0120    1.6320 C.2     1  UNL1        0.1650
     13  O          4.9090    1.9540    1.0810 O.2     1  UNL1       -0.4540
     14  O          4.8210    0.2660    2.5130 O.2     1  UNL1       -0.4540
     15  C          4.0180    1.3020    1.9990 C.3     1  UNL1        0.4680
@<TRIPOS>BOND
     1     4     2    1
     2     4     5    1
     3     2     3    2
     4     2     1    1
     5     1     6    1
     6     6     7    1
     7     7     9    2
     8     7     8    1
     9     9    11    1
    10     8    10    2
    11    11    13    1
    12    11    12    2
    13    13    15    1
    14    10    12    1
    15    12    14    1
    16    15    14    1
