@<TRIPOS>MOLECULE
/home/cewinharhar/GITHUB/reincatalyze/data/processed/docking_pred/2023-May-17-1006_maxeplen10_maxtrainstep1000_seadep16_gamma099_lrac9e-4_lrcr1e-3_sub6/86abca178b5bca4973d3a72a1df8ea50f2d75826_ligand_6.pdbqt
 15 16 0 0 0
SMALL
GASTEIGER

@<TRIPOS>ATOM
      1  C          5.4570    2.6180    0.1460 C.3     1  UNL1        0.1270
      2  C          6.1320    3.6700    0.8900 C.2     1  UNL1        0.3030
      3  O          6.2020    3.7480    2.1180 O.2     1  UNL1       -0.2520
      4  O          6.7570    4.6850    0.1480 O.3     1  UNL1       -0.4810
      5  H          6.2070    5.1040   -0.5860 H       1  UNL1        0.2960
      6  C          5.5870    1.2760    0.7530 C.3     1  UNL1        0.0470
      7  C          6.3730    0.2770    0.0250 C.2     1  UNL1       -0.0430
      8  C          6.4850    0.3100   -1.3560 C.2     1  UNL1        0.0080
      9  C          6.9910   -0.7470    0.6910 C.2     1  UNL1        0.0540
     10  C          7.1940   -0.6500   -2.0450 C.2     1  UNL1        0.0510
     11  C          7.7080   -1.7210    0.0210 C.2     1  UNL1        0.1660
     12  C          7.8120   -1.6750   -1.3480 C.2     1  UNL1        0.1650
     13  O          8.4030   -2.8270    0.4770 O.2     1  UNL1       -0.4540
     14  O          8.5840   -2.7740   -1.7300 O.2     1  UNL1       -0.4540
     15  C          8.6960   -3.6690   -0.6480 C.3     1  UNL1        0.4680
@<TRIPOS>BOND
     1    10     8    1
     2    10    12    2
     3    14    12    1
     4    14    15    1
     5     8     7    2
     6    12    11    1
     7    15    13    1
     8     5     4    1
     9    11    13    1
    10    11     9    2
    11     7     9    1
    12     7     6    1
    13     1     6    1
    14     1     2    1
    15     4     2    1
    16     2     3    2
