@<TRIPOS>MOLECULE
/home/cewinharhar/GITHUB/reincatalyze/data/processed/docking_pred/2023-May-17-1006_maxeplen10_maxtrainstep1000_seadep16_gamma099_lrac9e-4_lrcr1e-3_sub6/86abca178b5bca4973d3a72a1df8ea50f2d75826_ligand_6.pdbqt
 15 16 0 0 0
SMALL
GASTEIGER

@<TRIPOS>ATOM
      1  C          6.4180    1.3320    0.6910 C.3     1  UNL1        0.1270
      2  C          5.2070    1.2980    1.4960 C.2     1  UNL1        0.3030
      3  O          4.2450    2.0590    1.3750 O.2     1  UNL1       -0.2520
      4  O          5.1240    0.3170    2.4950 O.3     1  UNL1       -0.4810
      5  H          5.7500    0.4240    3.2780 H       1  UNL1        0.2960
      6  C          6.2310    0.8560   -0.6960 C.3     1  UNL1        0.0470
      7  C          6.9820   -0.3290   -1.1130 C.2     1  UNL1       -0.0430
      8  C          7.2810   -0.5660   -2.4460 C.2     1  UNL1        0.0080
      9  C          7.3800   -1.2650   -0.1950 C.2     1  UNL1        0.0540
     10  C          7.9570   -1.6990   -2.8440 C.2     1  UNL1        0.0510
     11  C          8.0590   -2.4080   -0.5710 C.2     1  UNL1        0.1660
     12  C          8.3500   -2.6290   -1.8960 C.2     1  UNL1        0.1650
     13  O          8.5500   -3.4700    0.1680 O.2     1  UNL1       -0.4540
     14  O          9.0290   -3.8470   -1.9610 O.2     1  UNL1       -0.4540
     15  C          8.8890   -4.5310   -0.7380 C.3     1  UNL1        0.4680
@<TRIPOS>BOND
     1    10     8    1
     2    10    12    2
     3     8     7    2
     4    14    12    1
     5    14    15    1
     6    12    11    1
     7     7     6    1
     8     7     9    1
     9    15    13    1
    10     6     1    1
    11    11     9    2
    12    11    13    1
    13     1     2    1
    14     3     2    2
    15     2     4    1
    16     4     5    1
