@<TRIPOS>MOLECULE
/home/cewinharhar/GITHUB/reincatalyze/data/processed/docking_pred/2023-May-17-1006_maxeplen10_maxtrainstep1000_seadep16_gamma099_lrac9e-4_lrcr1e-3_sub6/86abca178b5bca4973d3a72a1df8ea50f2d75826_ligand_6.pdbqt
 15 16 0 0 0
SMALL
GASTEIGER

@<TRIPOS>ATOM
      1  C          4.7140    1.8750    0.6950 C.3     1  UNL1        0.1270
      2  C          4.3990    1.1590    1.9220 C.2     1  UNL1        0.3030
      3  O          5.1190    0.3200    2.4670 O.2     1  UNL1       -0.2520
      4  O          3.1720    1.4460    2.5380 O.3     1  UNL1       -0.4810
      5  H          2.4840    0.7080    2.5270 H       1  UNL1        0.2960
      6  C          6.1430    2.2290    0.5570 C.3     1  UNL1        0.0470
      7  C          6.9920    1.3270   -0.2250 C.2     1  UNL1       -0.0430
      8  C          8.3510    1.5570   -0.3720 C.2     1  UNL1        0.0080
      9  C          6.4550    0.2450   -0.8700 C.2     1  UNL1        0.0540
     10  C          9.1430    0.7300   -1.1370 C.2     1  UNL1        0.0510
     11  C          7.2310   -0.5990   -1.6420 C.2     1  UNL1        0.1660
     12  C          8.5770   -0.3600   -1.7780 C.2     1  UNL1        0.1650
     13  O          6.9110   -1.7320   -2.3700 O.2     1  UNL1       -0.4540
     14  O          9.0830   -1.3650   -2.6040 O.2     1  UNL1       -0.4540
     15  C          8.0180   -2.0390   -3.2320 C.3     1  UNL1        0.4680
@<TRIPOS>BOND
     1    15    14    1
     2    15    13    1
     3    14    12    1
     4    13    11    1
     5    12    11    2
     6    12    10    1
     7    11     9    1
     8    10     8    2
     9     9     7    2
    10     8     7    1
    11     7     6    1
    12     6     1    1
    13     1     2    1
    14     2     3    2
    15     2     4    1
    16     5     4    1
