MODEL 1
REMARK VINA RESULT:      -7.7      0.000      0.000
REMARK SMILES O=C(O)CCc1ccc2c(c1)OCO2
REMARK SMILES IDX 4 1 2 2 1 3 3 4 5 6 6 7 7 8 11 9 8 10 10 11 9 12 12 13 14 14
REMARK SMILES IDX 13 15
REMARK H PARENT 3 5
REMARK Flexibility Score: inf
ROOT
ATOM      1  C   UNL     1       5.391   2.881   0.087  1.00  0.00     0.127 C 
ENDROOT
BRANCH   1   2
ATOM      2  C   UNL     1       6.217   3.850   0.790  1.00  0.00     0.303 C 
ATOM      3  O   UNL     1       6.844   4.772   0.265  1.00  0.00    -0.252 OA
BRANCH   2   4
ATOM      4  O   UNL     1       6.308   3.727   2.185  1.00  0.00    -0.481 OA
ATOM      5  H   UNL     1       7.238   3.629   2.563  1.00  0.00     0.296 HD
ENDBRANCH   2   4
ENDBRANCH   1   2
BRANCH   1   6
ATOM      6  C   UNL     1       5.300   1.569   0.762  1.00  0.00     0.047 C 
BRANCH   6   7
ATOM      7  C   UNL     1       6.090   0.466   0.210  1.00  0.00    -0.043 A 
ATOM      8  C   UNL     1       6.540  -0.574   1.008  1.00  0.00     0.008 A 
ATOM      9  C   UNL     1       6.442   0.452  -1.114  1.00  0.00     0.054 A 
ATOM     10  C   UNL     1       7.314  -1.592   0.497  1.00  0.00     0.051 A 
ATOM     11  C   UNL     1       7.217  -0.560  -1.649  1.00  0.00     0.166 A 
ATOM     12  C   UNL     1       7.655  -1.585  -0.845  1.00  0.00     0.165 A 
ATOM     13  O   UNL     1       7.686  -0.778  -2.932  1.00  0.00    -0.454 OA
ATOM     14  O   UNL     1       8.404  -2.440  -1.656  1.00  0.00    -0.454 OA
ATOM     15  C   UNL     1       8.695  -1.798  -2.875  1.00  0.00     0.468 C 
ENDBRANCH   6   7
ENDBRANCH   1   6
TORSDOF 4
ENDMDL
MODEL 2
REMARK VINA RESULT:      -7.6      2.122      2.519
REMARK SMILES O=C(O)CCc1ccc2c(c1)OCO2
REMARK SMILES IDX 4 1 2 2 1 3 3 4 5 6 6 7 7 8 11 9 8 10 10 11 9 12 12 13 14 14
REMARK SMILES IDX 13 15
REMARK H PARENT 3 5
REMARK Flexibility Score: inf
ROOT
ATOM      1  C   UNL     1       4.711   1.859   0.699  1.00  0.00     0.127 C 
ENDROOT
BRANCH   1   2
ATOM      2  C   UNL     1       4.408   1.142   1.928  1.00  0.00     0.303 C 
ATOM      3  O   UNL     1       5.138   0.310   2.471  1.00  0.00    -0.252 OA
BRANCH   2   4
ATOM      4  O   UNL     1       3.181   1.419   2.550  1.00  0.00    -0.481 OA
ATOM      5  H   UNL     1       2.405   1.616   1.937  1.00  0.00     0.296 HD
ENDBRANCH   2   4
ENDBRANCH   1   2
BRANCH   1   6
ATOM      6  C   UNL     1       6.136   2.222   0.552  1.00  0.00     0.047 C 
BRANCH   6   7
ATOM      7  C   UNL     1       6.988   1.318  -0.224  1.00  0.00    -0.043 A 
ATOM      8  C   UNL     1       8.348   1.548  -0.367  1.00  0.00     0.008 A 
ATOM      9  C   UNL     1       6.454   0.234  -0.869  1.00  0.00     0.054 A 
ATOM     10  C   UNL     1       9.144   0.719  -1.126  1.00  0.00     0.051 A 
ATOM     11  C   UNL     1       7.233  -0.612  -1.635  1.00  0.00     0.166 A 
ATOM     12  C   UNL     1       8.580  -0.373  -1.766  1.00  0.00     0.165 A 
ATOM     13  O   UNL     1       6.917  -1.747  -2.362  1.00  0.00    -0.454 OA
ATOM     14  O   UNL     1       9.090  -1.380  -2.587  1.00  0.00    -0.454 OA
ATOM     15  C   UNL     1       8.027  -2.056  -3.218  1.00  0.00     0.468 C 
ENDBRANCH   6   7
ENDBRANCH   1   6
TORSDOF 4
ENDMDL
MODEL 3
REMARK VINA RESULT:      -7.5      1.957      2.866
REMARK SMILES O=C(O)CCc1ccc2c(c1)OCO2
REMARK SMILES IDX 4 1 2 2 1 3 3 4 5 6 6 7 7 8 11 9 8 10 10 11 9 12 12 13 14 14
REMARK SMILES IDX 13 15
REMARK H PARENT 3 5
REMARK Flexibility Score: inf
ROOT
ATOM      1  C   UNL     1       6.422   1.349   0.635  1.00  0.00     0.127 C 
ENDROOT
BRANCH   1   2
ATOM      2  C   UNL     1       5.205   1.368   1.432  1.00  0.00     0.303 C 
ATOM      3  O   UNL     1       4.268   2.156   1.292  1.00  0.00    -0.252 OA
BRANCH   2   4
ATOM      4  O   UNL     1       5.084   0.405   2.447  1.00  0.00    -0.481 OA
ATOM      5  H   UNL     1       5.371   0.694   3.369  1.00  0.00     0.296 HD
ENDBRANCH   2   4
ENDBRANCH   1   2
BRANCH   1   6
ATOM      6  C   UNL     1       6.231   0.845  -0.742  1.00  0.00     0.047 C 
BRANCH   6   7
ATOM      7  C   UNL     1       6.982  -0.348  -1.136  1.00  0.00    -0.043 A 
ATOM      8  C   UNL     1       7.289  -0.605  -2.463  1.00  0.00     0.008 A 
ATOM      9  C   UNL     1       7.373  -1.271  -0.202  1.00  0.00     0.054 A 
ATOM     10  C   UNL     1       7.965  -1.745  -2.840  1.00  0.00     0.051 A 
ATOM     11  C   UNL     1       8.052  -2.421  -0.556  1.00  0.00     0.166 A 
ATOM     12  C   UNL     1       8.350  -2.662  -1.876  1.00  0.00     0.165 A 
ATOM     13  O   UNL     1       8.536  -3.473   0.202  1.00  0.00    -0.454 OA
ATOM     14  O   UNL     1       9.027  -3.882  -1.919  1.00  0.00    -0.454 OA
ATOM     15  C   UNL     1       8.878  -4.547  -0.686  1.00  0.00     0.468 C 
ENDBRANCH   6   7
ENDBRANCH   1   6
TORSDOF 4
ENDMDL
MODEL 4
REMARK VINA RESULT:      -7.5      1.801      5.287
REMARK SMILES O=C(O)CCc1ccc2c(c1)OCO2
REMARK SMILES IDX 4 1 2 2 1 3 3 4 5 6 6 7 7 8 11 9 8 10 10 11 9 12 12 13 14 14
REMARK SMILES IDX 13 15
REMARK H PARENT 3 5
REMARK Flexibility Score: inf
ROOT
ATOM      1  C   UNL     1       8.312  -0.329  -2.835  1.00  0.00     0.127 C 
ENDROOT
BRANCH   1   2
ATOM      2  C   UNL     1       8.474  -1.755  -3.071  1.00  0.00     0.303 C 
ATOM      3  O   UNL     1       9.543  -2.369  -3.046  1.00  0.00    -0.252 OA
BRANCH   2   4
ATOM      4  O   UNL     1       7.317  -2.498  -3.351  1.00  0.00    -0.481 OA
ATOM      5  H   UNL     1       6.942  -3.043  -2.590  1.00  0.00     0.296 HD
ENDBRANCH   2   4
ENDBRANCH   1   2
BRANCH   1   6
ATOM      6  C   UNL     1       8.770   0.115  -1.502  1.00  0.00     0.047 C 
BRANCH   6   7
ATOM      7  C   UNL     1       7.799   0.081  -0.406  1.00  0.00    -0.043 A 
ATOM      8  C   UNL     1       7.750  -0.978   0.487  1.00  0.00     0.008 A 
ATOM      9  C   UNL     1       6.880   1.085  -0.254  1.00  0.00     0.054 A 
ATOM     10  C   UNL     1       6.814  -1.028   1.496  1.00  0.00     0.051 A 
ATOM     11  C   UNL     1       5.932   1.056   0.751  1.00  0.00     0.166 A 
ATOM     12  C   UNL     1       5.896   0.001   1.629  1.00  0.00     0.165 A 
ATOM     13  O   UNL     1       4.924   1.942   1.089  1.00  0.00    -0.454 OA
ATOM     14  O   UNL     1       4.847   0.250   2.516  1.00  0.00    -0.454 OA
ATOM     15  C   UNL     1       4.039   1.286   2.009  1.00  0.00     0.468 C 
ENDBRANCH   6   7
ENDBRANCH   1   6
TORSDOF 4
ENDMDL
MODEL 5
REMARK VINA RESULT:      -7.4      1.048      2.135
REMARK SMILES O=C(O)CCc1ccc2c(c1)OCO2
REMARK SMILES IDX 4 1 2 2 1 3 3 4 5 6 6 7 7 8 11 9 8 10 10 11 9 12 12 13 14 14
REMARK SMILES IDX 13 15
REMARK H PARENT 3 5
REMARK Flexibility Score: inf
ROOT
ATOM      1  C   UNL     1       5.709   2.567   0.410  1.00  0.00     0.127 C 
ENDROOT
BRANCH   1   2
ATOM      2  C   UNL     1       6.284   3.737   1.056  1.00  0.00     0.303 C 
ATOM      3  O   UNL     1       6.350   3.925   2.273  1.00  0.00    -0.252 OA
BRANCH   2   4
ATOM      4  O   UNL     1       6.808   4.740   0.226  1.00  0.00    -0.481 OA
ATOM      5  H   UNL     1       6.323   4.895  -0.645  1.00  0.00     0.296 HD
ENDBRANCH   2   4
ENDBRANCH   1   2
BRANCH   1   6
ATOM      6  C   UNL     1       5.987   1.296   1.113  1.00  0.00     0.047 C 
BRANCH   6   7
ATOM      7  C   UNL     1       6.615   0.221   0.342  1.00  0.00    -0.043 A 
ATOM      8  C   UNL     1       6.529   0.174  -1.041  1.00  0.00     0.008 A 
ATOM      9  C   UNL     1       7.278  -0.798   0.974  1.00  0.00     0.054 A 
ATOM     10  C   UNL     1       7.088  -0.856  -1.764  1.00  0.00     0.051 A 
ATOM     11  C   UNL     1       7.848  -1.841   0.269  1.00  0.00     0.166 A 
ATOM     12  C   UNL     1       7.755  -1.874  -1.101  1.00  0.00     0.165 A 
ATOM     13  O   UNL     1       8.552  -2.957   0.688  1.00  0.00    -0.454 OA
ATOM     14  O   UNL     1       8.414  -3.030  -1.522  1.00  0.00    -0.454 OA
ATOM     15  C   UNL     1       8.642  -3.871  -0.415  1.00  0.00     0.468 C 
ENDBRANCH   6   7
ENDBRANCH   1   6
TORSDOF 4
ENDMDL
