@<TRIPOS>MOLECULE
/home/cewinharhar/GITHUB/reincatalyze/data/processed/docking_pred/2023-May-17-1006_maxeplen10_maxtrainstep1000_seadep16_gamma099_lrac9e-4_lrcr1e-3_sub6/87c24324279ed01ab1d4888e5c128f335f215516_ligand_6.pdbqt
 15 16 0 0 0
SMALL
GASTEIGER

@<TRIPOS>ATOM
      1  C          6.4220    1.3490    0.6350 C.3     1  UNL1        0.1270
      2  C          5.2050    1.3680    1.4320 C.2     1  UNL1        0.3030
      3  O          4.2680    2.1560    1.2920 O.2     1  UNL1       -0.2520
      4  O          5.0840    0.4050    2.4470 O.3     1  UNL1       -0.4810
      5  H          5.3710    0.6940    3.3690 H       1  UNL1        0.2960
      6  C          6.2310    0.8450   -0.7420 C.3     1  UNL1        0.0470
      7  C          6.9820   -0.3480   -1.1360 C.2     1  UNL1       -0.0430
      8  C          7.2890   -0.6050   -2.4630 C.2     1  UNL1        0.0080
      9  C          7.3730   -1.2710   -0.2020 C.2     1  UNL1        0.0540
     10  C          7.9650   -1.7450   -2.8400 C.2     1  UNL1        0.0510
     11  C          8.0520   -2.4210   -0.5560 C.2     1  UNL1        0.1660
     12  C          8.3500   -2.6620   -1.8760 C.2     1  UNL1        0.1650
     13  O          8.5360   -3.4730    0.2020 O.2     1  UNL1       -0.4540
     14  O          9.0270   -3.8820   -1.9190 O.2     1  UNL1       -0.4540
     15  C          8.8780   -4.5470   -0.6860 C.3     1  UNL1        0.4680
@<TRIPOS>BOND
     1    10     8    1
     2    10    12    2
     3     8     7    2
     4    14    12    1
     5    14    15    1
     6    12    11    1
     7     7     6    1
     8     7     9    1
     9     6     1    1
    10    15    13    1
    11    11     9    2
    12    11    13    1
    13     1     2    1
    14     3     2    2
    15     2     4    1
    16     4     5    1
