@<TRIPOS>MOLECULE
/home/cewinharhar/GITHUB/reincatalyze/data/processed/docking_pred/2023-May-17-1006_maxeplen10_maxtrainstep1000_seadep16_gamma099_lrac9e-4_lrcr1e-3_sub6/87c24324279ed01ab1d4888e5c128f335f215516_ligand_6.pdbqt
 15 16 0 0 0
SMALL
GASTEIGER

@<TRIPOS>ATOM
      1  C          5.3910    2.8810    0.0870 C.3     1  UNL1        0.1270
      2  C          6.2170    3.8500    0.7900 C.2     1  UNL1        0.3030
      3  O          6.8440    4.7720    0.2650 O.2     1  UNL1       -0.2520
      4  O          6.3080    3.7270    2.1850 O.3     1  UNL1       -0.4810
      5  H          7.2380    3.6290    2.5630 H       1  UNL1        0.2960
      6  C          5.3000    1.5690    0.7620 C.3     1  UNL1        0.0470
      7  C          6.0900    0.4660    0.2100 C.2     1  UNL1       -0.0430
      8  C          6.5400   -0.5740    1.0080 C.2     1  UNL1        0.0080
      9  C          6.4420    0.4520   -1.1140 C.2     1  UNL1        0.0540
     10  C          7.3140   -1.5920    0.4970 C.2     1  UNL1        0.0510
     11  C          7.2170   -0.5600   -1.6490 C.2     1  UNL1        0.1660
     12  C          7.6550   -1.5850   -0.8450 C.2     1  UNL1        0.1650
     13  O          7.6860   -0.7780   -2.9320 O.2     1  UNL1       -0.4540
     14  O          8.4040   -2.4400   -1.6560 O.2     1  UNL1       -0.4540
     15  C          8.6950   -1.7980   -2.8750 C.3     1  UNL1        0.4680
@<TRIPOS>BOND
     1    13    15    1
     2    13    11    1
     3    15    14    1
     4    14    12    1
     5    11     9    1
     6    11    12    2
     7     9     7    2
     8    12    10    1
     9     1     6    1
    10     1     2    1
    11     7     6    1
    12     7     8    1
    13     3     2    2
    14    10     8    2
    15     2     4    1
    16     4     5    1
