@<TRIPOS>MOLECULE
/home/cewinharhar/GITHUB/reincatalyze/data/processed/docking_pred/2023-May-17-1006_maxeplen10_maxtrainstep1000_seadep16_gamma099_lrac9e-4_lrcr1e-3_sub6/87c24324279ed01ab1d4888e5c128f335f215516_ligand_6.pdbqt
 15 16 0 0 0
SMALL
GASTEIGER

@<TRIPOS>ATOM
      1  C          8.3120   -0.3290   -2.8350 C.3     1  UNL1        0.1270
      2  C          8.4740   -1.7550   -3.0710 C.2     1  UNL1        0.3030
      3  O          9.5430   -2.3690   -3.0460 O.2     1  UNL1       -0.2520
      4  O          7.3170   -2.4980   -3.3510 O.3     1  UNL1       -0.4810
      5  H          6.9420   -3.0430   -2.5900 H       1  UNL1        0.2960
      6  C          8.7700    0.1150   -1.5020 C.3     1  UNL1        0.0470
      7  C          7.7990    0.0810   -0.4060 C.2     1  UNL1       -0.0430
      8  C          7.7500   -0.9780    0.4870 C.2     1  UNL1        0.0080
      9  C          6.8800    1.0850   -0.2540 C.2     1  UNL1        0.0540
     10  C          6.8140   -1.0280    1.4960 C.2     1  UNL1        0.0510
     11  C          5.9320    1.0560    0.7510 C.2     1  UNL1        0.1660
     12  C          5.8960    0.0010    1.6290 C.2     1  UNL1        0.1650
     13  O          4.9240    1.9420    1.0890 O.2     1  UNL1       -0.4540
     14  O          4.8470    0.2500    2.5160 O.2     1  UNL1       -0.4540
     15  C          4.0390    1.2860    2.0090 C.3     1  UNL1        0.4680
@<TRIPOS>BOND
     1     4     2    1
     2     4     5    1
     3     2     3    2
     4     2     1    1
     5     1     6    1
     6     6     7    1
     7     7     9    2
     8     7     8    1
     9     9    11    1
    10     8    10    2
    11    11    13    1
    12    11    12    2
    13    13    15    1
    14    10    12    1
    15    12    14    1
    16    15    14    1
