@<TRIPOS>MOLECULE
/home/cewinharhar/GITHUB/reincatalyze/data/processed/docking_pred/2023-May-17-1006_maxeplen10_maxtrainstep1000_seadep16_gamma099_lrac9e-4_lrcr1e-3_sub6/87c24324279ed01ab1d4888e5c128f335f215516_ligand_6.pdbqt
 15 16 0 0 0
SMALL
GASTEIGER

@<TRIPOS>ATOM
      1  C          4.7110    1.8590    0.6990 C.3     1  UNL1        0.1270
      2  C          4.4080    1.1420    1.9280 C.2     1  UNL1        0.3030
      3  O          5.1380    0.3100    2.4710 O.2     1  UNL1       -0.2520
      4  O          3.1810    1.4190    2.5500 O.3     1  UNL1       -0.4810
      5  H          2.4050    1.6160    1.9370 H       1  UNL1        0.2960
      6  C          6.1360    2.2220    0.5520 C.3     1  UNL1        0.0470
      7  C          6.9880    1.3180   -0.2240 C.2     1  UNL1       -0.0430
      8  C          8.3480    1.5480   -0.3670 C.2     1  UNL1        0.0080
      9  C          6.4540    0.2340   -0.8690 C.2     1  UNL1        0.0540
     10  C          9.1440    0.7190   -1.1260 C.2     1  UNL1        0.0510
     11  C          7.2330   -0.6120   -1.6350 C.2     1  UNL1        0.1660
     12  C          8.5800   -0.3730   -1.7660 C.2     1  UNL1        0.1650
     13  O          6.9170   -1.7470   -2.3620 O.2     1  UNL1       -0.4540
     14  O          9.0900   -1.3800   -2.5870 O.2     1  UNL1       -0.4540
     15  C          8.0270   -2.0560   -3.2180 C.3     1  UNL1        0.4680
@<TRIPOS>BOND
     1    15    14    1
     2    15    13    1
     3    14    12    1
     4    13    11    1
     5    12    11    2
     6    12    10    1
     7    11     9    1
     8    10     8    2
     9     9     7    2
    10     8     7    1
    11     7     6    1
    12     6     1    1
    13     1     2    1
    14     2     3    2
    15     2     4    1
    16     5     4    1
