@<TRIPOS>MOLECULE
/home/cewinharhar/GITHUB/reincatalyze/data/processed/docking_pred/2023-May-17-1006_maxeplen10_maxtrainstep1000_seadep16_gamma099_lrac9e-4_lrcr1e-3_sub6/87c24324279ed01ab1d4888e5c128f335f215516_ligand_6.pdbqt
 15 16 0 0 0
SMALL
GASTEIGER

@<TRIPOS>ATOM
      1  C          5.7090    2.5670    0.4100 C.3     1  UNL1        0.1270
      2  C          6.2840    3.7370    1.0560 C.2     1  UNL1        0.3030
      3  O          6.3500    3.9250    2.2730 O.2     1  UNL1       -0.2520
      4  O          6.8080    4.7400    0.2260 O.3     1  UNL1       -0.4810
      5  H          6.3230    4.8950   -0.6450 H       1  UNL1        0.2960
      6  C          5.9870    1.2960    1.1130 C.3     1  UNL1        0.0470
      7  C          6.6150    0.2210    0.3420 C.2     1  UNL1       -0.0430
      8  C          6.5290    0.1740   -1.0410 C.2     1  UNL1        0.0080
      9  C          7.2780   -0.7980    0.9740 C.2     1  UNL1        0.0540
     10  C          7.0880   -0.8560   -1.7640 C.2     1  UNL1        0.0510
     11  C          7.8480   -1.8410    0.2690 C.2     1  UNL1        0.1660
     12  C          7.7550   -1.8740   -1.1010 C.2     1  UNL1        0.1650
     13  O          8.5520   -2.9570    0.6880 O.2     1  UNL1       -0.4540
     14  O          8.4140   -3.0300   -1.5220 O.2     1  UNL1       -0.4540
     15  C          8.6420   -3.8710   -0.4150 C.3     1  UNL1        0.4680
@<TRIPOS>BOND
     1    10    12    2
     2    10     8    1
     3    14    12    1
     4    14    15    1
     5    12    11    1
     6     8     7    2
     7     5     4    1
     8    15    13    1
     9     4     2    1
    10    11    13    1
    11    11     9    2
    12     7     9    1
    13     7     6    1
    14     1     2    1
    15     1     6    1
    16     2     3    2
