@<TRIPOS>MOLECULE
/home/cewinharhar/GITHUB/reincatalyze/data/processed/docking_pred/2023-May-17-1006_maxeplen10_maxtrainstep1000_seadep16_gamma099_lrac9e-4_lrcr1e-3_sub6/88c4e0f8a026884e113c16f062f94e0c253125d7_ligand_6.pdbqt
 15 16 0 0 0
SMALL
GASTEIGER

@<TRIPOS>ATOM
      1  C          8.3110   -0.3140   -2.8460 C.3     1  UNL1        0.1270
      2  C          8.4700   -1.7430   -3.0670 C.2     1  UNL1        0.3030
      3  O          9.5360   -2.3600   -3.0290 O.2     1  UNL1       -0.2520
      4  O          7.3120   -2.4850   -3.3470 O.3     1  UNL1       -0.4810
      5  H          7.3640   -3.4760   -3.1660 H       1  UNL1        0.2960
      6  C          8.7620    0.1410   -1.5140 C.3     1  UNL1        0.0470
      7  C          7.7900    0.1020   -0.4200 C.2     1  UNL1       -0.0430
      8  C          7.7390   -0.9630    0.4660 C.2     1  UNL1        0.0080
      9  C          6.8720    1.1060   -0.2620 C.2     1  UNL1        0.0540
     10  C          6.8020   -1.0180    1.4740 C.2     1  UNL1        0.0510
     11  C          5.9230    1.0720    0.7420 C.2     1  UNL1        0.1660
     12  C          5.8850    0.0110    1.6130 C.2     1  UNL1        0.1650
     13  O          4.9160    1.9580    1.0850 O.2     1  UNL1       -0.4540
     14  O          4.8360    0.2560    2.5010 O.2     1  UNL1       -0.4540
     15  C          4.0290    1.2970    2.0000 C.3     1  UNL1        0.4680
@<TRIPOS>BOND
     1     4     5    1
     2     4     2    1
     3     2     3    2
     4     2     1    1
     5     1     6    1
     6     6     7    1
     7     7     9    2
     8     7     8    1
     9     9    11    1
    10     8    10    2
    11    11    13    1
    12    11    12    2
    13    13    15    1
    14    10    12    1
    15    12    14    1
    16    15    14    1
