@<TRIPOS>MOLECULE
/home/cewinharhar/GITHUB/reincatalyze/data/processed/docking_pred/2023-May-17-1006_maxeplen10_maxtrainstep1000_seadep16_gamma099_lrac9e-4_lrcr1e-3_sub6/88c4e0f8a026884e113c16f062f94e0c253125d7_ligand_6.pdbqt
 15 16 0 0 0
SMALL
GASTEIGER

@<TRIPOS>ATOM
      1  C          6.4260    1.2730    0.7880 C.3     1  UNL1        0.1270
      2  C          5.1530    1.3160    1.4920 C.2     1  UNL1        0.3030
      3  O          4.2610    2.1470    1.3110 O.2     1  UNL1       -0.2520
      4  O          4.9180    0.3260    2.4590 O.3     1  UNL1       -0.4810
      5  H          3.9800   -0.0390    2.5040 H       1  UNL1        0.2960
      6  C          6.3090    0.9160   -0.6420 C.3     1  UNL1        0.0470
      7  C          7.0300   -0.2720   -1.1040 C.2     1  UNL1       -0.0430
      8  C          7.2800   -0.4900   -2.4500 C.2     1  UNL1        0.0080
      9  C          7.4480   -1.2270   -0.2160 C.2     1  UNL1        0.0540
     10  C          7.9260   -1.6240   -2.8890 C.2     1  UNL1        0.0510
     11  C          8.0990   -2.3730   -0.6330 C.2     1  UNL1        0.1660
     12  C          8.3410   -2.5750   -1.9710 C.2     1  UNL1        0.1650
     13  O          8.6020   -3.4530    0.0710 O.2     1  UNL1       -0.4540
     14  O          9.0020   -3.8000   -2.0800 O.2     1  UNL1       -0.4540
     15  C          8.8950   -4.5020   -0.8640 C.3     1  UNL1        0.4680
@<TRIPOS>BOND
     1    10     8    1
     2    10    12    2
     3     8     7    2
     4    14    12    1
     5    14    15    1
     6    12    11    1
     7     7     6    1
     8     7     9    1
     9    15    13    1
    10     6     1    1
    11    11     9    2
    12    11    13    1
    13     1     2    1
    14     3     2    2
    15     2     4    1
    16     4     5    1
