@<TRIPOS>MOLECULE
/home/cewinharhar/GITHUB/reincatalyze/data/processed/docking_pred/2023-May-17-1006_maxeplen10_maxtrainstep1000_seadep16_gamma099_lrac9e-4_lrcr1e-3_sub6/88c4e0f8a026884e113c16f062f94e0c253125d7_ligand_6.pdbqt
 15 16 0 0 0
SMALL
GASTEIGER

@<TRIPOS>ATOM
      1  C          5.5060    2.6450    0.0710 C.3     1  UNL1        0.1270
      2  C          6.1520    3.7160    0.8130 C.2     1  UNL1        0.3030
      3  O          6.1220    3.8600    2.0370 O.2     1  UNL1       -0.2520
      4  O          6.8730    4.6680    0.0750 O.3     1  UNL1       -0.4810
      5  H          6.5140    5.6100    0.0930 H       1  UNL1        0.2960
      6  C          5.6240    1.3160    0.7090 C.3     1  UNL1        0.0470
      7  C          6.4030    0.2940    0.0060 C.2     1  UNL1       -0.0430
      8  C          6.4980    0.2790   -1.3770 C.2     1  UNL1        0.0080
      9  C          7.0320   -0.7060    0.6990 C.2     1  UNL1        0.0540
     10  C          7.2000   -0.7020   -2.0400 C.2     1  UNL1        0.0510
     11  C          7.7420   -1.7000    0.0550 C.2     1  UNL1        0.1660
     12  C          7.8290   -1.7020   -1.3170 C.2     1  UNL1        0.1650
     13  O          8.4450   -2.7890    0.5400 O.2     1  UNL1       -0.4540
     14  O          8.5980   -2.8120   -1.6700 O.2     1  UNL1       -0.4540
     15  C          8.7260   -3.6690   -0.5590 C.3     1  UNL1        0.4680
@<TRIPOS>BOND
     1    10     8    1
     2    10    12    2
     3    14    12    1
     4    14    15    1
     5     8     7    2
     6    12    11    1
     7    15    13    1
     8     7     9    1
     9     7     6    1
    10    11    13    1
    11    11     9    2
    12     1     6    1
    13     1     2    1
    14     4     5    1
    15     4     2    1
    16     2     3    2
