MODEL 1
REMARK VINA RESULT:      -7.6      0.000      0.000
REMARK SMILES O=C(O)CCc1ccc2c(c1)OCO2
REMARK SMILES IDX 4 1 2 2 1 3 3 4 5 6 6 7 7 8 11 9 8 10 10 11 9 12 12 13 14 14
REMARK SMILES IDX 13 15
REMARK H PARENT 3 5
REMARK Flexibility Score: inf
ROOT
ATOM      1  C   UNL     1       5.457   2.847   0.128  1.00  0.00     0.127 C 
ENDROOT
BRANCH   1   2
ATOM      2  C   UNL     1       6.287   3.823   0.817  1.00  0.00     0.303 C 
ATOM      3  O   UNL     1       6.863   4.775   0.287  1.00  0.00    -0.252 OA
BRANCH   2   4
ATOM      4  O   UNL     1       6.446   3.670   2.203  1.00  0.00    -0.481 OA
ATOM      5  H   UNL     1       7.191   3.060   2.501  1.00  0.00     0.296 HD
ENDBRANCH   2   4
ENDBRANCH   1   2
BRANCH   1   6
ATOM      6  C   UNL     1       5.379   1.538   0.810  1.00  0.00     0.047 C 
BRANCH   6   7
ATOM      7  C   UNL     1       6.149   0.430   0.239  1.00  0.00    -0.043 A 
ATOM      8  C   UNL     1       6.587  -0.627   1.022  1.00  0.00     0.008 A 
ATOM      9  C   UNL     1       6.494   0.427  -1.086  1.00  0.00     0.054 A 
ATOM     10  C   UNL     1       7.342  -1.651   0.494  1.00  0.00     0.051 A 
ATOM     11  C   UNL     1       7.250  -0.590  -1.638  1.00  0.00     0.166 A 
ATOM     12  C   UNL     1       7.676  -1.632  -0.851  1.00  0.00     0.165 A 
ATOM     13  O   UNL     1       7.709  -0.798  -2.927  1.00  0.00    -0.454 OA
ATOM     14  O   UNL     1       8.407  -2.488  -1.676  1.00  0.00    -0.454 OA
ATOM     15  C   UNL     1       8.702  -1.834  -2.889  1.00  0.00     0.468 C 
ENDBRANCH   6   7
ENDBRANCH   1   6
TORSDOF 4
ENDMDL
MODEL 2
REMARK VINA RESULT:      -7.6      2.127      2.531
REMARK SMILES O=C(O)CCc1ccc2c(c1)OCO2
REMARK SMILES IDX 4 1 2 2 1 3 3 4 5 6 6 7 7 8 11 9 8 10 10 11 9 12 12 13 14 14
REMARK SMILES IDX 13 15
REMARK H PARENT 3 5
REMARK Flexibility Score: inf
ROOT
ATOM      1  C   UNL     1       4.720   1.877   0.695  1.00  0.00     0.127 C 
ENDROOT
BRANCH   1   2
ATOM      2  C   UNL     1       4.395   1.166   1.921  1.00  0.00     0.303 C 
ATOM      3  O   UNL     1       5.106   0.323   2.472  1.00  0.00    -0.252 OA
BRANCH   2   4
ATOM      4  O   UNL     1       3.167   1.463   2.532  1.00  0.00    -0.481 OA
ATOM      5  H   UNL     1       2.927   2.440   2.599  1.00  0.00     0.296 HD
ENDBRANCH   2   4
ENDBRANCH   1   2
BRANCH   1   6
ATOM      6  C   UNL     1       6.151   2.226   0.564  1.00  0.00     0.047 C 
BRANCH   6   7
ATOM      7  C   UNL     1       6.999   1.324  -0.219  1.00  0.00    -0.043 A 
ATOM      8  C   UNL     1       8.359   1.552  -0.364  1.00  0.00     0.008 A 
ATOM      9  C   UNL     1       6.461   0.244  -0.867  1.00  0.00     0.054 A 
ATOM     10  C   UNL     1       9.151   0.725  -1.130  1.00  0.00     0.051 A 
ATOM     11  C   UNL     1       7.236  -0.599  -1.641  1.00  0.00     0.166 A 
ATOM     12  C   UNL     1       8.583  -0.362  -1.774  1.00  0.00     0.165 A 
ATOM     13  O   UNL     1       6.916  -1.729  -2.372  1.00  0.00    -0.454 OA
ATOM     14  O   UNL     1       9.089  -1.366  -2.602  1.00  0.00    -0.454 OA
ATOM     15  C   UNL     1       8.023  -2.037  -3.233  1.00  0.00     0.468 C 
ENDBRANCH   6   7
ENDBRANCH   1   6
TORSDOF 4
ENDMDL
MODEL 3
REMARK VINA RESULT:      -7.4      1.787      5.278
REMARK SMILES O=C(O)CCc1ccc2c(c1)OCO2
REMARK SMILES IDX 4 1 2 2 1 3 3 4 5 6 6 7 7 8 11 9 8 10 10 11 9 12 12 13 14 14
REMARK SMILES IDX 13 15
REMARK H PARENT 3 5
REMARK Flexibility Score: inf
ROOT
ATOM      1  C   UNL     1       8.311  -0.314  -2.846  1.00  0.00     0.127 C 
ENDROOT
BRANCH   1   2
ATOM      2  C   UNL     1       8.470  -1.743  -3.067  1.00  0.00     0.303 C 
ATOM      3  O   UNL     1       9.536  -2.360  -3.029  1.00  0.00    -0.252 OA
BRANCH   2   4
ATOM      4  O   UNL     1       7.312  -2.485  -3.347  1.00  0.00    -0.481 OA
ATOM      5  H   UNL     1       7.364  -3.476  -3.166  1.00  0.00     0.296 HD
ENDBRANCH   2   4
ENDBRANCH   1   2
BRANCH   1   6
ATOM      6  C   UNL     1       8.762   0.141  -1.514  1.00  0.00     0.047 C 
BRANCH   6   7
ATOM      7  C   UNL     1       7.790   0.102  -0.420  1.00  0.00    -0.043 A 
ATOM      8  C   UNL     1       7.739  -0.963   0.466  1.00  0.00     0.008 A 
ATOM      9  C   UNL     1       6.872   1.106  -0.262  1.00  0.00     0.054 A 
ATOM     10  C   UNL     1       6.802  -1.018   1.474  1.00  0.00     0.051 A 
ATOM     11  C   UNL     1       5.923   1.072   0.742  1.00  0.00     0.166 A 
ATOM     12  C   UNL     1       5.885   0.011   1.613  1.00  0.00     0.165 A 
ATOM     13  O   UNL     1       4.916   1.958   1.085  1.00  0.00    -0.454 OA
ATOM     14  O   UNL     1       4.836   0.256   2.501  1.00  0.00    -0.454 OA
ATOM     15  C   UNL     1       4.029   1.297   2.000  1.00  0.00     0.468 C 
ENDBRANCH   6   7
ENDBRANCH   1   6
TORSDOF 4
ENDMDL
MODEL 4
REMARK VINA RESULT:      -7.4      1.959      2.843
REMARK SMILES O=C(O)CCc1ccc2c(c1)OCO2
REMARK SMILES IDX 4 1 2 2 1 3 3 4 5 6 6 7 7 8 11 9 8 10 10 11 9 12 12 13 14 14
REMARK SMILES IDX 13 15
REMARK H PARENT 3 5
REMARK Flexibility Score: inf
ROOT
ATOM      1  C   UNL     1       6.426   1.273   0.788  1.00  0.00     0.127 C 
ENDROOT
BRANCH   1   2
ATOM      2  C   UNL     1       5.153   1.316   1.492  1.00  0.00     0.303 C 
ATOM      3  O   UNL     1       4.261   2.147   1.311  1.00  0.00    -0.252 OA
BRANCH   2   4
ATOM      4  O   UNL     1       4.918   0.326   2.459  1.00  0.00    -0.481 OA
ATOM      5  H   UNL     1       3.980  -0.039   2.504  1.00  0.00     0.296 HD
ENDBRANCH   2   4
ENDBRANCH   1   2
BRANCH   1   6
ATOM      6  C   UNL     1       6.309   0.916  -0.642  1.00  0.00     0.047 C 
BRANCH   6   7
ATOM      7  C   UNL     1       7.030  -0.272  -1.104  1.00  0.00    -0.043 A 
ATOM      8  C   UNL     1       7.280  -0.490  -2.450  1.00  0.00     0.008 A 
ATOM      9  C   UNL     1       7.448  -1.227  -0.216  1.00  0.00     0.054 A 
ATOM     10  C   UNL     1       7.926  -1.624  -2.889  1.00  0.00     0.051 A 
ATOM     11  C   UNL     1       8.099  -2.373  -0.633  1.00  0.00     0.166 A 
ATOM     12  C   UNL     1       8.341  -2.575  -1.971  1.00  0.00     0.165 A 
ATOM     13  O   UNL     1       8.602  -3.453   0.071  1.00  0.00    -0.454 OA
ATOM     14  O   UNL     1       9.002  -3.800  -2.080  1.00  0.00    -0.454 OA
ATOM     15  C   UNL     1       8.895  -4.502  -0.864  1.00  0.00     0.468 C 
ENDBRANCH   6   7
ENDBRANCH   1   6
TORSDOF 4
ENDMDL
MODEL 5
REMARK VINA RESULT:      -7.3      0.935      2.057
REMARK SMILES O=C(O)CCc1ccc2c(c1)OCO2
REMARK SMILES IDX 4 1 2 2 1 3 3 4 5 6 6 7 7 8 11 9 8 10 10 11 9 12 12 13 14 14
REMARK SMILES IDX 13 15
REMARK H PARENT 3 5
REMARK Flexibility Score: inf
ROOT
ATOM      1  C   UNL     1       5.506   2.645   0.071  1.00  0.00     0.127 C 
ENDROOT
BRANCH   1   2
ATOM      2  C   UNL     1       6.152   3.716   0.813  1.00  0.00     0.303 C 
ATOM      3  O   UNL     1       6.122   3.860   2.037  1.00  0.00    -0.252 OA
BRANCH   2   4
ATOM      4  O   UNL     1       6.873   4.668   0.075  1.00  0.00    -0.481 OA
ATOM      5  H   UNL     1       6.514   5.610   0.093  1.00  0.00     0.296 HD
ENDBRANCH   2   4
ENDBRANCH   1   2
BRANCH   1   6
ATOM      6  C   UNL     1       5.624   1.316   0.709  1.00  0.00     0.047 C 
BRANCH   6   7
ATOM      7  C   UNL     1       6.403   0.294   0.006  1.00  0.00    -0.043 A 
ATOM      8  C   UNL     1       6.498   0.279  -1.377  1.00  0.00     0.008 A 
ATOM      9  C   UNL     1       7.032  -0.706   0.699  1.00  0.00     0.054 A 
ATOM     10  C   UNL     1       7.200  -0.702  -2.040  1.00  0.00     0.051 A 
ATOM     11  C   UNL     1       7.742  -1.700   0.055  1.00  0.00     0.166 A 
ATOM     12  C   UNL     1       7.829  -1.702  -1.317  1.00  0.00     0.165 A 
ATOM     13  O   UNL     1       8.445  -2.789   0.540  1.00  0.00    -0.454 OA
ATOM     14  O   UNL     1       8.598  -2.812  -1.670  1.00  0.00    -0.454 OA
ATOM     15  C   UNL     1       8.726  -3.669  -0.559  1.00  0.00     0.468 C 
ENDBRANCH   6   7
ENDBRANCH   1   6
TORSDOF 4
ENDMDL
