@<TRIPOS>MOLECULE
/home/cewinharhar/GITHUB/reincatalyze/data/processed/docking_pred/2023-May-17-1006_maxeplen10_maxtrainstep1000_seadep16_gamma099_lrac9e-4_lrcr1e-3_sub6/88c4e0f8a026884e113c16f062f94e0c253125d7_ligand_6.pdbqt
 15 16 0 0 0
SMALL
GASTEIGER

@<TRIPOS>ATOM
      1  C          5.4570    2.8470    0.1280 C.3     1  UNL1        0.1270
      2  C          6.2870    3.8230    0.8170 C.2     1  UNL1        0.3030
      3  O          6.8630    4.7750    0.2870 O.2     1  UNL1       -0.2520
      4  O          6.4460    3.6700    2.2030 O.3     1  UNL1       -0.4810
      5  H          7.1910    3.0600    2.5010 H       1  UNL1        0.2960
      6  C          5.3790    1.5380    0.8100 C.3     1  UNL1        0.0470
      7  C          6.1490    0.4300    0.2390 C.2     1  UNL1       -0.0430
      8  C          6.5870   -0.6270    1.0220 C.2     1  UNL1        0.0080
      9  C          6.4940    0.4270   -1.0860 C.2     1  UNL1        0.0540
     10  C          7.3420   -1.6510    0.4940 C.2     1  UNL1        0.0510
     11  C          7.2500   -0.5900   -1.6380 C.2     1  UNL1        0.1660
     12  C          7.6760   -1.6320   -0.8510 C.2     1  UNL1        0.1650
     13  O          7.7090   -0.7980   -2.9270 O.2     1  UNL1       -0.4540
     14  O          8.4070   -2.4880   -1.6760 O.2     1  UNL1       -0.4540
     15  C          8.7020   -1.8340   -2.8890 C.3     1  UNL1        0.4680
@<TRIPOS>BOND
     1    13    15    1
     2    13    11    1
     3    15    14    1
     4    14    12    1
     5    11     9    1
     6    11    12    2
     7     9     7    2
     8    12    10    1
     9     1     6    1
    10     1     2    1
    11     7     6    1
    12     7     8    1
    13     3     2    2
    14    10     8    2
    15     2     4    1
    16     4     5    1
