@<TRIPOS>MOLECULE
/home/cewinharhar/GITHUB/reincatalyze/data/processed/docking_pred/2023-May-17-1006_maxeplen10_maxtrainstep1000_seadep16_gamma099_lrac9e-4_lrcr1e-3_sub6/88c4e0f8a026884e113c16f062f94e0c253125d7_ligand_6.pdbqt
 15 16 0 0 0
SMALL
GASTEIGER

@<TRIPOS>ATOM
      1  C          4.7200    1.8770    0.6950 C.3     1  UNL1        0.1270
      2  C          4.3950    1.1660    1.9210 C.2     1  UNL1        0.3030
      3  O          5.1060    0.3230    2.4720 O.2     1  UNL1       -0.2520
      4  O          3.1670    1.4630    2.5320 O.3     1  UNL1       -0.4810
      5  H          2.9270    2.4400    2.5990 H       1  UNL1        0.2960
      6  C          6.1510    2.2260    0.5640 C.3     1  UNL1        0.0470
      7  C          6.9990    1.3240   -0.2190 C.2     1  UNL1       -0.0430
      8  C          8.3590    1.5520   -0.3640 C.2     1  UNL1        0.0080
      9  C          6.4610    0.2440   -0.8670 C.2     1  UNL1        0.0540
     10  C          9.1510    0.7250   -1.1300 C.2     1  UNL1        0.0510
     11  C          7.2360   -0.5990   -1.6410 C.2     1  UNL1        0.1660
     12  C          8.5830   -0.3620   -1.7740 C.2     1  UNL1        0.1650
     13  O          6.9160   -1.7290   -2.3720 O.2     1  UNL1       -0.4540
     14  O          9.0890   -1.3660   -2.6020 O.2     1  UNL1       -0.4540
     15  C          8.0230   -2.0370   -3.2330 C.3     1  UNL1        0.4680
@<TRIPOS>BOND
     1    15    14    1
     2    15    13    1
     3    14    12    1
     4    13    11    1
     5    12    11    2
     6    12    10    1
     7    11     9    1
     8    10     8    2
     9     9     7    2
    10     8     7    1
    11     7     6    1
    12     6     1    1
    13     1     2    1
    14     2     3    2
    15     2     4    1
    16     4     5    1
