@<TRIPOS>MOLECULE
/home/cewinharhar/GITHUB/reincatalyze/data/processed/docking_pred/2023-May-17-1006_maxeplen10_maxtrainstep1000_seadep16_gamma099_lrac9e-4_lrcr1e-3_sub6/895ea28dab147140afd805a2e235fc395d2e1c3a_ligand_6.pdbqt
 15 16 0 0 0
SMALL
GASTEIGER

@<TRIPOS>ATOM
      1  C          4.6990    1.8720    0.6800 C.3     1  UNL1        0.1270
      2  C          4.4010    1.1650    1.9160 C.2     1  UNL1        0.3030
      3  O          5.1330    0.3400    2.4650 O.2     1  UNL1       -0.2520
      4  O          3.1740    1.4450    2.5380 O.3     1  UNL1       -0.4810
      5  H          2.3450    1.1890    2.0240 H       1  UNL1        0.2960
      6  C          6.1230    2.2410    0.5290 C.3     1  UNL1        0.0470
      7  C          6.9780    1.3370   -0.2430 C.2     1  UNL1       -0.0430
      8  C          8.3390    1.5660   -0.3800 C.2     1  UNL1        0.0080
      9  C          6.4480    0.2520   -0.8890 C.2     1  UNL1        0.0540
     10  C          9.1380    0.7370   -1.1350 C.2     1  UNL1        0.0510
     11  C          7.2300   -0.5940   -1.6520 C.2     1  UNL1        0.1660
     12  C          8.5770   -0.3550   -1.7770 C.2     1  UNL1        0.1650
     13  O          6.9170   -1.7290   -2.3790 O.2     1  UNL1       -0.4540
     14  O          9.0910   -1.3620   -2.5960 O.2     1  UNL1       -0.4540
     15  C          8.0310   -2.0390   -3.2300 C.3     1  UNL1        0.4680
@<TRIPOS>BOND
     1    15    14    1
     2    15    13    1
     3    14    12    1
     4    13    11    1
     5    12    11    2
     6    12    10    1
     7    11     9    1
     8    10     8    2
     9     9     7    2
    10     8     7    1
    11     7     6    1
    12     6     1    1
    13     1     2    1
    14     2     3    2
    15     2     4    1
    16     5     4    1
