@<TRIPOS>MOLECULE
/home/cewinharhar/GITHUB/reincatalyze/data/processed/docking_pred/2023-May-17-1006_maxeplen10_maxtrainstep1000_seadep16_gamma099_lrac9e-4_lrcr1e-3_sub6/895ea28dab147140afd805a2e235fc395d2e1c3a_ligand_6.pdbqt
 15 16 0 0 0
SMALL
GASTEIGER

@<TRIPOS>ATOM
      1  C          5.4180    2.8800    0.1100 C.3     1  UNL1        0.1270
      2  C          6.2450    3.8610    0.7950 C.2     1  UNL1        0.3030
      3  O          6.8700    4.7750    0.2550 O.2     1  UNL1       -0.2520
      4  O          6.3400    3.7610    2.1920 O.3     1  UNL1       -0.4810
      5  H          6.3780    2.8260    2.5700 H       1  UNL1        0.2960
      6  C          5.3470    1.5720    0.7950 C.3     1  UNL1        0.0470
      7  C          6.1270    0.4680    0.2300 C.2     1  UNL1       -0.0430
      8  C          6.5910   -0.5720    1.0210 C.2     1  UNL1        0.0080
      9  C          6.4560    0.4520   -1.1000 C.2     1  UNL1        0.0540
     10  C          7.3540   -1.5910    0.4980 C.2     1  UNL1        0.0510
     11  C          7.2210   -0.5600   -1.6470 C.2     1  UNL1        0.1660
     12  C          7.6720   -1.5850   -0.8510 C.2     1  UNL1        0.1650
     13  O          7.6670   -0.7790   -2.9380 O.2     1  UNL1       -0.4540
     14  O          8.4060   -2.4410   -1.6740 O.2     1  UNL1       -0.4540
     15  C          8.6760   -1.8000   -2.8980 C.3     1  UNL1        0.4680
@<TRIPOS>BOND
     1    13    15    1
     2    13    11    1
     3    15    14    1
     4    14    12    1
     5    11     9    1
     6    11    12    2
     7     9     7    2
     8    12    10    1
     9     1     2    1
    10     1     6    1
    11     7     6    1
    12     7     8    1
    13     3     2    2
    14    10     8    2
    15     2     4    1
    16     4     5    1
