@<TRIPOS>MOLECULE
/home/cewinharhar/GITHUB/reincatalyze/data/processed/docking_pred/2023-May-17-1006_maxeplen10_maxtrainstep1000_seadep16_gamma099_lrac9e-4_lrcr1e-3_sub6/895ea28dab147140afd805a2e235fc395d2e1c3a_ligand_6.pdbqt
 15 16 0 0 0
SMALL
GASTEIGER

@<TRIPOS>ATOM
      1  C          5.3990    2.5260    0.2120 C.3     1  UNL1        0.1270
      2  C          6.1120    3.5880    0.9040 C.2     1  UNL1        0.3030
      3  O          6.2400    3.6880    2.1260 O.2     1  UNL1       -0.2520
      4  O          6.7050    4.5870    0.1150 O.3     1  UNL1       -0.4810
      5  H          6.2980    5.5070    0.1820 H       1  UNL1        0.2960
      6  C          5.5210    1.2010    0.8580 C.3     1  UNL1        0.0470
      7  C          6.3270    0.1870    0.1760 C.2     1  UNL1       -0.0430
      8  C          6.4820    0.1890   -1.2010 C.2     1  UNL1        0.0080
      9  C          6.9240   -0.8240    0.8830 C.2     1  UNL1        0.0540
     10  C          7.2100   -0.7850   -1.8470 C.2     1  UNL1        0.0510
     11  C          7.6600   -1.8120    0.2560 C.2     1  UNL1        0.1660
     12  C          7.8050   -1.7960   -1.1100 C.2     1  UNL1        0.1650
     13  O          8.3390   -2.9090    0.7570 O.2     1  UNL1       -0.4540
     14  O          8.5870   -2.9030   -1.4450 O.2     1  UNL1       -0.4540
     15  C          8.6650   -3.7750   -0.3410 C.3     1  UNL1        0.4680
@<TRIPOS>BOND
     1    10     8    1
     2    10    12    2
     3    14    12    1
     4    14    15    1
     5     8     7    2
     6    12    11    1
     7    15    13    1
     8     4     5    1
     9     4     2    1
    10     7     6    1
    11     7     9    1
    12     1     6    1
    13     1     2    1
    14    11    13    1
    15    11     9    2
    16     2     3    2
