@<TRIPOS>MOLECULE
/home/cewinharhar/GITHUB/reincatalyze/data/processed/docking_pred/2023-May-17-1006_maxeplen10_maxtrainstep1000_seadep16_gamma099_lrac9e-4_lrcr1e-3_sub6/895ea28dab147140afd805a2e235fc395d2e1c3a_ligand_6.pdbqt
 15 16 0 0 0
SMALL
GASTEIGER

@<TRIPOS>ATOM
      1  C          6.3880    1.3190    0.6720 C.3     1  UNL1        0.1270
      2  C          5.1870    1.2790    1.4920 C.2     1  UNL1        0.3030
      3  O          4.2350    2.0580    1.4070 O.2     1  UNL1       -0.2520
      4  O          5.1020    0.2700    2.4630 O.3     1  UNL1       -0.4810
      5  H          4.1930   -0.1470    2.5940 H       1  UNL1        0.2960
      6  C          6.1860    0.8370   -0.7110 C.3     1  UNL1        0.0470
      7  C          6.9500   -0.3380   -1.1370 C.2     1  UNL1       -0.0430
      8  C          7.2640   -0.5540   -2.4700 C.2     1  UNL1        0.0080
      9  C          7.3440   -1.2840   -0.2290 C.2     1  UNL1        0.0540
     10  C          7.9500   -1.6760   -2.8770 C.2     1  UNL1        0.0510
     11  C          8.0340   -2.4180   -0.6140 C.2     1  UNL1        0.1660
     12  C          8.3400   -2.6180   -1.9380 C.2     1  UNL1        0.1650
     13  O          8.5250   -3.4860    0.1160 O.2     1  UNL1       -0.4540
     14  O          9.0280   -3.8300   -2.0140 O.2     1  UNL1       -0.4540
     15  C          8.8790   -4.5320   -0.8020 C.3     1  UNL1        0.4680
@<TRIPOS>BOND
     1    10     8    1
     2    10    12    2
     3     8     7    2
     4    14    12    1
     5    14    15    1
     6    12    11    1
     7     7     6    1
     8     7     9    1
     9    15    13    1
    10     6     1    1
    11    11     9    2
    12    11    13    1
    13     1     2    1
    14     3     2    2
    15     2     4    1
    16     4     5    1
