@<TRIPOS>MOLECULE
/home/cewinharhar/GITHUB/reincatalyze/data/processed/docking_pred/2023-May-17-1006_maxeplen10_maxtrainstep1000_seadep16_gamma099_lrac9e-4_lrcr1e-3_sub6/895ea28dab147140afd805a2e235fc395d2e1c3a_ligand_6.pdbqt
 15 16 0 0 0
SMALL
GASTEIGER

@<TRIPOS>ATOM
      1  C          8.3160   -0.1890   -2.8280 C.3     1  UNL1        0.1270
      2  C          8.5110   -1.6200   -2.9990 C.2     1  UNL1        0.3030
      3  O          9.5890   -2.2120   -2.9200 O.2     1  UNL1       -0.2520
      4  O          7.3750   -2.3960   -3.2780 O.3     1  UNL1       -0.4810
      5  H          7.3360   -3.3030   -2.8390 H       1  UNL1        0.2960
      6  C          8.7260    0.3180   -1.5010 C.3     1  UNL1        0.0470
      7  C          7.7490    0.2350   -0.4130 C.2     1  UNL1       -0.0430
      8  C          7.7090   -0.8540    0.4440 C.2     1  UNL1        0.0080
      9  C          6.8150    1.2210   -0.2340 C.2     1  UNL1        0.0540
     10  C          6.7680   -0.9500    1.4440 C.2     1  UNL1        0.0510
     11  C          5.8620    1.1460    0.7640 C.2     1  UNL1        0.1660
     12  C          5.8350    0.0610    1.6060 C.2     1  UNL1        0.1650
     13  O          4.8400    2.0070    1.1250 O.2     1  UNL1       -0.4540
     14  O          4.7780    0.2660    2.4940 O.2     1  UNL1       -0.4540
     15  C          3.9590    1.3090    2.0170 C.3     1  UNL1        0.4680
@<TRIPOS>BOND
     1     4     2    1
     2     4     5    1
     3     2     3    2
     4     2     1    1
     5     1     6    1
     6     6     7    1
     7     7     9    2
     8     7     8    1
     9     9    11    1
    10     8    10    2
    11    11    13    1
    12    11    12    2
    13    13    15    1
    14    10    12    1
    15    12    14    1
    16    15    14    1
