MODEL 1
REMARK VINA RESULT:      -7.7      0.000      0.000
REMARK SMILES O=C(O)CCc1ccc2c(c1)OCO2
REMARK SMILES IDX 4 1 2 2 1 3 3 4 5 6 6 7 7 8 11 9 8 10 10 11 9 12 12 13 14 14
REMARK SMILES IDX 13 15
REMARK H PARENT 3 5
REMARK Flexibility Score: inf
ROOT
ATOM      1  C   UNL     1       5.418   2.880   0.110  1.00  0.00     0.127 C 
ENDROOT
BRANCH   1   2
ATOM      2  C   UNL     1       6.245   3.861   0.795  1.00  0.00     0.303 C 
ATOM      3  O   UNL     1       6.870   4.775   0.255  1.00  0.00    -0.252 OA
BRANCH   2   4
ATOM      4  O   UNL     1       6.340   3.761   2.192  1.00  0.00    -0.481 OA
ATOM      5  H   UNL     1       6.378   2.826   2.570  1.00  0.00     0.296 HD
ENDBRANCH   2   4
ENDBRANCH   1   2
BRANCH   1   6
ATOM      6  C   UNL     1       5.347   1.572   0.795  1.00  0.00     0.047 C 
BRANCH   6   7
ATOM      7  C   UNL     1       6.127   0.468   0.230  1.00  0.00    -0.043 A 
ATOM      8  C   UNL     1       6.591  -0.572   1.021  1.00  0.00     0.008 A 
ATOM      9  C   UNL     1       6.456   0.452  -1.100  1.00  0.00     0.054 A 
ATOM     10  C   UNL     1       7.354  -1.591   0.498  1.00  0.00     0.051 A 
ATOM     11  C   UNL     1       7.221  -0.560  -1.647  1.00  0.00     0.166 A 
ATOM     12  C   UNL     1       7.672  -1.585  -0.851  1.00  0.00     0.165 A 
ATOM     13  O   UNL     1       7.667  -0.779  -2.938  1.00  0.00    -0.454 OA
ATOM     14  O   UNL     1       8.406  -2.441  -1.674  1.00  0.00    -0.454 OA
ATOM     15  C   UNL     1       8.676  -1.800  -2.898  1.00  0.00     0.468 C 
ENDBRANCH   6   7
ENDBRANCH   1   6
TORSDOF 4
ENDMDL
MODEL 2
REMARK VINA RESULT:      -7.6      2.125      2.517
REMARK SMILES O=C(O)CCc1ccc2c(c1)OCO2
REMARK SMILES IDX 4 1 2 2 1 3 3 4 5 6 6 7 7 8 11 9 8 10 10 11 9 12 12 13 14 14
REMARK SMILES IDX 13 15
REMARK H PARENT 3 5
REMARK Flexibility Score: inf
ROOT
ATOM      1  C   UNL     1       4.699   1.872   0.680  1.00  0.00     0.127 C 
ENDROOT
BRANCH   1   2
ATOM      2  C   UNL     1       4.401   1.165   1.916  1.00  0.00     0.303 C 
ATOM      3  O   UNL     1       5.133   0.340   2.465  1.00  0.00    -0.252 OA
BRANCH   2   4
ATOM      4  O   UNL     1       3.174   1.445   2.538  1.00  0.00    -0.481 OA
ATOM      5  H   UNL     1       2.345   1.189   2.024  1.00  0.00     0.296 HD
ENDBRANCH   2   4
ENDBRANCH   1   2
BRANCH   1   6
ATOM      6  C   UNL     1       6.123   2.241   0.529  1.00  0.00     0.047 C 
BRANCH   6   7
ATOM      7  C   UNL     1       6.978   1.337  -0.243  1.00  0.00    -0.043 A 
ATOM      8  C   UNL     1       8.339   1.566  -0.380  1.00  0.00     0.008 A 
ATOM      9  C   UNL     1       6.448   0.252  -0.889  1.00  0.00     0.054 A 
ATOM     10  C   UNL     1       9.138   0.737  -1.135  1.00  0.00     0.051 A 
ATOM     11  C   UNL     1       7.230  -0.594  -1.652  1.00  0.00     0.166 A 
ATOM     12  C   UNL     1       8.577  -0.355  -1.777  1.00  0.00     0.165 A 
ATOM     13  O   UNL     1       6.917  -1.729  -2.379  1.00  0.00    -0.454 OA
ATOM     14  O   UNL     1       9.091  -1.362  -2.596  1.00  0.00    -0.454 OA
ATOM     15  C   UNL     1       8.031  -2.039  -3.230  1.00  0.00     0.468 C 
ENDBRANCH   6   7
ENDBRANCH   1   6
TORSDOF 4
ENDMDL
MODEL 3
REMARK VINA RESULT:      -7.5      1.981      2.887
REMARK SMILES O=C(O)CCc1ccc2c(c1)OCO2
REMARK SMILES IDX 4 1 2 2 1 3 3 4 5 6 6 7 7 8 11 9 8 10 10 11 9 12 12 13 14 14
REMARK SMILES IDX 13 15
REMARK H PARENT 3 5
REMARK Flexibility Score: inf
ROOT
ATOM      1  C   UNL     1       6.388   1.319   0.672  1.00  0.00     0.127 C 
ENDROOT
BRANCH   1   2
ATOM      2  C   UNL     1       5.187   1.279   1.492  1.00  0.00     0.303 C 
ATOM      3  O   UNL     1       4.235   2.058   1.407  1.00  0.00    -0.252 OA
BRANCH   2   4
ATOM      4  O   UNL     1       5.102   0.270   2.463  1.00  0.00    -0.481 OA
ATOM      5  H   UNL     1       4.193  -0.147   2.594  1.00  0.00     0.296 HD
ENDBRANCH   2   4
ENDBRANCH   1   2
BRANCH   1   6
ATOM      6  C   UNL     1       6.186   0.837  -0.711  1.00  0.00     0.047 C 
BRANCH   6   7
ATOM      7  C   UNL     1       6.950  -0.338  -1.137  1.00  0.00    -0.043 A 
ATOM      8  C   UNL     1       7.264  -0.554  -2.470  1.00  0.00     0.008 A 
ATOM      9  C   UNL     1       7.344  -1.284  -0.229  1.00  0.00     0.054 A 
ATOM     10  C   UNL     1       7.950  -1.676  -2.877  1.00  0.00     0.051 A 
ATOM     11  C   UNL     1       8.034  -2.418  -0.614  1.00  0.00     0.166 A 
ATOM     12  C   UNL     1       8.340  -2.618  -1.938  1.00  0.00     0.165 A 
ATOM     13  O   UNL     1       8.525  -3.486   0.116  1.00  0.00    -0.454 OA
ATOM     14  O   UNL     1       9.028  -3.830  -2.014  1.00  0.00    -0.454 OA
ATOM     15  C   UNL     1       8.879  -4.532  -0.802  1.00  0.00     0.468 C 
ENDBRANCH   6   7
ENDBRANCH   1   6
TORSDOF 4
ENDMDL
MODEL 4
REMARK VINA RESULT:      -7.4      1.782      5.253
REMARK SMILES O=C(O)CCc1ccc2c(c1)OCO2
REMARK SMILES IDX 4 1 2 2 1 3 3 4 5 6 6 7 7 8 11 9 8 10 10 11 9 12 12 13 14 14
REMARK SMILES IDX 13 15
REMARK H PARENT 3 5
REMARK Flexibility Score: inf
ROOT
ATOM      1  C   UNL     1       8.316  -0.189  -2.828  1.00  0.00     0.127 C 
ENDROOT
BRANCH   1   2
ATOM      2  C   UNL     1       8.511  -1.620  -2.999  1.00  0.00     0.303 C 
ATOM      3  O   UNL     1       9.589  -2.212  -2.920  1.00  0.00    -0.252 OA
BRANCH   2   4
ATOM      4  O   UNL     1       7.375  -2.396  -3.278  1.00  0.00    -0.481 OA
ATOM      5  H   UNL     1       7.336  -3.303  -2.839  1.00  0.00     0.296 HD
ENDBRANCH   2   4
ENDBRANCH   1   2
BRANCH   1   6
ATOM      6  C   UNL     1       8.726   0.318  -1.501  1.00  0.00     0.047 C 
BRANCH   6   7
ATOM      7  C   UNL     1       7.749   0.235  -0.413  1.00  0.00    -0.043 A 
ATOM      8  C   UNL     1       7.709  -0.854   0.444  1.00  0.00     0.008 A 
ATOM      9  C   UNL     1       6.815   1.221  -0.234  1.00  0.00     0.054 A 
ATOM     10  C   UNL     1       6.768  -0.950   1.444  1.00  0.00     0.051 A 
ATOM     11  C   UNL     1       5.862   1.146   0.764  1.00  0.00     0.166 A 
ATOM     12  C   UNL     1       5.835   0.061   1.606  1.00  0.00     0.165 A 
ATOM     13  O   UNL     1       4.840   2.007   1.125  1.00  0.00    -0.454 OA
ATOM     14  O   UNL     1       4.778   0.266   2.494  1.00  0.00    -0.454 OA
ATOM     15  C   UNL     1       3.959   1.309   2.017  1.00  0.00     0.468 C 
ENDBRANCH   6   7
ENDBRANCH   1   6
TORSDOF 4
ENDMDL
MODEL 5
REMARK VINA RESULT:      -7.4      0.993      2.123
REMARK SMILES O=C(O)CCc1ccc2c(c1)OCO2
REMARK SMILES IDX 4 1 2 2 1 3 3 4 5 6 6 7 7 8 11 9 8 10 10 11 9 12 12 13 14 14
REMARK SMILES IDX 13 15
REMARK H PARENT 3 5
REMARK Flexibility Score: inf
ROOT
ATOM      1  C   UNL     1       5.399   2.526   0.212  1.00  0.00     0.127 C 
ENDROOT
BRANCH   1   2
ATOM      2  C   UNL     1       6.112   3.588   0.904  1.00  0.00     0.303 C 
ATOM      3  O   UNL     1       6.240   3.688   2.126  1.00  0.00    -0.252 OA
BRANCH   2   4
ATOM      4  O   UNL     1       6.705   4.587   0.115  1.00  0.00    -0.481 OA
ATOM      5  H   UNL     1       6.298   5.507   0.182  1.00  0.00     0.296 HD
ENDBRANCH   2   4
ENDBRANCH   1   2
BRANCH   1   6
ATOM      6  C   UNL     1       5.521   1.201   0.858  1.00  0.00     0.047 C 
BRANCH   6   7
ATOM      7  C   UNL     1       6.327   0.187   0.176  1.00  0.00    -0.043 A 
ATOM      8  C   UNL     1       6.482   0.189  -1.201  1.00  0.00     0.008 A 
ATOM      9  C   UNL     1       6.924  -0.824   0.883  1.00  0.00     0.054 A 
ATOM     10  C   UNL     1       7.210  -0.785  -1.847  1.00  0.00     0.051 A 
ATOM     11  C   UNL     1       7.660  -1.812   0.256  1.00  0.00     0.166 A 
ATOM     12  C   UNL     1       7.805  -1.796  -1.110  1.00  0.00     0.165 A 
ATOM     13  O   UNL     1       8.339  -2.909   0.757  1.00  0.00    -0.454 OA
ATOM     14  O   UNL     1       8.587  -2.903  -1.445  1.00  0.00    -0.454 OA
ATOM     15  C   UNL     1       8.665  -3.775  -0.341  1.00  0.00     0.468 C 
ENDBRANCH   6   7
ENDBRANCH   1   6
TORSDOF 4
ENDMDL
