@<TRIPOS>MOLECULE
/home/cewinharhar/GITHUB/reincatalyze/data/processed/docking_pred/2023-May-17-1006_maxeplen10_maxtrainstep1000_seadep16_gamma099_lrac9e-4_lrcr1e-3_sub6/8a11bcf53d23875e79cb17a52aa7b3de0dc85e7d_ligand_6.pdbqt
 15 16 0 0 0
SMALL
GASTEIGER

@<TRIPOS>ATOM
      1  C          6.4230    1.3240    0.6720 C.3     1  UNL1        0.1270
      2  C          5.1910    1.3450    1.4460 C.2     1  UNL1        0.3030
      3  O          4.2710    2.1530    1.3080 O.2     1  UNL1       -0.2520
      4  O          5.0360    0.3620    2.4350 O.3     1  UNL1       -0.4810
      5  H          4.0890    0.1660    2.7240 H       1  UNL1        0.2960
      6  C          6.2440    0.8850   -0.7290 C.3     1  UNL1        0.0470
      7  C          6.9910   -0.2950   -1.1700 C.2     1  UNL1       -0.0430
      8  C          7.2800   -0.5110   -2.5080 C.2     1  UNL1        0.0080
      9  C          7.3950   -1.2440   -0.2690 C.2     1  UNL1        0.0540
     10  C          7.9500   -1.6380   -2.9280 C.2     1  UNL1        0.0510
     11  C          8.0700   -2.3830   -0.6670 C.2     1  UNL1        0.1660
     12  C          8.3500   -2.5830   -1.9970 C.2     1  UNL1        0.1650
     13  O          8.5660   -3.4560    0.0520 O.2     1  UNL1       -0.4540
     14  O          9.0280   -3.8000   -2.0870 O.2     1  UNL1       -0.4540
     15  C          8.8960   -4.5030   -0.8730 C.3     1  UNL1        0.4680
@<TRIPOS>BOND
     1    10     8    1
     2    10    12    2
     3     8     7    2
     4    14    12    1
     5    14    15    1
     6    12    11    1
     7     7     6    1
     8     7     9    1
     9    15    13    1
    10     6     1    1
    11    11     9    2
    12    11    13    1
    13     1     2    1
    14     3     2    2
    15     2     4    1
    16     4     5    1
