@<TRIPOS>MOLECULE
/home/cewinharhar/GITHUB/reincatalyze/data/processed/docking_pred/2023-May-17-1006_maxeplen10_maxtrainstep1000_seadep16_gamma099_lrac9e-4_lrcr1e-3_sub6/8a11bcf53d23875e79cb17a52aa7b3de0dc85e7d_ligand_6.pdbqt
 15 16 0 0 0
SMALL
GASTEIGER

@<TRIPOS>ATOM
      1  C          5.3530    2.1980    0.6670 C.3     1  UNL1        0.1270
      2  C          6.1570    3.3830    0.9200 C.2     1  UNL1        0.3030
      3  O          6.6480    4.1150    0.0590 O.2     1  UNL1       -0.2520
      4  O          6.3960    3.7250    2.2610 O.3     1  UNL1       -0.4810
      5  H          6.3370    2.9730    2.9290 H       1  UNL1        0.2960
      6  C          5.8460    0.9810    1.3460 C.3     1  UNL1        0.0470
      7  C          6.5500   -0.0110    0.5300 C.2     1  UNL1       -0.0430
      8  C          6.5290    0.0430   -0.8550 C.2     1  UNL1        0.0080
      9  C          7.2220   -1.0500    1.1170 C.2     1  UNL1        0.0540
     10  C          7.1610   -0.9100   -1.6230 C.2     1  UNL1        0.0510
     11  C          7.8630   -2.0170    0.3670 C.2     1  UNL1        0.1660
     12  C          7.8350   -1.9510   -1.0050 C.2     1  UNL1        0.1650
     13  O          8.5900   -3.1350    0.7360 O.2     1  UNL1       -0.4540
     14  O          8.5570   -3.0480   -1.4770 O.2     1  UNL1       -0.4540
     15  C          8.7660   -3.9610   -0.4250 C.3     1  UNL1        0.4680
@<TRIPOS>BOND
     1    10    12    2
     2    10     8    1
     3    14    12    1
     4    14    15    1
     5    12    11    1
     6     8     7    2
     7    15    13    1
     8     3     2    2
     9    11    13    1
    10    11     9    2
    11     7     9    1
    12     7     6    1
    13     1     2    1
    14     1     6    1
    15     2     4    1
    16     4     5    1
