@<TRIPOS>MOLECULE
/home/cewinharhar/GITHUB/reincatalyze/data/processed/docking_pred/2023-May-17-1006_maxeplen10_maxtrainstep1000_seadep16_gamma099_lrac9e-4_lrcr1e-3_sub6/8a11bcf53d23875e79cb17a52aa7b3de0dc85e7d_ligand_6.pdbqt
 15 16 0 0 0
SMALL
GASTEIGER

@<TRIPOS>ATOM
      1  C          4.6740    1.8750    0.6710 C.3     1  UNL1        0.1270
      2  C          4.3970    1.1710    1.9130 C.2     1  UNL1        0.3030
      3  O          5.1450    0.3580    2.4600 O.2     1  UNL1       -0.2520
      4  O          3.1730    1.4390    2.5460 O.3     1  UNL1       -0.4810
      5  H          2.8980    2.4080    2.5920 H       1  UNL1        0.2960
      6  C          6.0920    2.2610    0.5040 C.3     1  UNL1        0.0470
      7  C          6.9550    1.3560   -0.2580 C.2     1  UNL1       -0.0430
      8  C          8.3170    1.5840   -0.3780 C.2     1  UNL1        0.0080
      9  C          6.4310    0.2720   -0.9100 C.2     1  UNL1        0.0540
     10  C          9.1240    0.7530   -1.1240 C.2     1  UNL1        0.0510
     11  C          7.2210   -0.5760   -1.6630 C.2     1  UNL1        0.1660
     12  C          8.5700   -0.3380   -1.7720 C.2     1  UNL1        0.1650
     13  O          6.9150   -1.7100   -2.3940 O.2     1  UNL1       -0.4540
     14  O          9.0920   -1.3460   -2.5840 O.2     1  UNL1       -0.4540
     15  C          8.0390   -2.0220   -3.2310 C.3     1  UNL1        0.4680
@<TRIPOS>BOND
     1    15    14    1
     2    15    13    1
     3    14    12    1
     4    13    11    1
     5    12    11    2
     6    12    10    1
     7    11     9    1
     8    10     8    2
     9     9     7    2
    10     8     7    1
    11     7     6    1
    12     6     1    1
    13     1     2    1
    14     2     3    2
    15     2     4    1
    16     4     5    1
