@<TRIPOS>MOLECULE
/home/cewinharhar/GITHUB/reincatalyze/data/processed/docking_pred/2023-May-17-1006_maxeplen10_maxtrainstep1000_seadep16_gamma099_lrac9e-4_lrcr1e-3_sub6/8a11bcf53d23875e79cb17a52aa7b3de0dc85e7d_ligand_6.pdbqt
 15 16 0 0 0
SMALL
GASTEIGER

@<TRIPOS>ATOM
      1  C          8.3090   -0.3210   -2.8530 C.3     1  UNL1        0.1270
      2  C          8.4690   -1.7500   -3.0730 C.2     1  UNL1        0.3030
      3  O          9.5350   -2.3660   -3.0360 O.2     1  UNL1       -0.2520
      4  O          7.3110   -2.4930   -3.3500 O.3     1  UNL1       -0.4810
      5  H          6.4910   -1.9620   -3.6010 H       1  UNL1        0.2960
      6  C          8.7630    0.1360   -1.5220 C.3     1  UNL1        0.0470
      7  C          7.7940    0.0960   -0.4250 C.2     1  UNL1       -0.0430
      8  C          7.7450   -0.9700    0.4600 C.2     1  UNL1        0.0080
      9  C          6.8760    1.0990   -0.2650 C.2     1  UNL1        0.0540
     10  C          6.8110   -1.0270    1.4700 C.2     1  UNL1        0.0510
     11  C          5.9290    1.0640    0.7420 C.2     1  UNL1        0.1660
     12  C          5.8940    0.0020    1.6130 C.2     1  UNL1        0.1650
     13  O          4.9230    1.9490    1.0880 O.2     1  UNL1       -0.4540
     14  O          4.8470    0.2460    2.5030 O.2     1  UNL1       -0.4540
     15  C          4.0390    1.2870    2.0050 C.3     1  UNL1        0.4680
@<TRIPOS>BOND
     1     5     4    1
     2     4     2    1
     3     2     3    2
     4     2     1    1
     5     1     6    1
     6     6     7    1
     7     7     9    2
     8     7     8    1
     9     9    11    1
    10     8    10    2
    11    11    13    1
    12    11    12    2
    13    13    15    1
    14    10    12    1
    15    12    14    1
    16    15    14    1
