@<TRIPOS>MOLECULE
/home/cewinharhar/GITHUB/reincatalyze/data/processed/docking_pred/2023-May-17-1006_maxeplen10_maxtrainstep1000_seadep16_gamma099_lrac9e-4_lrcr1e-3_sub6/8a11bcf53d23875e79cb17a52aa7b3de0dc85e7d_ligand_6.pdbqt
 15 16 0 0 0
SMALL
GASTEIGER

@<TRIPOS>ATOM
      1  C          5.4070    2.8680    0.1350 C.3     1  UNL1        0.1270
      2  C          6.2350    3.8500    0.8170 C.2     1  UNL1        0.3030
      3  O          6.8600    4.7630    0.2740 O.2     1  UNL1       -0.2520
      4  O          6.3310    3.7520    2.2140 O.3     1  UNL1       -0.4810
      5  H          5.9980    4.5450    2.7400 H       1  UNL1        0.2960
      6  C          5.3410    1.5590    0.8200 C.3     1  UNL1        0.0470
      7  C          6.1210    0.4570    0.2530 C.2     1  UNL1       -0.0430
      8  C          6.5910   -0.5800    1.0440 C.2     1  UNL1        0.0080
      9  C          6.4450    0.4410   -1.0780 C.2     1  UNL1        0.0540
     10  C          7.3550   -1.5980    0.5190 C.2     1  UNL1        0.0510
     11  C          7.2100   -0.5710   -1.6270 C.2     1  UNL1        0.1660
     12  C          7.6680   -1.5930   -0.8310 C.2     1  UNL1        0.1650
     13  O          7.6520   -0.7900   -2.9200 O.2     1  UNL1       -0.4540
     14  O          8.4000   -2.4490   -1.6560 O.2     1  UNL1       -0.4540
     15  C          8.6640   -1.8080   -2.8820 C.3     1  UNL1        0.4680
@<TRIPOS>BOND
     1    13    15    1
     2    13    11    1
     3    15    14    1
     4    14    12    1
     5    11     9    1
     6    11    12    2
     7     9     7    2
     8    12    10    1
     9     1     2    1
    10     1     6    1
    11     7     6    1
    12     7     8    1
    13     3     2    2
    14    10     8    2
    15     2     4    1
    16     4     5    1
