MODEL 1
REMARK VINA RESULT:      -7.7      0.000      0.000
REMARK SMILES O=C(O)CCc1ccc2c(c1)OCO2
REMARK SMILES IDX 4 1 2 2 1 3 3 4 5 6 6 7 7 8 11 9 8 10 10 11 9 12 12 13 14 14
REMARK SMILES IDX 13 15
REMARK H PARENT 3 5
REMARK Flexibility Score: inf
ROOT
ATOM      1  C   UNL     1       5.413   2.875   0.104  1.00  0.00     0.127 C 
ENDROOT
BRANCH   1   2
ATOM      2  C   UNL     1       6.240   3.854   0.791  1.00  0.00     0.303 C 
ATOM      3  O   UNL     1       6.879   4.759   0.251  1.00  0.00    -0.252 OA
BRANCH   2   4
ATOM      4  O   UNL     1       6.320   3.763   2.189  1.00  0.00    -0.481 OA
ATOM      5  H   UNL     1       7.246   3.666   2.577  1.00  0.00     0.296 HD
ENDBRANCH   2   4
ENDBRANCH   1   2
BRANCH   1   6
ATOM      6  C   UNL     1       5.345   1.564   0.783  1.00  0.00     0.047 C 
BRANCH   6   7
ATOM      7  C   UNL     1       6.127   0.465   0.212  1.00  0.00    -0.043 A 
ATOM      8  C   UNL     1       6.562  -0.596   0.991  1.00  0.00     0.008 A 
ATOM      9  C   UNL     1       6.485   0.473  -1.110  1.00  0.00     0.054 A 
ATOM     10  C   UNL     1       7.327  -1.612   0.463  1.00  0.00     0.051 A 
ATOM     11  C   UNL     1       7.252  -0.536  -1.661  1.00  0.00     0.166 A 
ATOM     12  C   UNL     1       7.676  -1.581  -0.877  1.00  0.00     0.165 A 
ATOM     13  O   UNL     1       7.725  -0.732  -2.947  1.00  0.00    -0.454 OA
ATOM     14  O   UNL     1       8.419  -2.428  -1.701  1.00  0.00    -0.454 OA
ATOM     15  C   UNL     1       8.723  -1.763  -2.906  1.00  0.00     0.468 C 
ENDBRANCH   6   7
ENDBRANCH   1   6
TORSDOF 4
ENDMDL
MODEL 2
REMARK VINA RESULT:      -7.5      2.120      2.519
REMARK SMILES O=C(O)CCc1ccc2c(c1)OCO2
REMARK SMILES IDX 4 1 2 2 1 3 3 4 5 6 6 7 7 8 11 9 8 10 10 11 9 12 12 13 14 14
REMARK SMILES IDX 13 15
REMARK H PARENT 3 5
REMARK Flexibility Score: inf
ROOT
ATOM      1  C   UNL     1       4.669   1.846   0.676  1.00  0.00     0.127 C 
ENDROOT
BRANCH   1   2
ATOM      2  C   UNL     1       4.387   1.157   1.925  1.00  0.00     0.303 C 
ATOM      3  O   UNL     1       5.131   0.346   2.480  1.00  0.00    -0.252 OA
BRANCH   2   4
ATOM      4  O   UNL     1       3.164   1.438   2.555  1.00  0.00    -0.481 OA
ATOM      5  H   UNL     1       2.399   1.689   1.948  1.00  0.00     0.296 HD
ENDBRANCH   2   4
ENDBRANCH   1   2
BRANCH   1   6
ATOM      6  C   UNL     1       6.085   2.237   0.512  1.00  0.00     0.047 C 
BRANCH   6   7
ATOM      7  C   UNL     1       6.953   1.335  -0.249  1.00  0.00    -0.043 A 
ATOM      8  C   UNL     1       8.312   1.575  -0.377  1.00  0.00     0.008 A 
ATOM      9  C   UNL     1       6.435   0.243  -0.892  1.00  0.00     0.054 A 
ATOM     10  C   UNL     1       9.123   0.748  -1.122  1.00  0.00     0.051 A 
ATOM     11  C   UNL     1       7.230  -0.601  -1.645  1.00  0.00     0.166 A 
ATOM     12  C   UNL     1       8.576  -0.352  -1.762  1.00  0.00     0.165 A 
ATOM     13  O   UNL     1       6.931  -1.743  -2.367  1.00  0.00    -0.454 OA
ATOM     14  O   UNL     1       9.104  -1.360  -2.571  1.00  0.00    -0.454 OA
ATOM     15  C   UNL     1       8.054  -2.049  -3.209  1.00  0.00     0.468 C 
ENDBRANCH   6   7
ENDBRANCH   1   6
TORSDOF 4
ENDMDL
MODEL 3
REMARK VINA RESULT:      -7.5      1.977      2.885
REMARK SMILES O=C(O)CCc1ccc2c(c1)OCO2
REMARK SMILES IDX 4 1 2 2 1 3 3 4 5 6 6 7 7 8 11 9 8 10 10 11 9 12 12 13 14 14
REMARK SMILES IDX 13 15
REMARK H PARENT 3 5
REMARK Flexibility Score: inf
ROOT
ATOM      1  C   UNL     1       6.368   1.358   0.618  1.00  0.00     0.127 C 
ENDROOT
BRANCH   1   2
ATOM      2  C   UNL     1       5.198   1.283   1.478  1.00  0.00     0.303 C 
ATOM      3  O   UNL     1       4.232   2.047   1.443  1.00  0.00    -0.252 OA
BRANCH   2   4
ATOM      4  O   UNL     1       5.164   0.253   2.432  1.00  0.00    -0.481 OA
ATOM      5  H   UNL     1       4.515  -0.497   2.253  1.00  0.00     0.296 HD
ENDBRANCH   2   4
ENDBRANCH   1   2
BRANCH   1   6
ATOM      6  C   UNL     1       6.147   0.825  -0.744  1.00  0.00     0.047 C 
BRANCH   6   7
ATOM      7  C   UNL     1       6.933  -0.342  -1.150  1.00  0.00    -0.043 A 
ATOM      8  C   UNL     1       7.286  -0.553  -2.473  1.00  0.00     0.008 A 
ATOM      9  C   UNL     1       7.310  -1.286  -0.231  1.00  0.00     0.054 A 
ATOM     10  C   UNL     1       7.994  -1.669  -2.862  1.00  0.00     0.051 A 
ATOM     11  C   UNL     1       8.021  -2.413  -0.598  1.00  0.00     0.166 A 
ATOM     12  C   UNL     1       8.365  -2.608  -1.914  1.00  0.00     0.165 A 
ATOM     13  O   UNL     1       8.500  -3.479   0.143  1.00  0.00    -0.454 OA
ATOM     14  O   UNL     1       9.066  -3.814  -1.972  1.00  0.00    -0.454 OA
ATOM     15  C   UNL     1       8.889  -4.520  -0.766  1.00  0.00     0.468 C 
ENDBRANCH   6   7
ENDBRANCH   1   6
TORSDOF 4
ENDMDL
MODEL 4
REMARK VINA RESULT:      -7.5      1.807      5.266
REMARK SMILES O=C(O)CCc1ccc2c(c1)OCO2
REMARK SMILES IDX 4 1 2 2 1 3 3 4 5 6 6 7 7 8 11 9 8 10 10 11 9 12 12 13 14 14
REMARK SMILES IDX 13 15
REMARK H PARENT 3 5
REMARK Flexibility Score: inf
ROOT
ATOM      1  C   UNL     1       8.235  -0.204  -2.848  1.00  0.00     0.127 C 
ENDROOT
BRANCH   1   2
ATOM      2  C   UNL     1       8.478  -1.625  -3.042  1.00  0.00     0.303 C 
ATOM      3  O   UNL     1       9.565  -2.191  -2.916  1.00  0.00    -0.252 OA
BRANCH   2   4
ATOM      4  O   UNL     1       7.380  -2.423  -3.403  1.00  0.00    -0.481 OA
ATOM      5  H   UNL     1       7.300  -2.653  -4.381  1.00  0.00     0.296 HD
ENDBRANCH   2   4
ENDBRANCH   1   2
BRANCH   1   6
ATOM      6  C   UNL     1       8.686   0.308  -1.537  1.00  0.00     0.047 C 
BRANCH   6   7
ATOM      7  C   UNL     1       7.738   0.245  -0.422  1.00  0.00    -0.043 A 
ATOM      8  C   UNL     1       7.768  -0.792   0.497  1.00  0.00     0.008 A 
ATOM      9  C   UNL     1       6.763   1.196  -0.278  1.00  0.00     0.054 A 
ATOM     10  C   UNL     1       6.854  -0.872   1.524  1.00  0.00     0.051 A 
ATOM     11  C   UNL     1       5.836   1.137   0.745  1.00  0.00     0.166 A 
ATOM     12  C   UNL     1       5.879   0.103   1.650  1.00  0.00     0.165 A 
ATOM     13  O   UNL     1       4.783   1.970   1.081  1.00  0.00    -0.454 OA
ATOM     14  O   UNL     1       4.833   0.312   2.550  1.00  0.00    -0.454 OA
ATOM     15  C   UNL     1       3.955   1.286   2.033  1.00  0.00     0.468 C 
ENDBRANCH   6   7
ENDBRANCH   1   6
TORSDOF 4
ENDMDL
MODEL 5
REMARK VINA RESULT:      -7.4      0.970      2.128
REMARK SMILES O=C(O)CCc1ccc2c(c1)OCO2
REMARK SMILES IDX 4 1 2 2 1 3 3 4 5 6 6 7 7 8 11 9 8 10 10 11 9 12 12 13 14 14
REMARK SMILES IDX 13 15
REMARK H PARENT 3 5
REMARK Flexibility Score: inf
ROOT
ATOM      1  C   UNL     1       5.356   2.707   0.133  1.00  0.00     0.127 C 
ENDROOT
BRANCH   1   2
ATOM      2  C   UNL     1       6.083   3.721   0.879  1.00  0.00     0.303 C 
ATOM      3  O   UNL     1       6.143   3.803   2.108  1.00  0.00    -0.252 OA
BRANCH   2   4
ATOM      4  O   UNL     1       6.778   4.691   0.140  1.00  0.00    -0.481 OA
ATOM      5  H   UNL     1       6.556   5.653   0.348  1.00  0.00     0.296 HD
ENDBRANCH   2   4
ENDBRANCH   1   2
BRANCH   1   6
ATOM      6  C   UNL     1       5.374   1.369   0.764  1.00  0.00     0.047 C 
BRANCH   6   7
ATOM      7  C   UNL     1       6.218   0.342   0.150  1.00  0.00    -0.043 A 
ATOM      8  C   UNL     1       6.486   0.342  -1.211  1.00  0.00     0.008 A 
ATOM      9  C   UNL     1       6.740  -0.677   0.901  1.00  0.00     0.054 A 
ATOM     10  C   UNL     1       7.249  -0.643  -1.796  1.00  0.00     0.051 A 
ATOM     11  C   UNL     1       7.509  -1.676   0.336  1.00  0.00     0.166 A 
ATOM     12  C   UNL     1       7.767  -1.663  -1.013  1.00  0.00     0.165 A 
ATOM     13  O   UNL     1       8.128  -2.783   0.890  1.00  0.00    -0.454 OA
ATOM     14  O   UNL     1       8.556  -2.782  -1.284  1.00  0.00    -0.454 OA
ATOM     15  C   UNL     1       8.530  -3.655  -0.178  1.00  0.00     0.468 C 
ENDBRANCH   6   7
ENDBRANCH   1   6
TORSDOF 4
ENDMDL
