@<TRIPOS>MOLECULE
/home/cewinharhar/GITHUB/reincatalyze/data/processed/docking_pred/2023-May-17-1006_maxeplen10_maxtrainstep1000_seadep16_gamma099_lrac9e-4_lrcr1e-3_sub6/8c75984685002de52dc1feb6518b36ce8b766619_ligand_6.pdbqt
 15 16 0 0 0
SMALL
GASTEIGER

@<TRIPOS>ATOM
      1  C          5.3560    2.7070    0.1330 C.3     1  UNL1        0.1270
      2  C          6.0830    3.7210    0.8790 C.2     1  UNL1        0.3030
      3  O          6.1430    3.8030    2.1080 O.2     1  UNL1       -0.2520
      4  O          6.7780    4.6910    0.1400 O.3     1  UNL1       -0.4810
      5  H          6.5560    5.6530    0.3480 H       1  UNL1        0.2960
      6  C          5.3740    1.3690    0.7640 C.3     1  UNL1        0.0470
      7  C          6.2180    0.3420    0.1500 C.2     1  UNL1       -0.0430
      8  C          6.4860    0.3420   -1.2110 C.2     1  UNL1        0.0080
      9  C          6.7400   -0.6770    0.9010 C.2     1  UNL1        0.0540
     10  C          7.2490   -0.6430   -1.7960 C.2     1  UNL1        0.0510
     11  C          7.5090   -1.6760    0.3360 C.2     1  UNL1        0.1660
     12  C          7.7670   -1.6630   -1.0130 C.2     1  UNL1        0.1650
     13  O          8.1280   -2.7830    0.8900 O.2     1  UNL1       -0.4540
     14  O          8.5560   -2.7820   -1.2840 O.2     1  UNL1       -0.4540
     15  C          8.5300   -3.6550   -0.1780 C.3     1  UNL1        0.4680
@<TRIPOS>BOND
     1    10     8    1
     2    10    12    2
     3    14    12    1
     4    14    15    1
     5     8     7    2
     6    12    11    1
     7    15    13    1
     8     1     6    1
     9     1     2    1
    10     4     5    1
    11     4     2    1
    12     7     6    1
    13     7     9    1
    14    11    13    1
    15    11     9    2
    16     2     3    2
