@<TRIPOS>MOLECULE
/home/cewinharhar/GITHUB/reincatalyze/data/processed/docking_pred/2023-May-17-1006_maxeplen10_maxtrainstep1000_seadep16_gamma099_lrac9e-4_lrcr1e-3_sub6/8c75984685002de52dc1feb6518b36ce8b766619_ligand_6.pdbqt
 15 16 0 0 0
SMALL
GASTEIGER

@<TRIPOS>ATOM
      1  C          8.2350   -0.2040   -2.8480 C.3     1  UNL1        0.1270
      2  C          8.4780   -1.6250   -3.0420 C.2     1  UNL1        0.3030
      3  O          9.5650   -2.1910   -2.9160 O.2     1  UNL1       -0.2520
      4  O          7.3800   -2.4230   -3.4030 O.3     1  UNL1       -0.4810
      5  H          7.3000   -2.6530   -4.3810 H       1  UNL1        0.2960
      6  C          8.6860    0.3080   -1.5370 C.3     1  UNL1        0.0470
      7  C          7.7380    0.2450   -0.4220 C.2     1  UNL1       -0.0430
      8  C          7.7680   -0.7920    0.4970 C.2     1  UNL1        0.0080
      9  C          6.7630    1.1960   -0.2780 C.2     1  UNL1        0.0540
     10  C          6.8540   -0.8720    1.5240 C.2     1  UNL1        0.0510
     11  C          5.8360    1.1370    0.7450 C.2     1  UNL1        0.1660
     12  C          5.8790    0.1030    1.6500 C.2     1  UNL1        0.1650
     13  O          4.7830    1.9700    1.0810 O.2     1  UNL1       -0.4540
     14  O          4.8330    0.3120    2.5500 O.2     1  UNL1       -0.4540
     15  C          3.9550    1.2860    2.0330 C.3     1  UNL1        0.4680
@<TRIPOS>BOND
     1     5     4    1
     2     4     2    1
     3     2     3    2
     4     2     1    1
     5     1     6    1
     6     6     7    1
     7     7     9    2
     8     7     8    1
     9     9    11    1
    10     8    10    2
    11    11    13    1
    12    11    12    2
    13    13    15    1
    14    10    12    1
    15    12    14    1
    16    15    14    1
