@<TRIPOS>MOLECULE
/home/cewinharhar/GITHUB/reincatalyze/data/processed/docking_pred/2023-May-17-1006_maxeplen10_maxtrainstep1000_seadep16_gamma099_lrac9e-4_lrcr1e-3_sub6/8c75984685002de52dc1feb6518b36ce8b766619_ligand_6.pdbqt
 15 16 0 0 0
SMALL
GASTEIGER

@<TRIPOS>ATOM
      1  C          5.4130    2.8750    0.1040 C.3     1  UNL1        0.1270
      2  C          6.2400    3.8540    0.7910 C.2     1  UNL1        0.3030
      3  O          6.8790    4.7590    0.2510 O.2     1  UNL1       -0.2520
      4  O          6.3200    3.7630    2.1890 O.3     1  UNL1       -0.4810
      5  H          7.2460    3.6660    2.5770 H       1  UNL1        0.2960
      6  C          5.3450    1.5640    0.7830 C.3     1  UNL1        0.0470
      7  C          6.1270    0.4650    0.2120 C.2     1  UNL1       -0.0430
      8  C          6.5620   -0.5960    0.9910 C.2     1  UNL1        0.0080
      9  C          6.4850    0.4730   -1.1100 C.2     1  UNL1        0.0540
     10  C          7.3270   -1.6120    0.4630 C.2     1  UNL1        0.0510
     11  C          7.2520   -0.5360   -1.6610 C.2     1  UNL1        0.1660
     12  C          7.6760   -1.5810   -0.8770 C.2     1  UNL1        0.1650
     13  O          7.7250   -0.7320   -2.9470 O.2     1  UNL1       -0.4540
     14  O          8.4190   -2.4280   -1.7010 O.2     1  UNL1       -0.4540
     15  C          8.7230   -1.7630   -2.9060 C.3     1  UNL1        0.4680
@<TRIPOS>BOND
     1    13    15    1
     2    13    11    1
     3    15    14    1
     4    14    12    1
     5    11     9    1
     6    11    12    2
     7     9     7    2
     8    12    10    1
     9     1     6    1
    10     1     2    1
    11     7     6    1
    12     7     8    1
    13     3     2    2
    14    10     8    2
    15     2     4    1
    16     4     5    1
