@<TRIPOS>MOLECULE
/home/cewinharhar/GITHUB/reincatalyze/data/processed/docking_pred/2023-May-17-1006_maxeplen10_maxtrainstep1000_seadep16_gamma099_lrac9e-4_lrcr1e-3_sub6/8c75984685002de52dc1feb6518b36ce8b766619_ligand_6.pdbqt
 15 16 0 0 0
SMALL
GASTEIGER

@<TRIPOS>ATOM
      1  C          6.3680    1.3580    0.6180 C.3     1  UNL1        0.1270
      2  C          5.1980    1.2830    1.4780 C.2     1  UNL1        0.3030
      3  O          4.2320    2.0470    1.4430 O.2     1  UNL1       -0.2520
      4  O          5.1640    0.2530    2.4320 O.3     1  UNL1       -0.4810
      5  H          4.5150   -0.4970    2.2530 H       1  UNL1        0.2960
      6  C          6.1470    0.8250   -0.7440 C.3     1  UNL1        0.0470
      7  C          6.9330   -0.3420   -1.1500 C.2     1  UNL1       -0.0430
      8  C          7.2860   -0.5530   -2.4730 C.2     1  UNL1        0.0080
      9  C          7.3100   -1.2860   -0.2310 C.2     1  UNL1        0.0540
     10  C          7.9940   -1.6690   -2.8620 C.2     1  UNL1        0.0510
     11  C          8.0210   -2.4130   -0.5980 C.2     1  UNL1        0.1660
     12  C          8.3650   -2.6080   -1.9140 C.2     1  UNL1        0.1650
     13  O          8.5000   -3.4790    0.1430 O.2     1  UNL1       -0.4540
     14  O          9.0660   -3.8140   -1.9720 O.2     1  UNL1       -0.4540
     15  C          8.8890   -4.5200   -0.7660 C.3     1  UNL1        0.4680
@<TRIPOS>BOND
     1    10     8    1
     2    10    12    2
     3     8     7    2
     4    14    12    1
     5    14    15    1
     6    12    11    1
     7     7     6    1
     8     7     9    1
     9    15    13    1
    10     6     1    1
    11    11     9    2
    12    11    13    1
    13     1     2    1
    14     3     2    2
    15     2     4    1
    16     5     4    1
