@<TRIPOS>MOLECULE
/home/cewinharhar/GITHUB/reincatalyze/data/processed/docking_pred/2023-May-17-1006_maxeplen10_maxtrainstep1000_seadep16_gamma099_lrac9e-4_lrcr1e-3_sub6/8c75984685002de52dc1feb6518b36ce8b766619_ligand_6.pdbqt
 15 16 0 0 0
SMALL
GASTEIGER

@<TRIPOS>ATOM
      1  C          4.6690    1.8460    0.6760 C.3     1  UNL1        0.1270
      2  C          4.3870    1.1570    1.9250 C.2     1  UNL1        0.3030
      3  O          5.1310    0.3460    2.4800 O.2     1  UNL1       -0.2520
      4  O          3.1640    1.4380    2.5550 O.3     1  UNL1       -0.4810
      5  H          2.3990    1.6890    1.9480 H       1  UNL1        0.2960
      6  C          6.0850    2.2370    0.5120 C.3     1  UNL1        0.0470
      7  C          6.9530    1.3350   -0.2490 C.2     1  UNL1       -0.0430
      8  C          8.3120    1.5750   -0.3770 C.2     1  UNL1        0.0080
      9  C          6.4350    0.2430   -0.8920 C.2     1  UNL1        0.0540
     10  C          9.1230    0.7480   -1.1220 C.2     1  UNL1        0.0510
     11  C          7.2300   -0.6010   -1.6450 C.2     1  UNL1        0.1660
     12  C          8.5760   -0.3520   -1.7620 C.2     1  UNL1        0.1650
     13  O          6.9310   -1.7430   -2.3670 O.2     1  UNL1       -0.4540
     14  O          9.1040   -1.3600   -2.5710 O.2     1  UNL1       -0.4540
     15  C          8.0540   -2.0490   -3.2090 C.3     1  UNL1        0.4680
@<TRIPOS>BOND
     1    15    14    1
     2    15    13    1
     3    14    12    1
     4    13    11    1
     5    12    11    2
     6    12    10    1
     7    11     9    1
     8    10     8    2
     9     9     7    2
    10     8     7    1
    11     7     6    1
    12     6     1    1
    13     1     2    1
    14     2     3    2
    15     2     4    1
    16     5     4    1
