MODEL 1
REMARK VINA RESULT:      -7.7      0.000      0.000
REMARK SMILES O=C(O)CCc1ccc2c(c1)OCO2
REMARK SMILES IDX 4 1 2 2 1 3 3 4 5 6 6 7 7 8 11 9 8 10 10 11 9 12 12 13 14 14
REMARK SMILES IDX 13 15
REMARK H PARENT 3 5
REMARK Flexibility Score: inf
ROOT
ATOM      1  C   UNL     1       5.251  -0.092   1.962  1.00  0.00     0.127 C 
ENDROOT
BRANCH   1   2
ATOM      2  C   UNL     1       4.530   1.171   1.927  1.00  0.00     0.303 C 
ATOM      3  O   UNL     1       4.901   2.193   1.347  1.00  0.00    -0.252 OA
BRANCH   2   4
ATOM      4  O   UNL     1       3.306   1.233   2.613  1.00  0.00    -0.481 OA
ATOM      5  H   UNL     1       3.056   0.419   3.152  1.00  0.00     0.296 HD
ENDBRANCH   2   4
ENDBRANCH   1   2
BRANCH   1   6
ATOM      6  C   UNL     1       6.687   0.028   1.634  1.00  0.00     0.047 C 
BRANCH   6   7
ATOM      7  C   UNL     1       7.224  -0.866   0.606  1.00  0.00    -0.043 A 
ATOM      8  C   UNL     1       7.072  -0.591  -0.745  1.00  0.00     0.008 A 
ATOM      9  C   UNL     1       7.864  -2.027   0.951  1.00  0.00     0.054 A 
ATOM     10  C   UNL     1       7.545  -1.449  -1.713  1.00  0.00     0.051 A 
ATOM     11  C   UNL     1       8.347  -2.902  -0.003  1.00  0.00     0.166 A 
ATOM     12  C   UNL     1       8.189  -2.616  -1.338  1.00  0.00     0.165 A 
ATOM     13  O   UNL     1       9.013  -4.110   0.111  1.00  0.00    -0.454 OA
ATOM     14  O   UNL     1       8.770  -3.669  -2.047  1.00  0.00    -0.454 OA
ATOM     15  C   UNL     1       9.006  -4.750  -1.174  1.00  0.00     0.468 C 
ENDBRANCH   6   7
ENDBRANCH   1   6
TORSDOF 4
ENDMDL
MODEL 2
REMARK VINA RESULT:      -7.2      1.018      1.983
REMARK SMILES O=C(O)CCc1ccc2c(c1)OCO2
REMARK SMILES IDX 4 1 2 2 1 3 3 4 5 6 6 7 7 8 11 9 8 10 10 11 9 12 12 13 14 14
REMARK SMILES IDX 13 15
REMARK H PARENT 3 5
REMARK Flexibility Score: inf
ROOT
ATOM      1  C   UNL     1       4.983  -0.022   2.099  1.00  0.00     0.127 C 
ENDROOT
BRANCH   1   2
ATOM      2  C   UNL     1       4.338   1.271   1.928  1.00  0.00     0.303 C 
ATOM      3  O   UNL     1       4.778   2.209   1.261  1.00  0.00    -0.252 OA
BRANCH   2   4
ATOM      4  O   UNL     1       3.109   1.468   2.577  1.00  0.00    -0.481 OA
ATOM      5  H   UNL     1       2.389   1.924   2.038  1.00  0.00     0.296 HD
ENDBRANCH   2   4
ENDBRANCH   1   2
BRANCH   1   6
ATOM      6  C   UNL     1       6.452   0.014   1.934  1.00  0.00     0.047 C 
BRANCH   6   7
ATOM      7  C   UNL     1       7.039  -0.847   0.905  1.00  0.00    -0.043 A 
ATOM      8  C   UNL     1       7.640  -2.055   1.227  1.00  0.00     0.008 A 
ATOM      9  C   UNL     1       7.045  -0.463  -0.410  1.00  0.00     0.054 A 
ATOM     10  C   UNL     1       8.224  -2.848   0.265  1.00  0.00     0.051 A 
ATOM     11  C   UNL     1       7.625  -1.244  -1.392  1.00  0.00     0.166 A 
ATOM     12  C   UNL     1       8.216  -2.438  -1.059  1.00  0.00     0.165 A 
ATOM     13  O   UNL     1       7.747  -1.060  -2.758  1.00  0.00    -0.454 OA
ATOM     14  O   UNL     1       8.706  -2.990  -2.244  1.00  0.00    -0.454 OA
ATOM     15  C   UNL     1       8.702  -2.010  -3.256  1.00  0.00     0.468 C 
ENDBRANCH   6   7
ENDBRANCH   1   6
TORSDOF 4
ENDMDL
MODEL 3
REMARK VINA RESULT:      -6.0      1.361      6.205
REMARK SMILES O=C(O)CCc1ccc2c(c1)OCO2
REMARK SMILES IDX 4 1 2 2 1 3 3 4 5 6 6 7 7 8 11 9 8 10 10 11 9 12 12 13 14 14
REMARK SMILES IDX 13 15
REMARK H PARENT 3 5
REMARK Flexibility Score: inf
ROOT
ATOM      1  C   UNL     1       8.740  -4.125  -0.622  1.00  0.00     0.127 C 
ENDROOT
BRANCH   1   2
ATOM      2  C   UNL     1       9.266  -4.930  -1.712  1.00  0.00     0.303 C 
ATOM      3  O   UNL     1       8.916  -6.079  -1.988  1.00  0.00    -0.252 OA
BRANCH   2   4
ATOM      4  O   UNL     1      10.256  -4.351  -2.522  1.00  0.00    -0.481 OA
ATOM      5  H   UNL     1      10.090  -4.379  -3.516  1.00  0.00     0.296 HD
ENDBRANCH   2   4
ENDBRANCH   1   2
BRANCH   1   6
ATOM      6  C   UNL     1       8.316  -2.767  -1.028  1.00  0.00     0.047 C 
BRANCH   6   7
ATOM      7  C   UNL     1       7.570  -1.970  -0.052  1.00  0.00    -0.043 A 
ATOM      8  C   UNL     1       7.533  -2.317   1.290  1.00  0.00     0.008 A 
ATOM      9  C   UNL     1       6.851  -0.874  -0.447  1.00  0.00     0.054 A 
ATOM     10  C   UNL     1       6.802  -1.589   2.203  1.00  0.00     0.051 A 
ATOM     11  C   UNL     1       6.111  -0.128   0.452  1.00  0.00     0.166 A 
ATOM     12  C   UNL     1       6.084  -0.483   1.779  1.00  0.00     0.165 A 
ATOM     13  O   UNL     1       5.323   0.997   0.283  1.00  0.00    -0.454 OA
ATOM     14  O   UNL     1       5.265   0.444   2.427  1.00  0.00    -0.454 OA
ATOM     15  C   UNL     1       4.537   1.178   1.470  1.00  0.00     0.468 C 
ENDBRANCH   6   7
ENDBRANCH   1   6
TORSDOF 4
ENDMDL
MODEL 4
REMARK VINA RESULT:      -6.0      1.991      5.392
REMARK SMILES O=C(O)CCc1ccc2c(c1)OCO2
REMARK SMILES IDX 4 1 2 2 1 3 3 4 5 6 6 7 7 8 11 9 8 10 10 11 9 12 12 13 14 14
REMARK SMILES IDX 13 15
REMARK H PARENT 3 5
REMARK Flexibility Score: inf
ROOT
ATOM      1  C   UNL     1       8.169  -1.469  -2.621  1.00  0.00     0.127 C 
ENDROOT
BRANCH   1   2
ATOM      2  C   UNL     1       8.722  -0.132  -2.471  1.00  0.00     0.303 C 
ATOM      3  O   UNL     1       8.243   0.900  -2.944  1.00  0.00    -0.252 OA
BRANCH   2   4
ATOM      4  O   UNL     1       9.903  -0.004  -1.722  1.00  0.00    -0.481 OA
ATOM      5  H   UNL     1       9.831  -0.216  -0.738  1.00  0.00     0.296 HD
ENDBRANCH   2   4
ENDBRANCH   1   2
BRANCH   1   6
ATOM      6  C   UNL     1       8.076  -2.227  -1.355  1.00  0.00     0.047 C 
BRANCH   6   7
ATOM      7  C   UNL     1       7.349  -1.604  -0.246  1.00  0.00    -0.043 A 
ATOM      8  C   UNL     1       7.371  -2.147   1.030  1.00  0.00     0.008 A 
ATOM      9  C   UNL     1       6.591  -0.482  -0.448  1.00  0.00     0.054 A 
ATOM     10  C   UNL     1       6.660  -1.583   2.065  1.00  0.00     0.051 A 
ATOM     11  C   UNL     1       5.869   0.101   0.576  1.00  0.00     0.166 A 
ATOM     12  C   UNL     1       5.901  -0.447   1.836  1.00  0.00     0.165 A 
ATOM     13  O   UNL     1       5.050   1.216   0.604  1.00  0.00    -0.454 OA
ATOM     14  O   UNL     1       5.087   0.350   2.643  1.00  0.00    -0.454 OA
ATOM     15  C   UNL     1       4.306   1.197   1.832  1.00  0.00     0.468 C 
ENDBRANCH   6   7
ENDBRANCH   1   6
TORSDOF 4
ENDMDL
