@<TRIPOS>MOLECULE
/home/cewinharhar/GITHUB/reincatalyze/data/processed/docking_pred/2023-May-17-1006_maxeplen10_maxtrainstep1000_seadep16_gamma099_lrac9e-4_lrcr1e-3_sub6/8f258178c278a1f8efc989ef7d8625b520fa90c8_ligand_6.pdbqt
 15 16 0 0 0
SMALL
GASTEIGER

@<TRIPOS>ATOM
      1  C          4.9830   -0.0220    2.0990 C.3     1  UNL1        0.1270
      2  C          4.3380    1.2710    1.9280 C.2     1  UNL1        0.3030
      3  O          4.7780    2.2090    1.2610 O.2     1  UNL1       -0.2520
      4  O          3.1090    1.4680    2.5770 O.3     1  UNL1       -0.4810
      5  H          2.3890    1.9240    2.0380 H       1  UNL1        0.2960
      6  C          6.4520    0.0140    1.9340 C.3     1  UNL1        0.0470
      7  C          7.0390   -0.8470    0.9050 C.2     1  UNL1       -0.0430
      8  C          7.6400   -2.0550    1.2270 C.2     1  UNL1        0.0080
      9  C          7.0450   -0.4630   -0.4100 C.2     1  UNL1        0.0540
     10  C          8.2240   -2.8480    0.2650 C.2     1  UNL1        0.0510
     11  C          7.6250   -1.2440   -1.3920 C.2     1  UNL1        0.1660
     12  C          8.2160   -2.4380   -1.0590 C.2     1  UNL1        0.1650
     13  O          7.7470   -1.0600   -2.7580 O.2     1  UNL1       -0.4540
     14  O          8.7060   -2.9900   -2.2440 O.2     1  UNL1       -0.4540
     15  C          8.7020   -2.0100   -3.2560 C.3     1  UNL1        0.4680
@<TRIPOS>BOND
     1    15    13    1
     2    15    14    1
     3    13    11    1
     4    14    12    1
     5    11    12    2
     6    11     9    1
     7    12    10    1
     8     9     7    2
     9    10     8    2
    10     7     8    1
    11     7     6    1
    12     3     2    2
    13     2     1    1
    14     2     4    1
    15     6     1    1
    16     5     4    1
