@<TRIPOS>MOLECULE
/home/cewinharhar/GITHUB/reincatalyze/data/processed/docking_pred/2023-May-17-1006_maxeplen10_maxtrainstep1000_seadep16_gamma099_lrac9e-4_lrcr1e-3_sub6/8f258178c278a1f8efc989ef7d8625b520fa90c8_ligand_6.pdbqt
 15 16 0 0 0
SMALL
GASTEIGER

@<TRIPOS>ATOM
      1  C          8.1690   -1.4690   -2.6210 C.3     1  UNL1        0.1270
      2  C          8.7220   -0.1320   -2.4710 C.2     1  UNL1        0.3030
      3  O          8.2430    0.9000   -2.9440 O.2     1  UNL1       -0.2520
      4  O          9.9030   -0.0040   -1.7220 O.3     1  UNL1       -0.4810
      5  H          9.8310   -0.2160   -0.7380 H       1  UNL1        0.2960
      6  C          8.0760   -2.2270   -1.3550 C.3     1  UNL1        0.0470
      7  C          7.3490   -1.6040   -0.2460 C.2     1  UNL1       -0.0430
      8  C          7.3710   -2.1470    1.0300 C.2     1  UNL1        0.0080
      9  C          6.5910   -0.4820   -0.4480 C.2     1  UNL1        0.0540
     10  C          6.6600   -1.5830    2.0650 C.2     1  UNL1        0.0510
     11  C          5.8690    0.1010    0.5760 C.2     1  UNL1        0.1660
     12  C          5.9010   -0.4470    1.8360 C.2     1  UNL1        0.1650
     13  O          5.0500    1.2160    0.6040 O.2     1  UNL1       -0.4540
     14  O          5.0870    0.3500    2.6430 O.2     1  UNL1       -0.4540
     15  C          4.3060    1.1970    1.8320 C.3     1  UNL1        0.4680
@<TRIPOS>BOND
     1     3     2    2
     2     1     2    1
     3     1     6    1
     4     2     4    1
     5     4     5    1
     6     6     7    1
     7     9     7    2
     8     9    11    1
     9     7     8    1
    10    11    13    1
    11    11    12    2
    12    13    15    1
    13     8    10    2
    14    15    14    1
    15    12    10    1
    16    12    14    1
