@<TRIPOS>MOLECULE
/home/cewinharhar/GITHUB/reincatalyze/data/processed/docking_pred/2023-May-17-1006_maxeplen10_maxtrainstep1000_seadep16_gamma099_lrac9e-4_lrcr1e-3_sub6/8f258178c278a1f8efc989ef7d8625b520fa90c8_ligand_6.pdbqt
 15 16 0 0 0
SMALL
GASTEIGER

@<TRIPOS>ATOM
      1  C          8.7400   -4.1250   -0.6220 C.3     1  UNL1        0.1270
      2  C          9.2660   -4.9300   -1.7120 C.2     1  UNL1        0.3030
      3  O          8.9160   -6.0790   -1.9880 O.2     1  UNL1       -0.2520
      4  O         10.2560   -4.3510   -2.5220 O.3     1  UNL1       -0.4810
      5  H         10.0900   -4.3790   -3.5160 H       1  UNL1        0.2960
      6  C          8.3160   -2.7670   -1.0280 C.3     1  UNL1        0.0470
      7  C          7.5700   -1.9700   -0.0520 C.2     1  UNL1       -0.0430
      8  C          7.5330   -2.3170    1.2900 C.2     1  UNL1        0.0080
      9  C          6.8510   -0.8740   -0.4470 C.2     1  UNL1        0.0540
     10  C          6.8020   -1.5890    2.2030 C.2     1  UNL1        0.0510
     11  C          6.1110   -0.1280    0.4520 C.2     1  UNL1        0.1660
     12  C          6.0840   -0.4830    1.7790 C.2     1  UNL1        0.1650
     13  O          5.3230    0.9970    0.2830 O.2     1  UNL1       -0.4540
     14  O          5.2650    0.4440    2.4270 O.2     1  UNL1       -0.4540
     15  C          4.5370    1.1780    1.4700 C.3     1  UNL1        0.4680
@<TRIPOS>BOND
     1     5     4    1
     2     4     2    1
     3     3     2    2
     4     2     1    1
     5     6     1    1
     6     6     7    1
     7     9     7    2
     8     9    11    1
     9     7     8    1
    10    13    11    1
    11    13    15    1
    12    11    12    2
    13     8    10    2
    14    15    14    1
    15    12    10    1
    16    12    14    1
