@<TRIPOS>MOLECULE
/home/cewinharhar/GITHUB/reincatalyze/data/processed/docking_pred/2023-May-17-1006_maxeplen10_maxtrainstep1000_seadep16_gamma099_lrac9e-4_lrcr1e-3_sub6/8f258178c278a1f8efc989ef7d8625b520fa90c8_ligand_6.pdbqt
 15 16 0 0 0
SMALL
GASTEIGER

@<TRIPOS>ATOM
      1  C          5.4050    2.8220    0.0730 C.3     1  UNL1        0.1270
      2  C          6.1190    3.8210    0.8530 C.2     1  UNL1        0.3030
      3  O          6.1230    3.9020    2.0820 O.2     1  UNL1       -0.2520
      4  O          6.8680    4.7750    0.1470 O.3     1  UNL1       -0.4810
      5  H          6.6820    4.8450   -0.8420 H       1  UNL1        0.2960
      6  C          5.3750    1.4820    0.6970 C.3     1  UNL1        0.0470
      7  C          6.2150    0.4400    0.1030 C.2     1  UNL1       -0.0430
      8  C          6.5070    0.4290   -1.2520 C.2     1  UNL1        0.0080
      9  C          6.7070   -0.5840    0.8680 C.2     1  UNL1        0.0540
     10  C          7.2670   -0.5700   -1.8190 C.2     1  UNL1        0.0510
     11  C          7.4720   -1.5970    0.3220 C.2     1  UNL1        0.1660
     12  C          7.7550   -1.5940   -1.0220 C.2     1  UNL1        0.1650
     13  O          8.0640   -2.7100    0.8920 O.2     1  UNL1       -0.4540
     14  O          8.5330   -2.7250   -1.2730 O.2     1  UNL1       -0.4540
     15  C          8.4730   -3.5920   -0.1640 C.3     1  UNL1        0.4680
@<TRIPOS>BOND
     1    10     8    1
     2    10    12    2
     3    14    12    1
     4    14    15    1
     5     8     7    2
     6    12    11    1
     7     5     4    1
     8    15    13    1
     9     1     6    1
    10     1     2    1
    11     7     6    1
    12     7     9    1
    13     4     2    1
    14    11     9    2
    15    11    13    1
    16     2     3    2
