@<TRIPOS>MOLECULE
/home/cewinharhar/GITHUB/reincatalyze/data/processed/docking_pred/2023-May-17-1006_maxeplen10_maxtrainstep1000_seadep16_gamma099_lrac9e-4_lrcr1e-3_sub6/8f258178c278a1f8efc989ef7d8625b520fa90c8_ligand_6.pdbqt
 15 16 0 0 0
SMALL
GASTEIGER

@<TRIPOS>ATOM
      1  C          5.2510   -0.0920    1.9620 C.3     1  UNL1        0.1270
      2  C          4.5300    1.1710    1.9270 C.2     1  UNL1        0.3030
      3  O          4.9010    2.1930    1.3470 O.2     1  UNL1       -0.2520
      4  O          3.3060    1.2330    2.6130 O.3     1  UNL1       -0.4810
      5  H          3.0560    0.4190    3.1520 H       1  UNL1        0.2960
      6  C          6.6870    0.0280    1.6340 C.3     1  UNL1        0.0470
      7  C          7.2240   -0.8660    0.6060 C.2     1  UNL1       -0.0430
      8  C          7.0720   -0.5910   -0.7450 C.2     1  UNL1        0.0080
      9  C          7.8640   -2.0270    0.9510 C.2     1  UNL1        0.0540
     10  C          7.5450   -1.4490   -1.7130 C.2     1  UNL1        0.0510
     11  C          8.3470   -2.9020   -0.0030 C.2     1  UNL1        0.1660
     12  C          8.1890   -2.6160   -1.3380 C.2     1  UNL1        0.1650
     13  O          9.0130   -4.1100    0.1110 O.2     1  UNL1       -0.4540
     14  O          8.7700   -3.6690   -2.0470 O.2     1  UNL1       -0.4540
     15  C          9.0060   -4.7500   -1.1740 C.3     1  UNL1        0.4680
@<TRIPOS>BOND
     1    14    12    1
     2    14    15    1
     3    10    12    2
     4    10     8    1
     5    12    11    1
     6    15    13    1
     7     8     7    2
     8    11    13    1
     9    11     9    2
    10     7     9    1
    11     7     6    1
    12     3     2    2
    13     6     1    1
    14     2     1    1
    15     2     4    1
    16     4     5    1
