@<TRIPOS>MOLECULE
/home/cewinharhar/GITHUB/reincatalyze/data/processed/docking_pred/2023-May-17-1006_maxeplen10_maxtrainstep1000_seadep16_gamma099_lrac9e-4_lrcr1e-3_sub6/8f3f3cc121b2e0b9b67c9595347d7d2b0dd21437_ligand_6.pdbqt
 15 16 0 0 0
SMALL
GASTEIGER

@<TRIPOS>ATOM
      1  C          6.4110    1.2850    0.6870 C.3     1  UNL1        0.1270
      2  C          5.1740    1.3360    1.4500 C.2     1  UNL1        0.3030
      3  O          4.2720    2.1620    1.3000 O.2     1  UNL1       -0.2520
      4  O          4.9890    0.3610    2.4430 O.3     1  UNL1       -0.4810
      5  H          4.0370    0.1860    2.7230 H       1  UNL1        0.2960
      6  C          6.2360    0.8360   -0.7110 C.3     1  UNL1        0.0470
      7  C          6.9840   -0.3490   -1.1400 C.2     1  UNL1       -0.0430
      8  C          7.2570   -0.5880   -2.4780 C.2     1  UNL1        0.0080
      9  C          7.4030   -1.2800   -0.2280 C.2     1  UNL1        0.0540
     10  C          7.9280   -1.7190   -2.8860 C.2     1  UNL1        0.0510
     11  C          8.0780   -2.4230   -0.6140 C.2     1  UNL1        0.1660
     12  C          8.3430   -2.6460   -1.9430 C.2     1  UNL1        0.1650
     13  O          8.5880   -3.4810    0.1190 O.2     1  UNL1       -0.4540
     14  O          9.0260   -3.8610   -2.0200 O.2     1  UNL1       -0.4540
     15  C          8.9120   -4.5430   -0.7920 C.3     1  UNL1        0.4680
@<TRIPOS>BOND
     1    10     8    1
     2    10    12    2
     3     8     7    2
     4    14    12    1
     5    14    15    1
     6    12    11    1
     7     7     6    1
     8     7     9    1
     9    15    13    1
    10     6     1    1
    11    11     9    2
    12    11    13    1
    13     1     2    1
    14     3     2    2
    15     2     4    1
    16     4     5    1
