MODEL 1
REMARK VINA RESULT:      -7.6      0.000      0.000
REMARK SMILES O=C(O)CCc1ccc2c(c1)OCO2
REMARK SMILES IDX 4 1 2 2 1 3 3 4 5 6 6 7 7 8 11 9 8 10 10 11 9 12 12 13 14 14
REMARK SMILES IDX 13 15
REMARK H PARENT 3 5
REMARK Flexibility Score: inf
ROOT
ATOM      1  C   UNL     1       5.445   2.843   0.195  1.00  0.00     0.127 C 
ENDROOT
BRANCH   1   2
ATOM      2  C   UNL     1       6.213   3.800   0.975  1.00  0.00     0.303 C 
ATOM      3  O   UNL     1       6.283   3.831   2.205  1.00  0.00    -0.252 OA
BRANCH   2   4
ATOM      4  O   UNL     1       6.936   4.775   0.269  1.00  0.00    -0.481 OA
ATOM      5  H   UNL     1       7.411   4.461  -0.563  1.00  0.00     0.296 HD
ENDBRANCH   2   4
ENDBRANCH   1   2
BRANCH   1   6
ATOM      6  C   UNL     1       5.320   1.514   0.830  1.00  0.00     0.047 C 
BRANCH   6   7
ATOM      7  C   UNL     1       6.102   0.414   0.260  1.00  0.00    -0.043 A 
ATOM      8  C   UNL     1       6.554  -0.636   1.043  1.00  0.00     0.008 A 
ATOM      9  C   UNL     1       6.445   0.413  -1.066  1.00  0.00     0.054 A 
ATOM     10  C   UNL     1       7.320  -1.652   0.516  1.00  0.00     0.051 A 
ATOM     11  C   UNL     1       7.212  -0.596  -1.618  1.00  0.00     0.166 A 
ATOM     12  C   UNL     1       7.652  -1.631  -0.829  1.00  0.00     0.165 A 
ATOM     13  O   UNL     1       7.671  -0.801  -2.907  1.00  0.00    -0.454 OA
ATOM     14  O   UNL     1       8.391  -2.480  -1.654  1.00  0.00    -0.454 OA
ATOM     15  C   UNL     1       8.676  -1.825  -2.869  1.00  0.00     0.468 C 
ENDBRANCH   6   7
ENDBRANCH   1   6
TORSDOF 4
ENDMDL
MODEL 2
REMARK VINA RESULT:      -7.6      2.140      2.534
REMARK SMILES O=C(O)CCc1ccc2c(c1)OCO2
REMARK SMILES IDX 4 1 2 2 1 3 3 4 5 6 6 7 7 8 11 9 8 10 10 11 9 12 12 13 14 14
REMARK SMILES IDX 13 15
REMARK H PARENT 3 5
REMARK Flexibility Score: inf
ROOT
ATOM      1  C   UNL     1       4.698   1.878   0.678  1.00  0.00     0.127 C 
ENDROOT
BRANCH   1   2
ATOM      2  C   UNL     1       4.387   1.175   1.913  1.00  0.00     0.303 C 
ATOM      3  O   UNL     1       5.111   0.347   2.468  1.00  0.00    -0.252 OA
BRANCH   2   4
ATOM      4  O   UNL     1       3.159   1.465   2.527  1.00  0.00    -0.481 OA
ATOM      5  H   UNL     1       2.541   2.079   2.019  1.00  0.00     0.296 HD
ENDBRANCH   2   4
ENDBRANCH   1   2
BRANCH   1   6
ATOM      6  C   UNL     1       6.124   2.243   0.537  1.00  0.00     0.047 C 
BRANCH   6   7
ATOM      7  C   UNL     1       6.982   1.340  -0.232  1.00  0.00    -0.043 A 
ATOM      8  C   UNL     1       8.344   1.568  -0.361  1.00  0.00     0.008 A 
ATOM      9  C   UNL     1       6.453   0.257  -0.884  1.00  0.00     0.054 A 
ATOM     10  C   UNL     1       9.145   0.739  -1.114  1.00  0.00     0.051 A 
ATOM     11  C   UNL     1       7.238  -0.588  -1.645  1.00  0.00     0.166 A 
ATOM     12  C   UNL     1       8.587  -0.350  -1.763  1.00  0.00     0.165 A 
ATOM     13  O   UNL     1       6.927  -1.721  -2.376  1.00  0.00    -0.454 OA
ATOM     14  O   UNL     1       9.103  -1.356  -2.581  1.00  0.00    -0.454 OA
ATOM     15  C   UNL     1       8.045  -2.030  -3.222  1.00  0.00     0.468 C 
ENDBRANCH   6   7
ENDBRANCH   1   6
TORSDOF 4
ENDMDL
MODEL 3
REMARK VINA RESULT:      -7.5      1.961      2.954
REMARK SMILES O=C(O)CCc1ccc2c(c1)OCO2
REMARK SMILES IDX 4 1 2 2 1 3 3 4 5 6 6 7 7 8 11 9 8 10 10 11 9 12 12 13 14 14
REMARK SMILES IDX 13 15
REMARK H PARENT 3 5
REMARK Flexibility Score: inf
ROOT
ATOM      1  C   UNL     1       6.411   1.285   0.687  1.00  0.00     0.127 C 
ENDROOT
BRANCH   1   2
ATOM      2  C   UNL     1       5.174   1.336   1.450  1.00  0.00     0.303 C 
ATOM      3  O   UNL     1       4.272   2.162   1.300  1.00  0.00    -0.252 OA
BRANCH   2   4
ATOM      4  O   UNL     1       4.989   0.361   2.443  1.00  0.00    -0.481 OA
ATOM      5  H   UNL     1       4.037   0.186   2.723  1.00  0.00     0.296 HD
ENDBRANCH   2   4
ENDBRANCH   1   2
BRANCH   1   6
ATOM      6  C   UNL     1       6.236   0.836  -0.711  1.00  0.00     0.047 C 
BRANCH   6   7
ATOM      7  C   UNL     1       6.984  -0.349  -1.140  1.00  0.00    -0.043 A 
ATOM      8  C   UNL     1       7.257  -0.588  -2.478  1.00  0.00     0.008 A 
ATOM      9  C   UNL     1       7.403  -1.280  -0.228  1.00  0.00     0.054 A 
ATOM     10  C   UNL     1       7.928  -1.719  -2.886  1.00  0.00     0.051 A 
ATOM     11  C   UNL     1       8.078  -2.423  -0.614  1.00  0.00     0.166 A 
ATOM     12  C   UNL     1       8.343  -2.646  -1.943  1.00  0.00     0.165 A 
ATOM     13  O   UNL     1       8.588  -3.481   0.119  1.00  0.00    -0.454 OA
ATOM     14  O   UNL     1       9.026  -3.861  -2.020  1.00  0.00    -0.454 OA
ATOM     15  C   UNL     1       8.912  -4.543  -0.792  1.00  0.00     0.468 C 
ENDBRANCH   6   7
ENDBRANCH   1   6
TORSDOF 4
ENDMDL
MODEL 4
REMARK VINA RESULT:      -7.5      0.935      2.103
REMARK SMILES O=C(O)CCc1ccc2c(c1)OCO2
REMARK SMILES IDX 4 1 2 2 1 3 3 4 5 6 6 7 7 8 11 9 8 10 10 11 9 12 12 13 14 14
REMARK SMILES IDX 13 15
REMARK H PARENT 3 5
REMARK Flexibility Score: inf
ROOT
ATOM      1  C   UNL     1       5.395   2.812   0.158  1.00  0.00     0.127 C 
ENDROOT
BRANCH   1   2
ATOM      2  C   UNL     1       6.217   3.830   0.793  1.00  0.00     0.303 C 
ATOM      3  O   UNL     1       6.914   4.659   0.204  1.00  0.00    -0.252 OA
BRANCH   2   4
ATOM      4  O   UNL     1       6.219   3.875   2.196  1.00  0.00    -0.481 OA
ATOM      5  H   UNL     1       6.394   3.001   2.669  1.00  0.00     0.296 HD
ENDBRANCH   2   4
ENDBRANCH   1   2
BRANCH   1   6
ATOM      6  C   UNL     1       5.446   1.495   0.829  1.00  0.00     0.047 C 
BRANCH   6   7
ATOM      7  C   UNL     1       6.248   0.444   0.198  1.00  0.00    -0.043 A 
ATOM      8  C   UNL     1       6.453   0.413  -1.173  1.00  0.00     0.008 A 
ATOM      9  C   UNL     1       6.791  -0.566   0.947  1.00  0.00     0.054 A 
ATOM     10  C   UNL     1       7.176  -0.595  -1.771  1.00  0.00     0.051 A 
ATOM     11  C   UNL     1       7.522  -1.587   0.368  1.00  0.00     0.166 A 
ATOM     12  C   UNL     1       7.717  -1.605  -0.992  1.00  0.00     0.165 A 
ATOM     13  O   UNL     1       8.152  -2.690   0.916  1.00  0.00    -0.454 OA
ATOM     14  O   UNL     1       8.479  -2.739  -1.274  1.00  0.00    -0.454 OA
ATOM     15  C   UNL     1       8.494  -3.589  -0.150  1.00  0.00     0.468 C 
ENDBRANCH   6   7
ENDBRANCH   1   6
TORSDOF 4
ENDMDL
MODEL 5
REMARK VINA RESULT:      -7.5      1.794      5.311
REMARK SMILES O=C(O)CCc1ccc2c(c1)OCO2
REMARK SMILES IDX 4 1 2 2 1 3 3 4 5 6 6 7 7 8 11 9 8 10 10 11 9 12 12 13 14 14
REMARK SMILES IDX 13 15
REMARK H PARENT 3 5
REMARK Flexibility Score: inf
ROOT
ATOM      1  C   UNL     1       8.304  -0.325  -2.856  1.00  0.00     0.127 C 
ENDROOT
BRANCH   1   2
ATOM      2  C   UNL     1       8.470  -1.755  -3.066  1.00  0.00     0.303 C 
ATOM      3  O   UNL     1       9.539  -2.366  -3.023  1.00  0.00    -0.252 OA
BRANCH   2   4
ATOM      4  O   UNL     1       7.316  -2.504  -3.340  1.00  0.00    -0.481 OA
ATOM      5  H   UNL     1       6.973  -3.086  -2.591  1.00  0.00     0.296 HD
ENDBRANCH   2   4
ENDBRANCH   1   2
BRANCH   1   6
ATOM      6  C   UNL     1       8.757   0.144  -1.529  1.00  0.00     0.047 C 
BRANCH   6   7
ATOM      7  C   UNL     1       7.790   0.104  -0.430  1.00  0.00    -0.043 A 
ATOM      8  C   UNL     1       7.745  -0.960   0.458  1.00  0.00     0.008 A 
ATOM      9  C   UNL     1       6.870   1.106  -0.271  1.00  0.00     0.054 A 
ATOM     10  C   UNL     1       6.813  -1.016   1.470  1.00  0.00     0.051 A 
ATOM     11  C   UNL     1       5.925   1.071   0.738  1.00  0.00     0.166 A 
ATOM     12  C   UNL     1       5.893   0.011   1.611  1.00  0.00     0.165 A 
ATOM     13  O   UNL     1       4.918   1.955   1.084  1.00  0.00    -0.454 OA
ATOM     14  O   UNL     1       4.848   0.255   2.503  1.00  0.00    -0.454 OA
ATOM     15  C   UNL     1       4.036   1.293   2.004  1.00  0.00     0.468 C 
ENDBRANCH   6   7
ENDBRANCH   1   6
TORSDOF 4
ENDMDL
