@<TRIPOS>MOLECULE
/home/cewinharhar/GITHUB/reincatalyze/data/processed/docking_pred/2023-May-17-1006_maxeplen10_maxtrainstep1000_seadep16_gamma099_lrac9e-4_lrcr1e-3_sub6/8f3f3cc121b2e0b9b67c9595347d7d2b0dd21437_ligand_6.pdbqt
 15 16 0 0 0
SMALL
GASTEIGER

@<TRIPOS>ATOM
      1  C          5.3950    2.8120    0.1580 C.3     1  UNL1        0.1270
      2  C          6.2170    3.8300    0.7930 C.2     1  UNL1        0.3030
      3  O          6.9140    4.6590    0.2040 O.2     1  UNL1       -0.2520
      4  O          6.2190    3.8750    2.1960 O.3     1  UNL1       -0.4810
      5  H          6.3940    3.0010    2.6690 H       1  UNL1        0.2960
      6  C          5.4460    1.4950    0.8290 C.3     1  UNL1        0.0470
      7  C          6.2480    0.4440    0.1980 C.2     1  UNL1       -0.0430
      8  C          6.4530    0.4130   -1.1730 C.2     1  UNL1        0.0080
      9  C          6.7910   -0.5660    0.9470 C.2     1  UNL1        0.0540
     10  C          7.1760   -0.5950   -1.7710 C.2     1  UNL1        0.0510
     11  C          7.5220   -1.5870    0.3680 C.2     1  UNL1        0.1660
     12  C          7.7170   -1.6050   -0.9920 C.2     1  UNL1        0.1650
     13  O          8.1520   -2.6900    0.9160 O.2     1  UNL1       -0.4540
     14  O          8.4790   -2.7390   -1.2740 O.2     1  UNL1       -0.4540
     15  C          8.4940   -3.5890   -0.1500 C.3     1  UNL1        0.4680
@<TRIPOS>BOND
     1    10     8    1
     2    10    12    2
     3    14    12    1
     4    14    15    1
     5     8     7    2
     6    12    11    1
     7    15    13    1
     8     1     2    1
     9     1     6    1
    10     7     6    1
    11     7     9    1
    12     3     2    2
    13    11    13    1
    14    11     9    2
    15     2     4    1
    16     4     5    1
