@<TRIPOS>MOLECULE
/home/cewinharhar/GITHUB/reincatalyze/data/processed/docking_pred/2023-May-17-1006_maxeplen10_maxtrainstep1000_seadep16_gamma099_lrac9e-4_lrcr1e-3_sub6/8f3f3cc121b2e0b9b67c9595347d7d2b0dd21437_ligand_6.pdbqt
 15 16 0 0 0
SMALL
GASTEIGER

@<TRIPOS>ATOM
      1  C          5.4450    2.8430    0.1950 C.3     1  UNL1        0.1270
      2  C          6.2130    3.8000    0.9750 C.2     1  UNL1        0.3030
      3  O          6.2830    3.8310    2.2050 O.2     1  UNL1       -0.2520
      4  O          6.9360    4.7750    0.2690 O.3     1  UNL1       -0.4810
      5  H          7.4110    4.4610   -0.5630 H       1  UNL1        0.2960
      6  C          5.3200    1.5140    0.8300 C.3     1  UNL1        0.0470
      7  C          6.1020    0.4140    0.2600 C.2     1  UNL1       -0.0430
      8  C          6.5540   -0.6360    1.0430 C.2     1  UNL1        0.0080
      9  C          6.4450    0.4130   -1.0660 C.2     1  UNL1        0.0540
     10  C          7.3200   -1.6520    0.5160 C.2     1  UNL1        0.0510
     11  C          7.2120   -0.5960   -1.6180 C.2     1  UNL1        0.1660
     12  C          7.6520   -1.6310   -0.8290 C.2     1  UNL1        0.1650
     13  O          7.6710   -0.8010   -2.9070 O.2     1  UNL1       -0.4540
     14  O          8.3910   -2.4800   -1.6540 O.2     1  UNL1       -0.4540
     15  C          8.6760   -1.8250   -2.8690 C.3     1  UNL1        0.4680
@<TRIPOS>BOND
     1    13    15    1
     2    13    11    1
     3    15    14    1
     4    14    12    1
     5    11     9    1
     6    11    12    2
     7     9     7    2
     8    12    10    1
     9     5     4    1
    10     1     6    1
    11     1     2    1
    12     7     6    1
    13     7     8    1
    14     4     2    1
    15    10     8    2
    16     2     3    2
