@<TRIPOS>MOLECULE
/home/cewinharhar/GITHUB/reincatalyze/data/processed/docking_pred/2023-May-17-1006_maxeplen10_maxtrainstep1000_seadep16_gamma099_lrac9e-4_lrcr1e-3_sub6/8f3f3cc121b2e0b9b67c9595347d7d2b0dd21437_ligand_6.pdbqt
 15 16 0 0 0
SMALL
GASTEIGER

@<TRIPOS>ATOM
      1  C          4.6980    1.8780    0.6780 C.3     1  UNL1        0.1270
      2  C          4.3870    1.1750    1.9130 C.2     1  UNL1        0.3030
      3  O          5.1110    0.3470    2.4680 O.2     1  UNL1       -0.2520
      4  O          3.1590    1.4650    2.5270 O.3     1  UNL1       -0.4810
      5  H          2.5410    2.0790    2.0190 H       1  UNL1        0.2960
      6  C          6.1240    2.2430    0.5370 C.3     1  UNL1        0.0470
      7  C          6.9820    1.3400   -0.2320 C.2     1  UNL1       -0.0430
      8  C          8.3440    1.5680   -0.3610 C.2     1  UNL1        0.0080
      9  C          6.4530    0.2570   -0.8840 C.2     1  UNL1        0.0540
     10  C          9.1450    0.7390   -1.1140 C.2     1  UNL1        0.0510
     11  C          7.2380   -0.5880   -1.6450 C.2     1  UNL1        0.1660
     12  C          8.5870   -0.3500   -1.7630 C.2     1  UNL1        0.1650
     13  O          6.9270   -1.7210   -2.3760 O.2     1  UNL1       -0.4540
     14  O          9.1030   -1.3560   -2.5810 O.2     1  UNL1       -0.4540
     15  C          8.0450   -2.0300   -3.2220 C.3     1  UNL1        0.4680
@<TRIPOS>BOND
     1    15    14    1
     2    15    13    1
     3    14    12    1
     4    13    11    1
     5    12    11    2
     6    12    10    1
     7    11     9    1
     8    10     8    2
     9     9     7    2
    10     8     7    1
    11     7     6    1
    12     6     1    1
    13     1     2    1
    14     2     3    2
    15     2     4    1
    16     5     4    1
