@<TRIPOS>MOLECULE
/home/cewinharhar/GITHUB/reincatalyze/data/processed/docking_pred/2023-May-17-1006_maxeplen10_maxtrainstep1000_seadep16_gamma099_lrac9e-4_lrcr1e-3_sub6/8f3f3cc121b2e0b9b67c9595347d7d2b0dd21437_ligand_6.pdbqt
 15 16 0 0 0
SMALL
GASTEIGER

@<TRIPOS>ATOM
      1  C          8.3040   -0.3250   -2.8560 C.3     1  UNL1        0.1270
      2  C          8.4700   -1.7550   -3.0660 C.2     1  UNL1        0.3030
      3  O          9.5390   -2.3660   -3.0230 O.2     1  UNL1       -0.2520
      4  O          7.3160   -2.5040   -3.3400 O.3     1  UNL1       -0.4810
      5  H          6.9730   -3.0860   -2.5910 H       1  UNL1        0.2960
      6  C          8.7570    0.1440   -1.5290 C.3     1  UNL1        0.0470
      7  C          7.7900    0.1040   -0.4300 C.2     1  UNL1       -0.0430
      8  C          7.7450   -0.9600    0.4580 C.2     1  UNL1        0.0080
      9  C          6.8700    1.1060   -0.2710 C.2     1  UNL1        0.0540
     10  C          6.8130   -1.0160    1.4700 C.2     1  UNL1        0.0510
     11  C          5.9250    1.0710    0.7380 C.2     1  UNL1        0.1660
     12  C          5.8930    0.0110    1.6110 C.2     1  UNL1        0.1650
     13  O          4.9180    1.9550    1.0840 O.2     1  UNL1       -0.4540
     14  O          4.8480    0.2550    2.5030 O.2     1  UNL1       -0.4540
     15  C          4.0360    1.2930    2.0040 C.3     1  UNL1        0.4680
@<TRIPOS>BOND
     1     4     2    1
     2     4     5    1
     3     2     3    2
     4     2     1    1
     5     1     6    1
     6     6     7    1
     7     7     9    2
     8     7     8    1
     9     9    11    1
    10     8    10    2
    11    11    13    1
    12    11    12    2
    13    13    15    1
    14    10    12    1
    15    12    14    1
    16    15    14    1
