@<TRIPOS>MOLECULE
/home/cewinharhar/GITHUB/reincatalyze/data/processed/docking_pred/2023-May-17-1006_maxeplen10_maxtrainstep1000_seadep16_gamma099_lrac9e-4_lrcr1e-3_sub6/8f7c925e970cb887b69f6e81c5db99fda922d0ae_ligand_6.pdbqt
 15 16 0 0 0
SMALL
GASTEIGER

@<TRIPOS>ATOM
      1  C          6.3900    1.2680    0.6600 C.3     1  UNL1        0.1270
      2  C          5.1560    1.3220    1.4280 C.2     1  UNL1        0.3030
      3  O          4.2550    2.1500    1.2800 O.2     1  UNL1       -0.2520
      4  O          4.9740    0.3510    2.4250 O.3     1  UNL1       -0.4810
      5  H          5.4850    0.4920    3.2830 H       1  UNL1        0.2960
      6  C          6.2110    0.7940   -0.7290 C.3     1  UNL1        0.0470
      7  C          6.9720   -0.3860   -1.1460 C.2     1  UNL1       -0.0430
      8  C          7.2720   -0.6210   -2.4790 C.2     1  UNL1        0.0080
      9  C          7.3780   -1.3170   -0.2280 C.2     1  UNL1        0.0540
     10  C          7.9560   -1.7480   -2.8760 C.2     1  UNL1        0.0510
     11  C          8.0670   -2.4550   -0.6030 C.2     1  UNL1        0.1660
     12  C          8.3580   -2.6750   -1.9280 C.2     1  UNL1        0.1650
     13  O          8.5670   -3.5120    0.1370 O.2     1  UNL1       -0.4540
     14  O          9.0480   -3.8870   -1.9930 O.2     1  UNL1       -0.4540
     15  C          8.9130   -4.5710   -0.7690 C.3     1  UNL1        0.4680
@<TRIPOS>BOND
     1    10     8    1
     2    10    12    2
     3     8     7    2
     4    14    12    1
     5    14    15    1
     6    12    11    1
     7     7     6    1
     8     7     9    1
     9    15    13    1
    10     6     1    1
    11    11     9    2
    12    11    13    1
    13     1     2    1
    14     3     2    2
    15     2     4    1
    16     4     5    1
