@<TRIPOS>MOLECULE
/home/cewinharhar/GITHUB/reincatalyze/data/processed/docking_pred/2023-May-17-1006_maxeplen10_maxtrainstep1000_seadep16_gamma099_lrac9e-4_lrcr1e-3_sub6/8f7c925e970cb887b69f6e81c5db99fda922d0ae_ligand_6.pdbqt
 15 16 0 0 0
SMALL
GASTEIGER

@<TRIPOS>ATOM
      1  C          8.1640   -1.2510   -0.1390 C.3     1  UNL1        0.1270
      2  C          7.9840   -2.4500    0.6640 C.2     1  UNL1        0.3030
      3  O          8.7740   -3.3930    0.7320 O.2     1  UNL1       -0.2520
      4  O          6.8100   -2.5440    1.4290 O.3     1  UNL1       -0.4810
      5  H          6.8010   -3.2530    2.1460 H       1  UNL1        0.2960
      6  C          6.8970   -0.6190   -0.5660 C.3     1  UNL1        0.0470
      7  C          6.5770    0.6980   -0.0120 C.2     1  UNL1       -0.0430
      8  C          5.4840    1.4250   -0.4570 C.2     1  UNL1        0.0080
      9  C          7.3760    1.2690    0.9420 C.2     1  UNL1        0.0540
     10  C          5.2020    2.6790    0.0370 C.2     1  UNL1        0.0510
     11  C          7.1130    2.5260    1.4530 C.2     1  UNL1        0.1660
     12  C          6.0250    3.2350    1.0030 C.2     1  UNL1        0.1650
     13  O          7.7690    3.2870    2.4040 O.2     1  UNL1       -0.4540
     14  O          6.0220    4.4480    1.6930 O.2     1  UNL1       -0.4540
     15  C          7.2630    4.6290    2.3330 C.3     1  UNL1        0.4680
@<TRIPOS>BOND
     1     6     1    1
     2     6     7    1
     3     8     7    2
     4     8    10    1
     5     1     2    1
     6     7     9    1
     7    10    12    2
     8     2     3    2
     9     2     4    1
    10     9    11    2
    11    12    11    1
    12    12    14    1
    13     4     5    1
    14    11    13    1
    15    14    15    1
    16    15    13    1
