@<TRIPOS>MOLECULE
/home/cewinharhar/GITHUB/reincatalyze/data/processed/docking_pred/2023-May-17-1006_maxeplen10_maxtrainstep1000_seadep16_gamma099_lrac9e-4_lrcr1e-3_sub6/8f7c925e970cb887b69f6e81c5db99fda922d0ae_ligand_6.pdbqt
 15 16 0 0 0
SMALL
GASTEIGER

@<TRIPOS>ATOM
      1  C          5.3770    2.8610    0.1340 C.3     1  UNL1        0.1270
      2  C          6.1170    3.8440    0.9090 C.2     1  UNL1        0.3030
      3  O          6.1230    3.9300    2.1390 O.2     1  UNL1       -0.2520
      4  O          6.8910    4.7750    0.1990 O.3     1  UNL1       -0.4810
      5  H          7.8350    4.4950   -0.0190 H       1  UNL1        0.2960
      6  C          5.2790    1.5350    0.7820 C.3     1  UNL1        0.0470
      7  C          6.0550    0.4380    0.2000 C.2     1  UNL1       -0.0430
      8  C          6.4430   -0.6570    0.9570 C.2     1  UNL1        0.0080
      9  C          6.4560    0.4810   -1.1090 C.2     1  UNL1        0.0540
     10  C          7.2030   -1.6720    0.4210 C.2     1  UNL1        0.0510
     11  C          7.2190   -0.5270   -1.6680 C.2     1  UNL1        0.1660
     12  C          7.5950   -1.6060   -0.9060 C.2     1  UNL1        0.1650
     13  O          7.7290   -0.6920   -2.9440 O.2     1  UNL1       -0.4540
     14  O          8.3470   -2.4420   -1.7340 O.2     1  UNL1       -0.4540
     15  C          8.7030   -1.7460   -2.9060 C.3     1  UNL1        0.4680
@<TRIPOS>BOND
     1    13    15    1
     2    13    11    1
     3    15    14    1
     4    14    12    1
     5    11     9    1
     6    11    12    2
     7     9     7    2
     8    12    10    1
     9     5     4    1
    10     1     6    1
    11     1     2    1
    12     4     2    1
    13     7     6    1
    14     7     8    1
    15    10     8    2
    16     2     3    2
