@<TRIPOS>MOLECULE
/home/cewinharhar/GITHUB/reincatalyze/data/processed/docking_pred/2023-May-17-1006_maxeplen10_maxtrainstep1000_seadep16_gamma099_lrac9e-4_lrcr1e-3_sub6/8f7c925e970cb887b69f6e81c5db99fda922d0ae_ligand_6.pdbqt
 15 16 0 0 0
SMALL
GASTEIGER

@<TRIPOS>ATOM
      1  C          8.1030   -0.4080   -2.2440 C.3     1  UNL1        0.1270
      2  C          8.4320   -1.6880   -2.8530 C.2     1  UNL1        0.3030
      3  O          9.5590   -2.1830   -2.9160 O.2     1  UNL1       -0.2520
      4  O          7.3780   -2.4220   -3.4190 O.3     1  UNL1       -0.4810
      5  H          6.7870   -1.9250   -4.0670 H       1  UNL1        0.2960
      6  C          6.9050   -0.4460   -1.3790 C.3     1  UNL1        0.0470
      7  C          6.6330    0.7280   -0.5470 C.2     1  UNL1       -0.0430
      8  C          5.4830    1.4840   -0.7150 C.2     1  UNL1        0.0080
      9  C          7.5320    1.1380    0.4010 C.2     1  UNL1        0.0540
     10  C          5.2430    2.6090    0.0420 C.2     1  UNL1        0.0510
     11  C          7.3110    2.2630    1.1730 C.2     1  UNL1        0.1660
     12  C          6.1670    3.0020    0.9960 C.2     1  UNL1        0.1650
     13  O          8.0650    2.8540    2.1720 O.2     1  UNL1       -0.4540
     14  O          6.2270    4.0610    1.9040 O.2     1  UNL1       -0.4540
     15  C          7.5340    4.1640    2.4200 C.3     1  UNL1        0.4680
@<TRIPOS>BOND
     1     5     4    1
     2     4     2    1
     3     3     2    2
     4     2     1    1
     5     1     6    1
     6     6     7    1
     7     8     7    2
     8     8    10    1
     9     7     9    1
    10    10    12    2
    11     9    11    2
    12    12    11    1
    13    12    14    1
    14    11    13    1
    15    14    15    1
    16    13    15    1
