@<TRIPOS>MOLECULE
/home/cewinharhar/GITHUB/reincatalyze/data/processed/docking_pred/2023-May-17-1006_maxeplen10_maxtrainstep1000_seadep16_gamma099_lrac9e-4_lrcr1e-3_sub6/8f7c925e970cb887b69f6e81c5db99fda922d0ae_ligand_6.pdbqt
 15 16 0 0 0
SMALL
GASTEIGER

@<TRIPOS>ATOM
      1  C          4.7630    1.9220    0.8050 C.3     1  UNL1        0.1270
      2  C          4.3740    1.1460    1.9720 C.2     1  UNL1        0.3030
      3  O          5.0370    0.2440    2.4860 O.2     1  UNL1       -0.2520
      4  O          3.1380    1.4490    2.5640 O.3     1  UNL1       -0.4810
      5  H          2.3200    1.2780    2.0000 H       1  UNL1        0.2960
      6  C          6.2080    2.2300    0.7430 C.3     1  UNL1        0.0470
      7  C          7.0550    1.3420   -0.0560 C.2     1  UNL1       -0.0430
      8  C          8.4240    1.5380   -0.1510 C.2     1  UNL1        0.0080
      9  C          6.5090    0.3080   -0.7700 C.2     1  UNL1        0.0540
     10  C          9.2170    0.7260   -0.9310 C.2     1  UNL1        0.0510
     11  C          7.2860   -0.5200   -1.5580 C.2     1  UNL1        0.1660
     12  C          8.6420   -0.3140   -1.6410 C.2     1  UNL1        0.1650
     13  O          6.9580   -1.6060   -2.3510 O.2     1  UNL1       -0.4540
     14  O          9.1460   -1.2930   -2.5000 O.2     1  UNL1       -0.4540
     15  C          8.0820   -1.9050   -3.1920 C.3     1  UNL1        0.4680
@<TRIPOS>BOND
     1    15    14    1
     2    15    13    1
     3    14    12    1
     4    13    11    1
     5    12    11    2
     6    12    10    1
     7    11     9    1
     8    10     8    2
     9     9     7    2
    10     8     7    1
    11     7     6    1
    12     6     1    1
    13     1     2    1
    14     2     3    2
    15     2     4    1
    16     5     4    1
