@<TRIPOS>MOLECULE
/home/cewinharhar/GITHUB/reincatalyze/data/processed/docking_pred/2023-May-17-1006_maxeplen10_maxtrainstep1000_seadep16_gamma099_lrac9e-4_lrcr1e-3_sub6/8f7e92428ebbeefdf44ae8ea1c0956f20f305f25_ligand_6.pdbqt
 15 16 0 0 0
SMALL
GASTEIGER

@<TRIPOS>ATOM
      1  C          5.3990    2.8980    0.0790 C.3     1  UNL1        0.1270
      2  C          6.2430    3.8560    0.7760 C.2     1  UNL1        0.3030
      3  O          6.8920    4.7590    0.2450 O.2     1  UNL1       -0.2520
      4  O          6.3290    3.7430    2.1720 O.3     1  UNL1       -0.4810
      5  H          6.4100    2.8070    2.5390 H       1  UNL1        0.2960
      6  C          5.3150    1.5790    0.7420 C.3     1  UNL1        0.0470
      7  C          6.0850    0.4780    0.1590 C.2     1  UNL1       -0.0430
      8  C          6.4740   -0.6150    0.9180 C.2     1  UNL1        0.0080
      9  C          6.4790    0.5160   -1.1520 C.2     1  UNL1        0.0540
     10  C          7.2300   -1.6340    0.3810 C.2     1  UNL1        0.0510
     11  C          7.2370   -0.4950   -1.7130 C.2     1  UNL1        0.1660
     12  C          7.6140   -1.5730   -0.9490 C.2     1  UNL1        0.1650
     13  O          7.7390   -0.6660   -2.9910 O.2     1  UNL1       -0.4540
     14  O          8.3600   -2.4130   -1.7780 O.2     1  UNL1       -0.4540
     15  C          8.7110   -1.7210   -2.9540 C.3     1  UNL1        0.4680
@<TRIPOS>BOND
     1    13    15    1
     2    13    11    1
     3    15    14    1
     4    14    12    1
     5    11     9    1
     6    11    12    2
     7     9     7    2
     8    12    10    1
     9     1     6    1
    10     1     2    1
    11     7     6    1
    12     7     8    1
    13     3     2    2
    14    10     8    2
    15     2     4    1
    16     4     5    1
