@<TRIPOS>MOLECULE
/home/cewinharhar/GITHUB/reincatalyze/data/processed/docking_pred/2023-May-17-1006_maxeplen10_maxtrainstep1000_seadep16_gamma099_lrac9e-4_lrcr1e-3_sub6/8f7e92428ebbeefdf44ae8ea1c0956f20f305f25_ligand_6.pdbqt
 15 16 0 0 0
SMALL
GASTEIGER

@<TRIPOS>ATOM
      1  C          5.0800    2.8150    0.0850 C.3     1  UNL1        0.1270
      2  C          6.0570    3.6960    0.7060 C.2     1  UNL1        0.3030
      3  O          6.7300    4.5460    0.1210 O.2     1  UNL1       -0.2520
      4  O          6.2520    3.5670    2.0900 O.3     1  UNL1       -0.4810
      5  H          6.3250    2.6250    2.4440 H       1  UNL1        0.2960
      6  C          5.6650    1.5960   -0.5120 C.3     1  UNL1        0.0470
      7  C          6.2660    0.6180    0.3970 C.2     1  UNL1       -0.0430
      8  C          5.6050    0.1850    1.5360 C.2     1  UNL1        0.0080
      9  C          7.5240    0.1280    0.1660 C.2     1  UNL1        0.0540
     10  C          6.1830   -0.7070    2.4110 C.2     1  UNL1        0.0510
     11  C          8.1250   -0.7680    1.0300 C.2     1  UNL1        0.1660
     12  C          7.4570   -1.1890    2.1550 C.2     1  UNL1        0.1650
     13  O          9.3640   -1.3840    0.9990 O.2     1  UNL1       -0.4540
     14  O          8.3060   -2.0760    2.8190 O.2     1  UNL1       -0.4540
     15  C          9.6060   -1.9700    2.2870 C.3     1  UNL1        0.4680
@<TRIPOS>BOND
     1     6     1    1
     2     6     7    1
     3     1     2    1
     4     3     2    2
     5     9     7    2
     6     9    11    1
     7     7     8    1
     8     2     4    1
     9    13    11    1
    10    13    15    1
    11    11    12    2
    12     8    10    2
    13     4     5    1
    14    12    10    1
    15    12    14    1
    16    15    14    1
