@<TRIPOS>MOLECULE
/home/cewinharhar/GITHUB/reincatalyze/data/processed/docking_pred/2023-May-17-1006_maxeplen10_maxtrainstep1000_seadep16_gamma099_lrac9e-4_lrcr1e-3_sub6/8f7e92428ebbeefdf44ae8ea1c0956f20f305f25_ligand_6.pdbqt
 15 16 0 0 0
SMALL
GASTEIGER

@<TRIPOS>ATOM
      1  C          6.3860    1.3790    0.5780 C.3     1  UNL1        0.1270
      2  C          5.2120    1.3270    1.4350 C.2     1  UNL1        0.3030
      3  O          4.2560    2.1020    1.3890 O.2     1  UNL1       -0.2520
      4  O          5.1620    0.3060    2.3980 O.3     1  UNL1       -0.4810
      5  H          5.8240    0.3750    3.1550 H       1  UNL1        0.2960
      6  C          6.1520    0.8770   -0.7930 C.3     1  UNL1        0.0470
      7  C          6.9380   -0.2770   -1.2350 C.2     1  UNL1       -0.0430
      8  C          7.2770   -0.4550   -2.5670 C.2     1  UNL1        0.0080
      9  C          7.3290   -1.2410   -0.3440 C.2     1  UNL1        0.0540
     10  C          7.9850   -1.5580   -2.9900 C.2     1  UNL1        0.0510
     11  C          8.0400   -2.3560   -0.7450 C.2     1  UNL1        0.1660
     12  C          8.3710   -2.5180   -2.0690 C.2     1  UNL1        0.1650
     13  O          8.5320   -3.4370   -0.0350 O.2     1  UNL1       -0.4540
     14  O          9.0760   -3.7190   -2.1640 O.2     1  UNL1       -0.4540
     15  C          8.9160   -4.4540   -0.9720 C.3     1  UNL1        0.4680
@<TRIPOS>BOND
     1    10     8    1
     2    10    12    2
     3     8     7    2
     4    14    12    1
     5    14    15    1
     6    12    11    1
     7     7     6    1
     8     7     9    1
     9    15    13    1
    10     6     1    1
    11    11     9    2
    12    11    13    1
    13     1     2    1
    14     3     2    2
    15     2     4    1
    16     4     5    1
