@<TRIPOS>MOLECULE
/home/cewinharhar/GITHUB/reincatalyze/data/processed/docking_pred/2023-May-17-1006_maxeplen10_maxtrainstep1000_seadep16_gamma099_lrac9e-4_lrcr1e-3_sub6/8f7e92428ebbeefdf44ae8ea1c0956f20f305f25_ligand_6.pdbqt
 15 16 0 0 0
SMALL
GASTEIGER

@<TRIPOS>ATOM
      1  C          6.4460    0.3240    1.0200 C.3     1  UNL1        0.1270
      2  C          5.2620    0.9160    1.6230 C.2     1  UNL1        0.3030
      3  O          4.5240    0.3670    2.4440 O.2     1  UNL1       -0.2520
      4  O          4.9290    2.2250    1.2400 O.3     1  UNL1       -0.4810
      5  H          5.4470    2.9650    1.6870 H       1  UNL1        0.2960
      6  C          6.6070   -1.1180    1.3040 C.3     1  UNL1        0.0470
      7  C          7.6870   -1.5140    2.2100 C.2     1  UNL1       -0.0430
      8  C          7.6480   -1.2080    3.5620 C.2     1  UNL1        0.0080
      9  C          8.7940   -2.1670    1.7370 C.2     1  UNL1        0.0540
     10  C          8.6800   -1.5480    4.4080 C.2     1  UNL1        0.0510
     11  C          9.8410   -2.5180    2.5670 C.2     1  UNL1        0.1660
     12  C          9.7880   -2.2100    3.9050 C.2     1  UNL1        0.1650
     13  O         11.0360   -3.1700    2.3150 O.2     1  UNL1       -0.4540
     14  O         10.9710   -2.6830    4.4750 O.2     1  UNL1       -0.4540
     15  C         11.8900   -3.0000    3.4550 C.3     1  UNL1        0.4680
@<TRIPOS>BOND
     1     1     6    1
     2     1     2    1
     3     4     2    1
     4     4     5    1
     5     6     7    1
     6     2     3    2
     7     9     7    2
     8     9    11    1
     9     7     8    1
    10    13    11    1
    11    13    15    1
    12    11    12    2
    13    15    14    1
    14     8    10    2
    15    12    10    1
    16    12    14    1
