@<TRIPOS>MOLECULE
/home/cewinharhar/GITHUB/reincatalyze/data/processed/docking_pred/2023-May-17-1006_maxeplen10_maxtrainstep1000_seadep16_gamma099_lrac9e-4_lrcr1e-3_sub6/90bec1d2941dc3e2c4ee946d92d9c3e8ec331448_ligand_6.pdbqt
 15 16 0 0 0
SMALL
GASTEIGER

@<TRIPOS>ATOM
      1  C          5.6340    2.5750    0.1160 C.3     1  UNL1        0.1270
      2  C          6.1720    3.6980    0.8690 C.2     1  UNL1        0.3030
      3  O          6.1050    3.8390    2.0910 O.2     1  UNL1       -0.2520
      4  O          6.8220    4.7080    0.1430 O.3     1  UNL1       -0.4810
      5  H          6.4970    4.8580   -0.8000 H       1  UNL1        0.2960
      6  C          5.8120    1.2660    0.7810 C.3     1  UNL1        0.0470
      7  C          6.5190    0.2200    0.0390 C.2     1  UNL1       -0.0430
      8  C          6.5430    0.2040   -1.3470 C.2     1  UNL1        0.0080
      9  C          7.1510   -0.8010    0.6980 C.2     1  UNL1        0.0540
     10  C          7.1770   -0.7980   -2.0460 C.2     1  UNL1        0.0510
     11  C          7.7940   -1.8170    0.0180 C.2     1  UNL1        0.1660
     12  C          7.8100   -1.8200   -1.3560 C.2     1  UNL1        0.1650
     13  O          8.4850   -2.9290    0.4660 O.2     1  UNL1       -0.4540
     14  O          8.5230   -2.9530   -1.7490 O.2     1  UNL1       -0.4540
     15  C          8.6790   -3.8160   -0.6460 C.3     1  UNL1        0.4680
@<TRIPOS>BOND
     1    10    12    2
     2    10     8    1
     3    14    12    1
     4    14    15    1
     5    12    11    1
     6     8     7    2
     7     5     4    1
     8    15    13    1
     9    11    13    1
    10    11     9    2
    11     7     9    1
    12     7     6    1
    13     1     6    1
    14     1     2    1
    15     4     2    1
    16     2     3    2
