@<TRIPOS>MOLECULE
/home/cewinharhar/GITHUB/reincatalyze/data/processed/docking_pred/2023-May-17-1006_maxeplen10_maxtrainstep1000_seadep16_gamma099_lrac9e-4_lrcr1e-3_sub6/90bec1d2941dc3e2c4ee946d92d9c3e8ec331448_ligand_6.pdbqt
 15 16 0 0 0
SMALL
GASTEIGER

@<TRIPOS>ATOM
      1  C          8.2980   -0.3190   -2.8340 C.3     1  UNL1        0.1270
      2  C          8.4640   -1.7460   -3.0610 C.2     1  UNL1        0.3030
      3  O          9.5320   -2.3580   -3.0270 O.2     1  UNL1       -0.2520
      4  O          7.3080   -2.4910   -3.3430 O.3     1  UNL1       -0.4810
      5  H          6.8460   -2.9130   -2.5530 H       1  UNL1        0.2960
      6  C          8.7560    0.1340   -1.5030 C.3     1  UNL1        0.0470
      7  C          7.7880    0.0980   -0.4050 C.2     1  UNL1       -0.0430
      8  C          7.7480   -0.9590    0.4910 C.2     1  UNL1        0.0080
      9  C          6.8620    1.0960   -0.2540 C.2     1  UNL1        0.0540
     10  C          6.8150   -1.0120    1.5030 C.2     1  UNL1        0.0510
     11  C          5.9170    1.0640    0.7530 C.2     1  UNL1        0.1660
     12  C          5.8900    0.0110    1.6350 C.2     1  UNL1        0.1650
     13  O          4.9040    1.9450    1.0910 O.2     1  UNL1       -0.4540
     14  O          4.8420    0.2560    2.5230 O.2     1  UNL1       -0.4540
     15  C          4.0250    1.2860    2.0150 C.3     1  UNL1        0.4680
@<TRIPOS>BOND
     1     4     2    1
     2     4     5    1
     3     2     3    2
     4     2     1    1
     5     1     6    1
     6     6     7    1
     7     7     9    2
     8     7     8    1
     9     9    11    1
    10     8    10    2
    11    11    13    1
    12    11    12    2
    13    13    15    1
    14    10    12    1
    15    12    14    1
    16    15    14    1
