MODEL 1
REMARK VINA RESULT:      -7.6      0.000      0.000
REMARK SMILES O=C(O)CCc1ccc2c(c1)OCO2
REMARK SMILES IDX 4 1 2 2 1 3 3 4 5 6 6 7 7 8 11 9 8 10 10 11 9 12 12 13 14 14
REMARK SMILES IDX 13 15
REMARK H PARENT 3 5
REMARK Flexibility Score: inf
ROOT
ATOM      1  C   UNL     1       5.426   2.864   0.125  1.00  0.00     0.127 C 
ENDROOT
BRANCH   1   2
ATOM      2  C   UNL     1       6.259   3.839   0.811  1.00  0.00     0.303 C 
ATOM      3  O   UNL     1       6.911   4.733   0.269  1.00  0.00    -0.252 OA
BRANCH   2   4
ATOM      4  O   UNL     1       6.328   3.757   2.211  1.00  0.00    -0.481 OA
ATOM      5  H   UNL     1       5.761   3.043   2.643  1.00  0.00     0.296 HD
ENDBRANCH   2   4
ENDBRANCH   1   2
BRANCH   1   6
ATOM      6  C   UNL     1       5.356   1.552   0.802  1.00  0.00     0.047 C 
BRANCH   6   7
ATOM      7  C   UNL     1       6.133   0.451   0.227  1.00  0.00    -0.043 A 
ATOM      8  C   UNL     1       6.577  -0.606   1.006  1.00  0.00     0.008 A 
ATOM      9  C   UNL     1       6.479   0.456  -1.098  1.00  0.00     0.054 A 
ATOM     10  C   UNL     1       7.339  -1.623   0.474  1.00  0.00     0.051 A 
ATOM     11  C   UNL     1       7.242  -0.554  -1.654  1.00  0.00     0.166 A 
ATOM     12  C   UNL     1       7.674  -1.597  -0.870  1.00  0.00     0.165 A 
ATOM     13  O   UNL     1       7.702  -0.755  -2.943  1.00  0.00    -0.454 OA
ATOM     14  O   UNL     1       8.410  -2.445  -1.699  1.00  0.00    -0.454 OA
ATOM     15  C   UNL     1       8.702  -1.785  -2.908  1.00  0.00     0.468 C 
ENDBRANCH   6   7
ENDBRANCH   1   6
TORSDOF 4
ENDMDL
MODEL 2
REMARK VINA RESULT:      -7.6      2.115      2.512
REMARK SMILES O=C(O)CCc1ccc2c(c1)OCO2
REMARK SMILES IDX 4 1 2 2 1 3 3 4 5 6 6 7 7 8 11 9 8 10 10 11 9 12 12 13 14 14
REMARK SMILES IDX 13 15
REMARK H PARENT 3 5
REMARK Flexibility Score: inf
ROOT
ATOM      1  C   UNL     1       4.705   1.871   0.679  1.00  0.00     0.127 C 
ENDROOT
BRANCH   1   2
ATOM      2  C   UNL     1       4.410   1.162   1.915  1.00  0.00     0.303 C 
ATOM      3  O   UNL     1       5.147   0.341   2.463  1.00  0.00    -0.252 OA
BRANCH   2   4
ATOM      4  O   UNL     1       3.182   1.435   2.537  1.00  0.00    -0.481 OA
ATOM      5  H   UNL     1       3.177   1.403   3.545  1.00  0.00     0.296 HD
ENDBRANCH   2   4
ENDBRANCH   1   2
BRANCH   1   6
ATOM      6  C   UNL     1       6.128   2.240   0.523  1.00  0.00     0.047 C 
BRANCH   6   7
ATOM      7  C   UNL     1       6.983   1.333  -0.245  1.00  0.00    -0.043 A 
ATOM      8  C   UNL     1       8.343   1.561  -0.382  1.00  0.00     0.008 A 
ATOM      9  C   UNL     1       6.451   0.246  -0.887  1.00  0.00     0.054 A 
ATOM     10  C   UNL     1       9.142   0.729  -1.135  1.00  0.00     0.051 A 
ATOM     11  C   UNL     1       7.233  -0.603  -1.647  1.00  0.00     0.166 A 
ATOM     12  C   UNL     1       8.581  -0.365  -1.773  1.00  0.00     0.165 A 
ATOM     13  O   UNL     1       6.920  -1.741  -2.370  1.00  0.00    -0.454 OA
ATOM     14  O   UNL     1       9.094  -1.376  -2.588  1.00  0.00    -0.454 OA
ATOM     15  C   UNL     1       8.033  -2.055  -3.220  1.00  0.00     0.468 C 
ENDBRANCH   6   7
ENDBRANCH   1   6
TORSDOF 4
ENDMDL
MODEL 3
REMARK VINA RESULT:      -7.5      1.799      5.284
REMARK SMILES O=C(O)CCc1ccc2c(c1)OCO2
REMARK SMILES IDX 4 1 2 2 1 3 3 4 5 6 6 7 7 8 11 9 8 10 10 11 9 12 12 13 14 14
REMARK SMILES IDX 13 15
REMARK H PARENT 3 5
REMARK Flexibility Score: inf
ROOT
ATOM      1  C   UNL     1       8.298  -0.319  -2.834  1.00  0.00     0.127 C 
ENDROOT
BRANCH   1   2
ATOM      2  C   UNL     1       8.464  -1.746  -3.061  1.00  0.00     0.303 C 
ATOM      3  O   UNL     1       9.532  -2.358  -3.027  1.00  0.00    -0.252 OA
BRANCH   2   4
ATOM      4  O   UNL     1       7.308  -2.491  -3.343  1.00  0.00    -0.481 OA
ATOM      5  H   UNL     1       6.846  -2.913  -2.553  1.00  0.00     0.296 HD
ENDBRANCH   2   4
ENDBRANCH   1   2
BRANCH   1   6
ATOM      6  C   UNL     1       8.756   0.134  -1.503  1.00  0.00     0.047 C 
BRANCH   6   7
ATOM      7  C   UNL     1       7.788   0.098  -0.405  1.00  0.00    -0.043 A 
ATOM      8  C   UNL     1       7.748  -0.959   0.491  1.00  0.00     0.008 A 
ATOM      9  C   UNL     1       6.862   1.096  -0.254  1.00  0.00     0.054 A 
ATOM     10  C   UNL     1       6.815  -1.012   1.503  1.00  0.00     0.051 A 
ATOM     11  C   UNL     1       5.917   1.064   0.753  1.00  0.00     0.166 A 
ATOM     12  C   UNL     1       5.890   0.011   1.635  1.00  0.00     0.165 A 
ATOM     13  O   UNL     1       4.904   1.945   1.091  1.00  0.00    -0.454 OA
ATOM     14  O   UNL     1       4.842   0.256   2.523  1.00  0.00    -0.454 OA
ATOM     15  C   UNL     1       4.025   1.286   2.015  1.00  0.00     0.468 C 
ENDBRANCH   6   7
ENDBRANCH   1   6
TORSDOF 4
ENDMDL
MODEL 4
REMARK VINA RESULT:      -7.4      1.939      2.843
REMARK SMILES O=C(O)CCc1ccc2c(c1)OCO2
REMARK SMILES IDX 4 1 2 2 1 3 3 4 5 6 6 7 7 8 11 9 8 10 10 11 9 12 12 13 14 14
REMARK SMILES IDX 13 15
REMARK H PARENT 3 5
REMARK Flexibility Score: inf
ROOT
ATOM      1  C   UNL     1       6.419   1.389   0.571  1.00  0.00     0.127 C 
ENDROOT
BRANCH   1   2
ATOM      2  C   UNL     1       5.225   1.380   1.401  1.00  0.00     0.303 C 
ATOM      3  O   UNL     1       4.273   2.156   1.297  1.00  0.00    -0.252 OA
BRANCH   2   4
ATOM      4  O   UNL     1       5.148   0.407   2.410  1.00  0.00    -0.481 OA
ATOM      5  H   UNL     1       5.306   0.729   3.352  1.00  0.00     0.296 HD
ENDBRANCH   2   4
ENDBRANCH   1   2
BRANCH   1   6
ATOM      6  C   UNL     1       6.200   0.880  -0.800  1.00  0.00     0.047 C 
BRANCH   6   7
ATOM      7  C   UNL     1       6.967  -0.296  -1.216  1.00  0.00    -0.043 A 
ATOM      8  C   UNL     1       7.287  -0.519  -2.547  1.00  0.00     0.008 A 
ATOM      9  C   UNL     1       7.360  -1.236  -0.301  1.00  0.00     0.054 A 
ATOM     10  C   UNL     1       7.977  -1.642  -2.944  1.00  0.00     0.051 A 
ATOM     11  C   UNL     1       8.054  -2.370  -0.677  1.00  0.00     0.166 A 
ATOM     12  C   UNL     1       8.365  -2.578  -1.999  1.00  0.00     0.165 A 
ATOM     13  O   UNL     1       8.544  -3.434   0.061  1.00  0.00    -0.454 OA
ATOM     14  O   UNL     1       9.056  -3.789  -2.065  1.00  0.00    -0.454 OA
ATOM     15  C   UNL     1       8.904  -4.484  -0.850  1.00  0.00     0.468 C 
ENDBRANCH   6   7
ENDBRANCH   1   6
TORSDOF 4
ENDMDL
MODEL 5
REMARK VINA RESULT:      -7.3      0.983      2.085
REMARK SMILES O=C(O)CCc1ccc2c(c1)OCO2
REMARK SMILES IDX 4 1 2 2 1 3 3 4 5 6 6 7 7 8 11 9 8 10 10 11 9 12 12 13 14 14
REMARK SMILES IDX 13 15
REMARK H PARENT 3 5
REMARK Flexibility Score: inf
ROOT
ATOM      1  C   UNL     1       5.634   2.575   0.116  1.00  0.00     0.127 C 
ENDROOT
BRANCH   1   2
ATOM      2  C   UNL     1       6.172   3.698   0.869  1.00  0.00     0.303 C 
ATOM      3  O   UNL     1       6.105   3.839   2.091  1.00  0.00    -0.252 OA
BRANCH   2   4
ATOM      4  O   UNL     1       6.822   4.708   0.143  1.00  0.00    -0.481 OA
ATOM      5  H   UNL     1       6.497   4.858  -0.800  1.00  0.00     0.296 HD
ENDBRANCH   2   4
ENDBRANCH   1   2
BRANCH   1   6
ATOM      6  C   UNL     1       5.812   1.266   0.781  1.00  0.00     0.047 C 
BRANCH   6   7
ATOM      7  C   UNL     1       6.519   0.220   0.039  1.00  0.00    -0.043 A 
ATOM      8  C   UNL     1       6.543   0.204  -1.347  1.00  0.00     0.008 A 
ATOM      9  C   UNL     1       7.151  -0.801   0.698  1.00  0.00     0.054 A 
ATOM     10  C   UNL     1       7.177  -0.798  -2.046  1.00  0.00     0.051 A 
ATOM     11  C   UNL     1       7.794  -1.817   0.018  1.00  0.00     0.166 A 
ATOM     12  C   UNL     1       7.810  -1.820  -1.356  1.00  0.00     0.165 A 
ATOM     13  O   UNL     1       8.485  -2.929   0.466  1.00  0.00    -0.454 OA
ATOM     14  O   UNL     1       8.523  -2.953  -1.749  1.00  0.00    -0.454 OA
ATOM     15  C   UNL     1       8.679  -3.816  -0.646  1.00  0.00     0.468 C 
ENDBRANCH   6   7
ENDBRANCH   1   6
TORSDOF 4
ENDMDL
