@<TRIPOS>MOLECULE
/home/cewinharhar/GITHUB/reincatalyze/data/processed/docking_pred/2023-May-17-1006_maxeplen10_maxtrainstep1000_seadep16_gamma099_lrac9e-4_lrcr1e-3_sub6/90bec1d2941dc3e2c4ee946d92d9c3e8ec331448_ligand_6.pdbqt
 15 16 0 0 0
SMALL
GASTEIGER

@<TRIPOS>ATOM
      1  C          6.4190    1.3890    0.5710 C.3     1  UNL1        0.1270
      2  C          5.2250    1.3800    1.4010 C.2     1  UNL1        0.3030
      3  O          4.2730    2.1560    1.2970 O.2     1  UNL1       -0.2520
      4  O          5.1480    0.4070    2.4100 O.3     1  UNL1       -0.4810
      5  H          5.3060    0.7290    3.3520 H       1  UNL1        0.2960
      6  C          6.2000    0.8800   -0.8000 C.3     1  UNL1        0.0470
      7  C          6.9670   -0.2960   -1.2160 C.2     1  UNL1       -0.0430
      8  C          7.2870   -0.5190   -2.5470 C.2     1  UNL1        0.0080
      9  C          7.3600   -1.2360   -0.3010 C.2     1  UNL1        0.0540
     10  C          7.9770   -1.6420   -2.9440 C.2     1  UNL1        0.0510
     11  C          8.0540   -2.3700   -0.6770 C.2     1  UNL1        0.1660
     12  C          8.3650   -2.5780   -1.9990 C.2     1  UNL1        0.1650
     13  O          8.5440   -3.4340    0.0610 O.2     1  UNL1       -0.4540
     14  O          9.0560   -3.7890   -2.0650 O.2     1  UNL1       -0.4540
     15  C          8.9040   -4.4840   -0.8500 C.3     1  UNL1        0.4680
@<TRIPOS>BOND
     1    10     8    1
     2    10    12    2
     3     8     7    2
     4    14    12    1
     5    14    15    1
     6    12    11    1
     7     7     6    1
     8     7     9    1
     9    15    13    1
    10     6     1    1
    11    11     9    2
    12    11    13    1
    13     1     2    1
    14     3     2    2
    15     2     4    1
    16     4     5    1
