@<TRIPOS>MOLECULE
/home/cewinharhar/GITHUB/reincatalyze/data/processed/docking_pred/2023-May-17-1006_maxeplen10_maxtrainstep1000_seadep16_gamma099_lrac9e-4_lrcr1e-3_sub6/90bec1d2941dc3e2c4ee946d92d9c3e8ec331448_ligand_6.pdbqt
 15 16 0 0 0
SMALL
GASTEIGER

@<TRIPOS>ATOM
      1  C          4.7050    1.8710    0.6790 C.3     1  UNL1        0.1270
      2  C          4.4100    1.1620    1.9150 C.2     1  UNL1        0.3030
      3  O          5.1470    0.3410    2.4630 O.2     1  UNL1       -0.2520
      4  O          3.1820    1.4350    2.5370 O.3     1  UNL1       -0.4810
      5  H          3.1770    1.4030    3.5450 H       1  UNL1        0.2960
      6  C          6.1280    2.2400    0.5230 C.3     1  UNL1        0.0470
      7  C          6.9830    1.3330   -0.2450 C.2     1  UNL1       -0.0430
      8  C          8.3430    1.5610   -0.3820 C.2     1  UNL1        0.0080
      9  C          6.4510    0.2460   -0.8870 C.2     1  UNL1        0.0540
     10  C          9.1420    0.7290   -1.1350 C.2     1  UNL1        0.0510
     11  C          7.2330   -0.6030   -1.6470 C.2     1  UNL1        0.1660
     12  C          8.5810   -0.3650   -1.7730 C.2     1  UNL1        0.1650
     13  O          6.9200   -1.7410   -2.3700 O.2     1  UNL1       -0.4540
     14  O          9.0940   -1.3760   -2.5880 O.2     1  UNL1       -0.4540
     15  C          8.0330   -2.0550   -3.2200 C.3     1  UNL1        0.4680
@<TRIPOS>BOND
     1    15    14    1
     2    15    13    1
     3    14    12    1
     4    13    11    1
     5    12    11    2
     6    12    10    1
     7    11     9    1
     8    10     8    2
     9     9     7    2
    10     8     7    1
    11     7     6    1
    12     6     1    1
    13     1     2    1
    14     2     3    2
    15     2     4    1
    16     4     5    1
