MODEL 1
REMARK VINA RESULT:      -7.7      0.000      0.000
REMARK SMILES O=C(O)CCc1ccc2c(c1)OCO2
REMARK SMILES IDX 4 1 2 2 1 3 3 4 5 6 6 7 7 8 11 9 8 10 10 11 9 12 12 13 14 14
REMARK SMILES IDX 13 15
REMARK H PARENT 3 5
REMARK Flexibility Score: inf
ROOT
ATOM      1  C   UNL     1       5.419   2.877   0.118  1.00  0.00     0.127 C 
ENDROOT
BRANCH   1   2
ATOM      2  C   UNL     1       6.246   3.857   0.806  1.00  0.00     0.303 C 
ATOM      3  O   UNL     1       6.870   4.773   0.267  1.00  0.00    -0.252 OA
BRANCH   2   4
ATOM      4  O   UNL     1       6.344   3.751   2.202  1.00  0.00    -0.481 OA
ATOM      5  H   UNL     1       5.946   2.921   2.615  1.00  0.00     0.296 HD
ENDBRANCH   2   4
ENDBRANCH   1   2
BRANCH   1   6
ATOM      6  C   UNL     1       5.352   1.566   0.798  1.00  0.00     0.047 C 
BRANCH   6   7
ATOM      7  C   UNL     1       6.134   0.467   0.227  1.00  0.00    -0.043 A 
ATOM      8  C   UNL     1       6.604  -0.573   1.014  1.00  0.00     0.008 A 
ATOM      9  C   UNL     1       6.459   0.456  -1.103  1.00  0.00     0.054 A 
ATOM     10  C   UNL     1       7.370  -1.588   0.486  1.00  0.00     0.051 A 
ATOM     11  C   UNL     1       7.226  -0.553  -1.656  1.00  0.00     0.166 A 
ATOM     12  C   UNL     1       7.684  -1.578  -0.863  1.00  0.00     0.165 A 
ATOM     13  O   UNL     1       7.668  -0.767  -2.949  1.00  0.00    -0.454 OA
ATOM     14  O   UNL     1       8.418  -2.429  -1.691  1.00  0.00    -0.454 OA
ATOM     15  C   UNL     1       8.681  -1.784  -2.915  1.00  0.00     0.468 C 
ENDBRANCH   6   7
ENDBRANCH   1   6
TORSDOF 4
ENDMDL
MODEL 2
REMARK VINA RESULT:      -7.6      2.133      2.521
REMARK SMILES O=C(O)CCc1ccc2c(c1)OCO2
REMARK SMILES IDX 4 1 2 2 1 3 3 4 5 6 6 7 7 8 11 9 8 10 10 11 9 12 12 13 14 14
REMARK SMILES IDX 13 15
REMARK H PARENT 3 5
REMARK Flexibility Score: inf
ROOT
ATOM      1  C   UNL     1       4.742   1.874   0.718  1.00  0.00     0.127 C 
ENDROOT
BRANCH   1   2
ATOM      2  C   UNL     1       4.410   1.145   1.932  1.00  0.00     0.303 C 
ATOM      3  O   UNL     1       5.117   0.294   2.473  1.00  0.00    -0.252 OA
BRANCH   2   4
ATOM      4  O   UNL     1       3.179   1.435   2.541  1.00  0.00    -0.481 OA
ATOM      5  H   UNL     1       2.518   0.675   2.593  1.00  0.00     0.296 HD
ENDBRANCH   2   4
ENDBRANCH   1   2
BRANCH   1   6
ATOM      6  C   UNL     1       6.177   2.208   0.592  1.00  0.00     0.047 C 
BRANCH   6   7
ATOM      7  C   UNL     1       7.014   1.309  -0.205  1.00  0.00    -0.043 A 
ATOM      8  C   UNL     1       8.371   1.540  -0.372  1.00  0.00     0.008 A 
ATOM      9  C   UNL     1       6.469   0.227  -0.844  1.00  0.00     0.054 A 
ATOM     10  C   UNL     1       9.153   0.715  -1.150  1.00  0.00     0.051 A 
ATOM     11  C   UNL     1       7.234  -0.615  -1.629  1.00  0.00     0.166 A 
ATOM     12  C   UNL     1       8.578  -0.374  -1.785  1.00  0.00     0.165 A 
ATOM     13  O   UNL     1       6.904  -1.746  -2.355  1.00  0.00    -0.454 OA
ATOM     14  O   UNL     1       9.072  -1.377  -2.621  1.00  0.00    -0.454 OA
ATOM     15  C   UNL     1       7.998  -2.051  -3.234  1.00  0.00     0.468 C 
ENDBRANCH   6   7
ENDBRANCH   1   6
TORSDOF 4
ENDMDL
MODEL 3
REMARK VINA RESULT:      -7.5      1.972      2.881
REMARK SMILES O=C(O)CCc1ccc2c(c1)OCO2
REMARK SMILES IDX 4 1 2 2 1 3 3 4 5 6 6 7 7 8 11 9 8 10 10 11 9 12 12 13 14 14
REMARK SMILES IDX 13 15
REMARK H PARENT 3 5
REMARK Flexibility Score: inf
ROOT
ATOM      1  C   UNL     1       6.405   1.328   0.651  1.00  0.00     0.127 C 
ENDROOT
BRANCH   1   2
ATOM      2  C   UNL     1       5.193   1.320   1.455  1.00  0.00     0.303 C 
ATOM      3  O   UNL     1       4.250   2.104   1.340  1.00  0.00    -0.252 OA
BRANCH   2   4
ATOM      4  O   UNL     1       5.087   0.334   2.449  1.00  0.00    -0.481 OA
ATOM      5  H   UNL     1       4.905   0.663   3.385  1.00  0.00     0.296 HD
ENDBRANCH   2   4
ENDBRANCH   1   2
BRANCH   1   6
ATOM      6  C   UNL     1       6.212   0.838  -0.731  1.00  0.00     0.047 C 
BRANCH   6   7
ATOM      7  C   UNL     1       6.974  -0.343  -1.142  1.00  0.00    -0.043 A 
ATOM      8  C   UNL     1       7.290  -0.574  -2.472  1.00  0.00     0.008 A 
ATOM      9  C   UNL     1       7.364  -1.280  -0.223  1.00  0.00     0.054 A 
ATOM     10  C   UNL     1       7.975  -1.703  -2.865  1.00  0.00     0.051 A 
ATOM     11  C   UNL     1       8.053  -2.420  -0.594  1.00  0.00     0.166 A 
ATOM     12  C   UNL     1       8.361  -2.635  -1.916  1.00  0.00     0.165 A 
ATOM     13  O   UNL     1       8.539  -3.482   0.148  1.00  0.00    -0.454 OA
ATOM     14  O   UNL     1       9.046  -3.849  -1.977  1.00  0.00    -0.454 OA
ATOM     15  C   UNL     1       8.893  -4.538  -0.758  1.00  0.00     0.468 C 
ENDBRANCH   6   7
ENDBRANCH   1   6
TORSDOF 4
ENDMDL
MODEL 4
REMARK VINA RESULT:      -7.4      1.795      5.290
REMARK SMILES O=C(O)CCc1ccc2c(c1)OCO2
REMARK SMILES IDX 4 1 2 2 1 3 3 4 5 6 6 7 7 8 11 9 8 10 10 11 9 12 12 13 14 14
REMARK SMILES IDX 13 15
REMARK H PARENT 3 5
REMARK Flexibility Score: inf
ROOT
ATOM      1  C   UNL     1       8.320  -0.323  -2.828  1.00  0.00     0.127 C 
ENDROOT
BRANCH   1   2
ATOM      2  C   UNL     1       8.474  -1.750  -3.064  1.00  0.00     0.303 C 
ATOM      3  O   UNL     1       9.539  -2.369  -3.039  1.00  0.00    -0.252 OA
BRANCH   2   4
ATOM      4  O   UNL     1       7.313  -2.486  -3.345  1.00  0.00    -0.481 OA
ATOM      5  H   UNL     1       6.935  -3.029  -2.584  1.00  0.00     0.296 HD
ENDBRANCH   2   4
ENDBRANCH   1   2
BRANCH   1   6
ATOM      6  C   UNL     1       8.770   0.117  -1.490  1.00  0.00     0.047 C 
BRANCH   6   7
ATOM      7  C   UNL     1       7.792   0.083  -0.401  1.00  0.00    -0.043 A 
ATOM      8  C   UNL     1       7.728  -0.983   0.483  1.00  0.00     0.008 A 
ATOM      9  C   UNL     1       6.879   1.093  -0.248  1.00  0.00     0.054 A 
ATOM     10  C   UNL     1       6.785  -1.033   1.485  1.00  0.00     0.051 A 
ATOM     11  C   UNL     1       5.925   1.065   0.750  1.00  0.00     0.166 A 
ATOM     12  C   UNL     1       5.874   0.003   1.621  1.00  0.00     0.165 A 
ATOM     13  O   UNL     1       4.922   1.957   1.089  1.00  0.00    -0.454 OA
ATOM     14  O   UNL     1       4.821   0.254   2.502  1.00  0.00    -0.454 OA
ATOM     15  C   UNL     1       4.025   1.301   1.998  1.00  0.00     0.468 C 
ENDBRANCH   6   7
ENDBRANCH   1   6
TORSDOF 4
ENDMDL
