@<TRIPOS>MOLECULE
/home/cewinharhar/GITHUB/reincatalyze/data/processed/docking_pred/2023-May-17-1006_maxeplen10_maxtrainstep1000_seadep16_gamma099_lrac9e-4_lrcr1e-3_sub6/91438d65c636cbfd2c8442c68b92b155f88758ee_ligand_6.pdbqt
 15 16 0 0 0
SMALL
GASTEIGER

@<TRIPOS>ATOM
      1  C          5.8910    2.5370    0.1830 C.3     1  UNL1        0.1270
      2  C          6.2450    3.7450    0.9130 C.2     1  UNL1        0.3030
      3  O          6.0460    3.9420    2.1130 O.2     1  UNL1       -0.2520
      4  O          6.8680    4.7750    0.1910 O.3     1  UNL1       -0.4810
      5  H          7.8390    4.6320   -0.0430 H       1  UNL1        0.2960
      6  C          6.1370    1.2880    0.9340 C.3     1  UNL1        0.0470
      7  C          6.7410    0.1680    0.2080 C.2     1  UNL1       -0.0430
      8  C          6.6500    0.0660   -1.1710 C.2     1  UNL1        0.0080
      9  C          7.3830   -0.8370    0.8810 C.2     1  UNL1        0.0540
     10  C          7.1860   -1.0050   -1.8520 C.2     1  UNL1        0.0510
     11  C          7.9290   -1.9210    0.2190 C.2     1  UNL1        0.1660
     12  C          7.8320   -2.0080   -1.1490 C.2     1  UNL1        0.1650
     13  O          8.6110   -3.0320    0.6820 O.2     1  UNL1       -0.4540
     14  O          8.4670   -3.1940   -1.5230 O.2     1  UNL1       -0.4540
     15  C          8.6790   -3.9930   -0.3820 C.3     1  UNL1        0.4680
@<TRIPOS>BOND
     1    10     8    1
     2    10    12    2
     3    14    12    1
     4    14    15    1
     5     8     7    2
     6    12    11    1
     7    15    13    1
     8     5     4    1
     9     1     2    1
    10     1     6    1
    11     4     2    1
    12     7     9    1
    13     7     6    1
    14    11    13    1
    15    11     9    2
    16     2     3    2
