@<TRIPOS>MOLECULE
/home/cewinharhar/GITHUB/reincatalyze/data/processed/docking_pred/2023-May-17-1006_maxeplen10_maxtrainstep1000_seadep16_gamma099_lrac9e-4_lrcr1e-3_sub6/91438d65c636cbfd2c8442c68b92b155f88758ee_ligand_6.pdbqt
 15 16 0 0 0
SMALL
GASTEIGER

@<TRIPOS>ATOM
      1  C          8.3200   -0.3230   -2.8280 C.3     1  UNL1        0.1270
      2  C          8.4740   -1.7500   -3.0640 C.2     1  UNL1        0.3030
      3  O          9.5390   -2.3690   -3.0390 O.2     1  UNL1       -0.2520
      4  O          7.3130   -2.4860   -3.3450 O.3     1  UNL1       -0.4810
      5  H          6.9350   -3.0290   -2.5840 H       1  UNL1        0.2960
      6  C          8.7700    0.1170   -1.4900 C.3     1  UNL1        0.0470
      7  C          7.7920    0.0830   -0.4010 C.2     1  UNL1       -0.0430
      8  C          7.7280   -0.9830    0.4830 C.2     1  UNL1        0.0080
      9  C          6.8790    1.0930   -0.2480 C.2     1  UNL1        0.0540
     10  C          6.7850   -1.0330    1.4850 C.2     1  UNL1        0.0510
     11  C          5.9250    1.0650    0.7500 C.2     1  UNL1        0.1660
     12  C          5.8740    0.0030    1.6210 C.2     1  UNL1        0.1650
     13  O          4.9220    1.9570    1.0890 O.2     1  UNL1       -0.4540
     14  O          4.8210    0.2540    2.5020 O.2     1  UNL1       -0.4540
     15  C          4.0250    1.3010    1.9980 C.3     1  UNL1        0.4680
@<TRIPOS>BOND
     1     4     2    1
     2     4     5    1
     3     2     3    2
     4     2     1    1
     5     1     6    1
     6     6     7    1
     7     7     9    2
     8     7     8    1
     9     9    11    1
    10     8    10    2
    11    11    13    1
    12    11    12    2
    13    13    15    1
    14    10    12    1
    15    12    14    1
    16    15    14    1
