@<TRIPOS>MOLECULE
/home/cewinharhar/GITHUB/reincatalyze/data/processed/docking_pred/2023-May-17-1006_maxeplen10_maxtrainstep1000_seadep16_gamma099_lrac9e-4_lrcr1e-3_sub6/91438d65c636cbfd2c8442c68b92b155f88758ee_ligand_6.pdbqt
 15 16 0 0 0
SMALL
GASTEIGER

@<TRIPOS>ATOM
      1  C          4.7420    1.8740    0.7180 C.3     1  UNL1        0.1270
      2  C          4.4100    1.1450    1.9320 C.2     1  UNL1        0.3030
      3  O          5.1170    0.2940    2.4730 O.2     1  UNL1       -0.2520
      4  O          3.1790    1.4350    2.5410 O.3     1  UNL1       -0.4810
      5  H          2.5180    0.6750    2.5930 H       1  UNL1        0.2960
      6  C          6.1770    2.2080    0.5920 C.3     1  UNL1        0.0470
      7  C          7.0140    1.3090   -0.2050 C.2     1  UNL1       -0.0430
      8  C          8.3710    1.5400   -0.3720 C.2     1  UNL1        0.0080
      9  C          6.4690    0.2270   -0.8440 C.2     1  UNL1        0.0540
     10  C          9.1530    0.7150   -1.1500 C.2     1  UNL1        0.0510
     11  C          7.2340   -0.6150   -1.6290 C.2     1  UNL1        0.1660
     12  C          8.5780   -0.3740   -1.7850 C.2     1  UNL1        0.1650
     13  O          6.9040   -1.7460   -2.3550 O.2     1  UNL1       -0.4540
     14  O          9.0720   -1.3770   -2.6210 O.2     1  UNL1       -0.4540
     15  C          7.9980   -2.0510   -3.2340 C.3     1  UNL1        0.4680
@<TRIPOS>BOND
     1    15    14    1
     2    15    13    1
     3    14    12    1
     4    13    11    1
     5    12    11    2
     6    12    10    1
     7    11     9    1
     8    10     8    2
     9     9     7    2
    10     8     7    1
    11     7     6    1
    12     6     1    1
    13     1     2    1
    14     2     3    2
    15     2     4    1
    16     4     5    1
