@<TRIPOS>MOLECULE
/home/cewinharhar/GITHUB/reincatalyze/data/processed/docking_pred/2023-May-17-1006_maxeplen10_maxtrainstep1000_seadep16_gamma099_lrac9e-4_lrcr1e-3_sub6/91438d65c636cbfd2c8442c68b92b155f88758ee_ligand_6.pdbqt
 15 16 0 0 0
SMALL
GASTEIGER

@<TRIPOS>ATOM
      1  C          6.4050    1.3280    0.6510 C.3     1  UNL1        0.1270
      2  C          5.1930    1.3200    1.4550 C.2     1  UNL1        0.3030
      3  O          4.2500    2.1040    1.3400 O.2     1  UNL1       -0.2520
      4  O          5.0870    0.3340    2.4490 O.3     1  UNL1       -0.4810
      5  H          4.9050    0.6630    3.3850 H       1  UNL1        0.2960
      6  C          6.2120    0.8380   -0.7310 C.3     1  UNL1        0.0470
      7  C          6.9740   -0.3430   -1.1420 C.2     1  UNL1       -0.0430
      8  C          7.2900   -0.5740   -2.4720 C.2     1  UNL1        0.0080
      9  C          7.3640   -1.2800   -0.2230 C.2     1  UNL1        0.0540
     10  C          7.9750   -1.7030   -2.8650 C.2     1  UNL1        0.0510
     11  C          8.0530   -2.4200   -0.5940 C.2     1  UNL1        0.1660
     12  C          8.3610   -2.6350   -1.9160 C.2     1  UNL1        0.1650
     13  O          8.5390   -3.4820    0.1480 O.2     1  UNL1       -0.4540
     14  O          9.0460   -3.8490   -1.9770 O.2     1  UNL1       -0.4540
     15  C          8.8930   -4.5380   -0.7580 C.3     1  UNL1        0.4680
@<TRIPOS>BOND
     1    10     8    1
     2    10    12    2
     3     8     7    2
     4    14    12    1
     5    14    15    1
     6    12    11    1
     7     7     6    1
     8     7     9    1
     9    15    13    1
    10     6     1    1
    11    11     9    2
    12    11    13    1
    13     1     2    1
    14     3     2    2
    15     2     4    1
    16     4     5    1
