@<TRIPOS>MOLECULE
/home/cewinharhar/GITHUB/reincatalyze/data/processed/docking_pred/2023-May-17-1006_maxeplen10_maxtrainstep1000_seadep16_gamma099_lrac9e-4_lrcr1e-3_sub6/9282b18981f6708324b0af4486d36de930a99903_ligand_6.pdbqt
 15 16 0 0 0
SMALL
GASTEIGER

@<TRIPOS>ATOM
      1  C          8.0110   -5.8480   11.4980 C.3     1  UNL1        0.1270
      2  C          7.9040   -4.4000   11.4020 C.2     1  UNL1        0.3030
      3  O          8.0980   -3.6040   12.3220 O.2     1  UNL1       -0.2520
      4  O          7.5500   -3.8620   10.1550 O.3     1  UNL1       -0.4810
      5  H          8.3130   -3.5920    9.5530 H       1  UNL1        0.2960
      6  C          8.6480   -6.4820   10.3240 C.3     1  UNL1        0.0470
      7  C          9.9860   -7.0490   10.5030 C.2     1  UNL1       -0.0430
      8  C         10.2160   -8.4120   10.3980 C.2     1  UNL1        0.0080
      9  C         11.0500   -6.2460   10.8190 C.2     1  UNL1        0.0540
     10  C         11.4670   -8.9500   10.6020 C.2     1  UNL1        0.0510
     11  C         12.3140   -6.7640   11.0270 C.2     1  UNL1        0.1660
     12  C         12.5270   -8.1170   10.9200 C.2     1  UNL1        0.1650
     13  O         13.5150   -6.1560   11.3500 O.2     1  UNL1       -0.4540
     14  O         13.8810   -8.3340   11.1810 O.2     1  UNL1       -0.4540
     15  C         14.4410   -7.1750   11.7550 C.3     1  UNL1        0.4680
@<TRIPOS>BOND
     1     5     4    1
     2     4     2    1
     3     6     7    1
     4     6     1    1
     5     8     7    2
     6     8    10    1
     7     7     9    1
     8    10    12    2
     9     9    11    2
    10    12    11    1
    11    12    14    1
    12    11    13    1
    13    14    15    1
    14    13    15    1
    15     2     1    1
    16     2     3    2
