@<TRIPOS>MOLECULE
/home/cewinharhar/GITHUB/reincatalyze/data/processed/docking_pred/2023-May-17-1006_maxeplen10_maxtrainstep1000_seadep16_gamma099_lrac9e-4_lrcr1e-3_sub6/9282b18981f6708324b0af4486d36de930a99903_ligand_6.pdbqt
 15 16 0 0 0
SMALL
GASTEIGER

@<TRIPOS>ATOM
      1  C         13.6820   -8.8660    9.9910 C.3     1  UNL1        0.1270
      2  C         14.0780   -8.6820    8.6040 C.2     1  UNL1        0.3030
      3  O         14.6570   -9.5170    7.9070 O.2     1  UNL1       -0.2520
      4  O         13.7760   -7.4490    8.0050 O.3     1  UNL1       -0.4810
      5  H         12.9480   -6.9810    8.3420 H       1  UNL1        0.2960
      6  C         12.2220   -8.9950   10.1860 C.3     1  UNL1        0.0470
      7  C         11.4860   -7.8010   10.6080 C.2     1  UNL1       -0.0430
      8  C         12.0140   -6.9140   11.5340 C.2     1  UNL1        0.0080
      9  C         10.2300   -7.5460   10.1250 C.2     1  UNL1        0.0540
     10  C         11.3080   -5.8100   11.9580 C.2     1  UNL1        0.0510
     11  C          9.5040   -6.4440   10.5360 C.2     1  UNL1        0.1660
     12  C         10.0400   -5.5730   11.4530 C.2     1  UNL1        0.1650
     13  O          8.2420   -5.9940   10.1890 O.2     1  UNL1       -0.4540
     14  O          9.0860   -4.5760   11.6680 O.2     1  UNL1       -0.4540
     15  C          7.8490   -4.9870   11.1340 C.3     1  UNL1        0.4680
@<TRIPOS>BOND
     1     3     2    2
     2     4     5    1
     3     4     2    1
     4     2     1    1
     5     1     6    1
     6     9    11    1
     7     9     7    2
     8     6     7    1
     9    13    11    1
    10    13    15    1
    11    11    12    2
    12     7     8    1
    13    15    14    1
    14    12    14    1
    15    12    10    1
    16     8    10    2
