@<TRIPOS>MOLECULE
/home/cewinharhar/GITHUB/reincatalyze/data/processed/docking_pred/2023-May-17-1006_maxeplen10_maxtrainstep1000_seadep16_gamma099_lrac9e-4_lrcr1e-3_sub6/9282b18981f6708324b0af4486d36de930a99903_ligand_6.pdbqt
 15 16 0 0 0
SMALL
GASTEIGER

@<TRIPOS>ATOM
      1  C          9.3980   -5.8180   11.8780 C.3     1  UNL1        0.1270
      2  C          8.3930   -5.4140   10.9070 C.2     1  UNL1        0.3030
      3  O          8.0110   -6.0870    9.9480 O.2     1  UNL1       -0.2520
      4  O          7.8070   -4.1490   11.0750 O.3     1  UNL1       -0.4810
      5  H          7.7300   -3.8160   12.0240 H       1  UNL1        0.2960
      6  C         10.7760   -5.8360   11.3440 C.3     1  UNL1        0.0470
      7  C         11.3130   -7.1230   10.8970 C.2     1  UNL1       -0.0430
      8  C         10.5980   -8.3010   11.0560 C.2     1  UNL1        0.0080
      9  C         12.5610   -7.2060   10.3410 C.2     1  UNL1        0.0540
     10  C         11.1170   -9.5160   10.6690 C.2     1  UNL1        0.0510
     11  C         13.1020   -8.4150    9.9450 C.2     1  UNL1        0.1660
     12  C         12.3820   -9.5740   10.1070 C.2     1  UNL1        0.1650
     13  O         14.3200   -8.7330    9.3700 O.2     1  UNL1       -0.4540
     14  O         13.1770  -10.6140    9.6230 O.2     1  UNL1       -0.4540
     15  C         14.4980  -10.1550    9.4520 C.3     1  UNL1        0.4680
@<TRIPOS>BOND
     1    13    15    1
     2    13    11    1
     3    15    14    1
     4    14    12    1
     5    11    12    2
     6    11     9    1
     7     3     2    2
     8    12    10    1
     9     9     7    2
    10    10     8    2
    11     7     8    1
    12     7     6    1
    13     2     4    1
    14     2     1    1
    15     4     5    1
    16     6     1    1
