@<TRIPOS>MOLECULE
/home/cewinharhar/GITHUB/reincatalyze/data/processed/docking_pred/2023-May-17-1006_maxeplen10_maxtrainstep1000_seadep16_gamma099_lrac9e-4_lrcr1e-3_sub6/9282b18981f6708324b0af4486d36de930a99903_ligand_6.pdbqt
 15 16 0 0 0
SMALL
GASTEIGER

@<TRIPOS>ATOM
      1  C         12.0790  -10.3010   11.2680 C.3     1  UNL1        0.1270
      2  C         10.8440  -11.0220   11.5310 C.2     1  UNL1        0.3030
      3  O         10.0570  -10.7850   12.4490 O.2     1  UNL1       -0.2520
      4  O         10.5180  -12.0790   10.6660 O.3     1  UNL1       -0.4810
      5  H          9.5570  -12.1270   10.3640 H       1  UNL1        0.2960
      6  C         11.9510   -9.2450   10.2400 C.3     1  UNL1        0.0470
      7  C         11.3020   -7.9930   10.6340 C.2     1  UNL1       -0.0430
      8  C         11.9080   -7.1070   11.5120 C.2     1  UNL1        0.0080
      9  C         10.0520   -7.6770   10.1720 C.2     1  UNL1        0.0540
     10  C         11.2840   -5.9470   11.9110 C.2     1  UNL1        0.0510
     11  C          9.4060   -6.5170   10.5590 C.2     1  UNL1        0.1660
     12  C         10.0200   -5.6480   11.4290 C.2     1  UNL1        0.1650
     13  O          8.1660   -6.0020   10.2260 O.2     1  UNL1       -0.4540
     14  O          9.1360   -4.5870   11.6280 O.2     1  UNL1       -0.4540
     15  C          7.8610   -4.9380   11.1410 C.3     1  UNL1        0.4680
@<TRIPOS>BOND
     1     9    11    1
     2     9     7    2
     3    13    11    1
     4    13    15    1
     5     6     7    1
     6     6     1    1
     7     5     4    1
     8    11    12    2
     9     7     8    1
    10     4     2    1
    11    15    14    1
    12     1     2    1
    13    12    14    1
    14    12    10    1
    15     8    10    2
    16     2     3    2
