@<TRIPOS>MOLECULE
/home/cewinharhar/GITHUB/reincatalyze/data/processed/docking_pred/2023-May-17-1006_maxeplen10_maxtrainstep1000_seadep16_gamma099_lrac9e-4_lrcr1e-3_sub6/9282b18981f6708324b0af4486d36de930a99903_ligand_6.pdbqt
 15 16 0 0 0
SMALL
GASTEIGER

@<TRIPOS>ATOM
      1  C          8.1440   -5.9160   11.4860 C.3     1  UNL1        0.1270
      2  C          7.9810   -4.4710   11.4410 C.2     1  UNL1        0.3030
      3  O          8.2020   -3.6950   12.3720 O.2     1  UNL1       -0.2520
      4  O          7.5340   -3.9110   10.2340 O.3     1  UNL1       -0.4810
      5  H          6.6920   -4.3060    9.8450 H       1  UNL1        0.2960
      6  C          8.7930   -6.4850   10.2860 C.3     1  UNL1        0.0470
      7  C         10.0960   -7.1310   10.4630 C.2     1  UNL1       -0.0430
      8  C         11.2560   -6.3890   10.6280 C.2     1  UNL1        0.0080
      9  C         10.2110   -8.4950   10.4320 C.2     1  UNL1        0.0540
     10  C         12.4860   -6.9940   10.7580 C.2     1  UNL1        0.0510
     11  C         11.4350   -9.1240   10.5620 C.2     1  UNL1        0.1660
     12  C         12.5760   -8.3770   10.7250 C.2     1  UNL1        0.1650
     13  O         11.7840  -10.4630   10.5610 O.2     1  UNL1       -0.4540
     14  O         13.6370   -9.2780   10.8250 O.2     1  UNL1       -0.4540
     15  C         13.2090  -10.5560   10.4140 C.3     1  UNL1        0.4680
@<TRIPOS>BOND
     1     5     4    1
     2     4     2    1
     3     6     7    1
     4     6     1    1
     5    15    13    1
     6    15    14    1
     7     9     7    2
     8     9    11    1
     9     7     8    1
    10    13    11    1
    11    11    12    2
    12     8    10    2
    13    12    10    1
    14    12    14    1
    15     2     1    1
    16     2     3    2
