MODEL 1
REMARK VINA RESULT:      -4.3      0.000      0.000
REMARK SMILES O=C(O)CCc1ccc2c(c1)OCO2
REMARK SMILES IDX 4 1 2 2 1 3 3 4 5 6 6 7 7 8 11 9 8 10 10 11 9 12 12 13 14 14
REMARK SMILES IDX 13 15
REMARK H PARENT 3 5
REMARK Flexibility Score: inf
ROOT
ATOM      1  C   UNL     1      13.682  -8.866   9.991  1.00  0.00     0.127 C 
ENDROOT
BRANCH   1   2
ATOM      2  C   UNL     1      14.078  -8.682   8.604  1.00  0.00     0.303 C 
ATOM      3  O   UNL     1      14.657  -9.517   7.907  1.00  0.00    -0.252 OA
BRANCH   2   4
ATOM      4  O   UNL     1      13.776  -7.449   8.005  1.00  0.00    -0.481 OA
ATOM      5  H   UNL     1      12.948  -6.981   8.342  1.00  0.00     0.296 HD
ENDBRANCH   2   4
ENDBRANCH   1   2
BRANCH   1   6
ATOM      6  C   UNL     1      12.222  -8.995  10.186  1.00  0.00     0.047 C 
BRANCH   6   7
ATOM      7  C   UNL     1      11.486  -7.801  10.608  1.00  0.00    -0.043 A 
ATOM      8  C   UNL     1      12.014  -6.914  11.534  1.00  0.00     0.008 A 
ATOM      9  C   UNL     1      10.230  -7.546  10.125  1.00  0.00     0.054 A 
ATOM     10  C   UNL     1      11.308  -5.810  11.958  1.00  0.00     0.051 A 
ATOM     11  C   UNL     1       9.504  -6.444  10.536  1.00  0.00     0.166 A 
ATOM     12  C   UNL     1      10.040  -5.573  11.453  1.00  0.00     0.165 A 
ATOM     13  O   UNL     1       8.242  -5.994  10.189  1.00  0.00    -0.454 OA
ATOM     14  O   UNL     1       9.086  -4.576  11.668  1.00  0.00    -0.454 OA
ATOM     15  C   UNL     1       7.849  -4.987  11.134  1.00  0.00     0.468 C 
ENDBRANCH   6   7
ENDBRANCH   1   6
TORSDOF 4
ENDMDL
MODEL 2
REMARK VINA RESULT:      -4.2      1.873      5.613
REMARK SMILES O=C(O)CCc1ccc2c(c1)OCO2
REMARK SMILES IDX 4 1 2 2 1 3 3 4 5 6 6 7 7 8 11 9 8 10 10 11 9 12 12 13 14 14
REMARK SMILES IDX 13 15
REMARK H PARENT 3 5
REMARK Flexibility Score: inf
ROOT
ATOM      1  C   UNL     1       8.011  -5.848  11.498  1.00  0.00     0.127 C 
ENDROOT
BRANCH   1   2
ATOM      2  C   UNL     1       7.904  -4.400  11.402  1.00  0.00     0.303 C 
ATOM      3  O   UNL     1       8.098  -3.604  12.322  1.00  0.00    -0.252 OA
BRANCH   2   4
ATOM      4  O   UNL     1       7.550  -3.862  10.155  1.00  0.00    -0.481 OA
ATOM      5  H   UNL     1       8.313  -3.592   9.553  1.00  0.00     0.296 HD
ENDBRANCH   2   4
ENDBRANCH   1   2
BRANCH   1   6
ATOM      6  C   UNL     1       8.648  -6.482  10.324  1.00  0.00     0.047 C 
BRANCH   6   7
ATOM      7  C   UNL     1       9.986  -7.049  10.503  1.00  0.00    -0.043 A 
ATOM      8  C   UNL     1      10.216  -8.412  10.398  1.00  0.00     0.008 A 
ATOM      9  C   UNL     1      11.050  -6.246  10.819  1.00  0.00     0.054 A 
ATOM     10  C   UNL     1      11.467  -8.950  10.602  1.00  0.00     0.051 A 
ATOM     11  C   UNL     1      12.314  -6.764  11.027  1.00  0.00     0.166 A 
ATOM     12  C   UNL     1      12.527  -8.117  10.920  1.00  0.00     0.165 A 
ATOM     13  O   UNL     1      13.515  -6.156  11.350  1.00  0.00    -0.454 OA
ATOM     14  O   UNL     1      13.881  -8.334  11.181  1.00  0.00    -0.454 OA
ATOM     15  C   UNL     1      14.441  -7.175  11.755  1.00  0.00     0.468 C 
ENDBRANCH   6   7
ENDBRANCH   1   6
TORSDOF 4
ENDMDL
MODEL 3
REMARK VINA RESULT:      -4.0      1.813      5.645
REMARK SMILES O=C(O)CCc1ccc2c(c1)OCO2
REMARK SMILES IDX 4 1 2 2 1 3 3 4 5 6 6 7 7 8 11 9 8 10 10 11 9 12 12 13 14 14
REMARK SMILES IDX 13 15
REMARK H PARENT 3 5
REMARK Flexibility Score: inf
ROOT
ATOM      1  C   UNL     1       8.144  -5.916  11.486  1.00  0.00     0.127 C 
ENDROOT
BRANCH   1   2
ATOM      2  C   UNL     1       7.981  -4.471  11.441  1.00  0.00     0.303 C 
ATOM      3  O   UNL     1       8.202  -3.695  12.372  1.00  0.00    -0.252 OA
BRANCH   2   4
ATOM      4  O   UNL     1       7.534  -3.911  10.234  1.00  0.00    -0.481 OA
ATOM      5  H   UNL     1       6.692  -4.306   9.845  1.00  0.00     0.296 HD
ENDBRANCH   2   4
ENDBRANCH   1   2
BRANCH   1   6
ATOM      6  C   UNL     1       8.793  -6.485  10.286  1.00  0.00     0.047 C 
BRANCH   6   7
ATOM      7  C   UNL     1      10.096  -7.131  10.463  1.00  0.00    -0.043 A 
ATOM      8  C   UNL     1      11.256  -6.389  10.628  1.00  0.00     0.008 A 
ATOM      9  C   UNL     1      10.211  -8.495  10.432  1.00  0.00     0.054 A 
ATOM     10  C   UNL     1      12.486  -6.994  10.758  1.00  0.00     0.051 A 
ATOM     11  C   UNL     1      11.435  -9.124  10.562  1.00  0.00     0.166 A 
ATOM     12  C   UNL     1      12.576  -8.377  10.725  1.00  0.00     0.165 A 
ATOM     13  O   UNL     1      11.784 -10.463  10.561  1.00  0.00    -0.454 OA
ATOM     14  O   UNL     1      13.637  -9.278  10.825  1.00  0.00    -0.454 OA
ATOM     15  C   UNL     1      13.209 -10.556  10.414  1.00  0.00     0.468 C 
ENDBRANCH   6   7
ENDBRANCH   1   6
TORSDOF 4
ENDMDL
MODEL 4
REMARK VINA RESULT:      -3.8      1.252      5.679
REMARK SMILES O=C(O)CCc1ccc2c(c1)OCO2
REMARK SMILES IDX 4 1 2 2 1 3 3 4 5 6 6 7 7 8 11 9 8 10 10 11 9 12 12 13 14 14
REMARK SMILES IDX 13 15
REMARK H PARENT 3 5
REMARK Flexibility Score: inf
ROOT
ATOM      1  C   UNL     1       9.398  -5.818  11.878  1.00  0.00     0.127 C 
ENDROOT
BRANCH   1   2
ATOM      2  C   UNL     1       8.393  -5.414  10.907  1.00  0.00     0.303 C 
ATOM      3  O   UNL     1       8.011  -6.087   9.948  1.00  0.00    -0.252 OA
BRANCH   2   4
ATOM      4  O   UNL     1       7.807  -4.149  11.075  1.00  0.00    -0.481 OA
ATOM      5  H   UNL     1       7.730  -3.816  12.024  1.00  0.00     0.296 HD
ENDBRANCH   2   4
ENDBRANCH   1   2
BRANCH   1   6
ATOM      6  C   UNL     1      10.776  -5.836  11.344  1.00  0.00     0.047 C 
BRANCH   6   7
ATOM      7  C   UNL     1      11.313  -7.123  10.897  1.00  0.00    -0.043 A 
ATOM      8  C   UNL     1      10.598  -8.301  11.056  1.00  0.00     0.008 A 
ATOM      9  C   UNL     1      12.561  -7.206  10.341  1.00  0.00     0.054 A 
ATOM     10  C   UNL     1      11.117  -9.516  10.669  1.00  0.00     0.051 A 
ATOM     11  C   UNL     1      13.102  -8.415   9.945  1.00  0.00     0.166 A 
ATOM     12  C   UNL     1      12.382  -9.574  10.107  1.00  0.00     0.165 A 
ATOM     13  O   UNL     1      14.320  -8.733   9.370  1.00  0.00    -0.454 OA
ATOM     14  O   UNL     1      13.177 -10.614   9.623  1.00  0.00    -0.454 OA
ATOM     15  C   UNL     1      14.498 -10.155   9.452  1.00  0.00     0.468 C 
ENDBRANCH   6   7
ENDBRANCH   1   6
TORSDOF 4
ENDMDL
MODEL 5
REMARK VINA RESULT:      -3.8      2.404      2.849
REMARK SMILES O=C(O)CCc1ccc2c(c1)OCO2
REMARK SMILES IDX 4 1 2 2 1 3 3 4 5 6 6 7 7 8 11 9 8 10 10 11 9 12 12 13 14 14
REMARK SMILES IDX 13 15
REMARK H PARENT 3 5
REMARK Flexibility Score: inf
ROOT
ATOM      1  C   UNL     1      12.079 -10.301  11.268  1.00  0.00     0.127 C 
ENDROOT
BRANCH   1   2
ATOM      2  C   UNL     1      10.844 -11.022  11.531  1.00  0.00     0.303 C 
ATOM      3  O   UNL     1      10.057 -10.785  12.449  1.00  0.00    -0.252 OA
BRANCH   2   4
ATOM      4  O   UNL     1      10.518 -12.079  10.666  1.00  0.00    -0.481 OA
ATOM      5  H   UNL     1       9.557 -12.127  10.364  1.00  0.00     0.296 HD
ENDBRANCH   2   4
ENDBRANCH   1   2
BRANCH   1   6
ATOM      6  C   UNL     1      11.951  -9.245  10.240  1.00  0.00     0.047 C 
BRANCH   6   7
ATOM      7  C   UNL     1      11.302  -7.993  10.634  1.00  0.00    -0.043 A 
ATOM      8  C   UNL     1      11.908  -7.107  11.512  1.00  0.00     0.008 A 
ATOM      9  C   UNL     1      10.052  -7.677  10.172  1.00  0.00     0.054 A 
ATOM     10  C   UNL     1      11.284  -5.947  11.911  1.00  0.00     0.051 A 
ATOM     11  C   UNL     1       9.406  -6.517  10.559  1.00  0.00     0.166 A 
ATOM     12  C   UNL     1      10.020  -5.648  11.429  1.00  0.00     0.165 A 
ATOM     13  O   UNL     1       8.166  -6.002  10.226  1.00  0.00    -0.454 OA
ATOM     14  O   UNL     1       9.136  -4.587  11.628  1.00  0.00    -0.454 OA
ATOM     15  C   UNL     1       7.861  -4.938  11.141  1.00  0.00     0.468 C 
ENDBRANCH   6   7
ENDBRANCH   1   6
TORSDOF 4
ENDMDL
