@<TRIPOS>MOLECULE
/home/cewinharhar/GITHUB/reincatalyze/data/processed/docking_pred/2023-May-17-1006_maxeplen10_maxtrainstep1000_seadep16_gamma099_lrac9e-4_lrcr1e-3_sub6/939bd1e5684a89eea32cbd4f4170b12915347732_ligand_6.pdbqt
 15 16 0 0 0
SMALL
GASTEIGER

@<TRIPOS>ATOM
      1  C          4.7170    1.8960    0.7780 C.3     1  UNL1        0.1270
      2  C          4.3510    1.1400    1.9660 C.2     1  UNL1        0.3030
      3  O          5.0250    0.2480    2.4840 O.2     1  UNL1       -0.2520
      4  O          3.1260    1.4520    2.5760 O.3     1  UNL1       -0.4810
      5  H          2.4250    0.7270    2.5630 H       1  UNL1        0.2960
      6  C          6.1540    2.2360    0.7020 C.3     1  UNL1        0.0470
      7  C          7.0200    1.3490   -0.0780 C.2     1  UNL1       -0.0430
      8  C          8.3920    1.5390   -0.1320 C.2     1  UNL1        0.0080
      9  C          6.4900    0.3210   -0.8120 C.2     1  UNL1        0.0540
     10  C          9.2030    0.7280   -0.8940 C.2     1  UNL1        0.0510
     11  C          7.2850   -0.5060   -1.5830 C.2     1  UNL1        0.1660
     12  C          8.6430   -0.3060   -1.6270 C.2     1  UNL1        0.1650
     13  O          6.9750   -1.5860   -2.3910 O.2     1  UNL1       -0.4540
     14  O          9.1670   -1.2820   -2.4760 O.2     1  UNL1       -0.4540
     15  C          8.1210   -1.8850   -3.2010 C.3     1  UNL1        0.4680
@<TRIPOS>BOND
     1    15    14    1
     2    15    13    1
     3    14    12    1
     4    13    11    1
     5    12    11    2
     6    12    10    1
     7    11     9    1
     8    10     8    2
     9     9     7    2
    10     8     7    1
    11     7     6    1
    12     6     1    1
    13     1     2    1
    14     2     3    2
    15     2     4    1
    16     5     4    1
