@<TRIPOS>MOLECULE
/home/cewinharhar/GITHUB/reincatalyze/data/processed/docking_pred/2023-May-17-1006_maxeplen10_maxtrainstep1000_seadep16_gamma099_lrac9e-4_lrcr1e-3_sub6/939bd1e5684a89eea32cbd4f4170b12915347732_ligand_6.pdbqt
 15 16 0 0 0
SMALL
GASTEIGER

@<TRIPOS>ATOM
      1  C          6.4050    1.3210    0.6630 C.3     1  UNL1        0.1270
      2  C          5.1860    1.3310    1.4570 C.2     1  UNL1        0.3030
      3  O          4.2570    2.1310    1.3350 O.2     1  UNL1       -0.2520
      4  O          5.0540    0.3450    2.4480 O.3     1  UNL1       -0.4810
      5  H          5.8950   -0.1540    2.6940 H       1  UNL1        0.2960
      6  C          6.2100    0.8600   -0.7290 C.3     1  UNL1        0.0470
      7  C          6.9670   -0.3150   -1.1650 C.2     1  UNL1       -0.0430
      8  C          7.2550   -0.5360   -2.5030 C.2     1  UNL1        0.0080
      9  C          7.3800   -1.2570   -0.2600 C.2     1  UNL1        0.0540
     10  C          7.9350   -1.6590   -2.9180 C.2     1  UNL1        0.0510
     11  C          8.0640   -2.3920   -0.6540 C.2     1  UNL1        0.1660
     12  C          8.3440   -2.5970   -1.9830 C.2     1  UNL1        0.1650
     13  O          8.5690   -3.4580    0.0700 O.2     1  UNL1       -0.4540
     14  O          9.0320   -3.8090   -2.0680 O.2     1  UNL1       -0.4540
     15  C          8.9070   -4.5060   -0.8500 C.3     1  UNL1        0.4680
@<TRIPOS>BOND
     1    10     8    1
     2    10    12    2
     3     8     7    2
     4    14    12    1
     5    14    15    1
     6    12    11    1
     7     7     6    1
     8     7     9    1
     9    15    13    1
    10     6     1    1
    11    11     9    2
    12    11    13    1
    13     1     2    1
    14     3     2    2
    15     2     4    1
    16     4     5    1
