@<TRIPOS>MOLECULE
/home/cewinharhar/GITHUB/reincatalyze/data/processed/docking_pred/2023-May-17-1006_maxeplen10_maxtrainstep1000_seadep16_gamma099_lrac9e-4_lrcr1e-3_sub6/939bd1e5684a89eea32cbd4f4170b12915347732_ligand_6.pdbqt
 15 16 0 0 0
SMALL
GASTEIGER

@<TRIPOS>ATOM
      1  C          5.2980    2.7160    0.0940 C.3     1  UNL1        0.1270
      2  C          6.0900    3.7730    0.7030 C.2     1  UNL1        0.3030
      3  O          6.7400    4.6240    0.0940 O.2     1  UNL1       -0.2520
      4  O          6.1180    3.8290    2.1060 O.3     1  UNL1       -0.4810
      5  H          5.3600    4.3270    2.5460 H       1  UNL1        0.2960
      6  C          5.3430    1.4330    0.8270 C.3     1  UNL1        0.0470
      7  C          6.1340    0.3470    0.2440 C.2     1  UNL1       -0.0430
      8  C          6.6120   -0.6980    1.0190 C.2     1  UNL1        0.0080
      9  C          6.4600    0.3540   -1.0870 C.2     1  UNL1        0.0540
     10  C          7.3870   -1.7010    0.4790 C.2     1  UNL1        0.0510
     11  C          7.2350   -0.6410   -1.6500 C.2     1  UNL1        0.1660
     12  C          7.7010   -1.6720   -0.8700 C.2     1  UNL1        0.1650
     13  O          7.6810   -0.8360   -2.9460 O.2     1  UNL1       -0.4540
     14  O          8.4430   -2.5070   -1.7070 O.2     1  UNL1       -0.4540
     15  C          8.7020   -1.8450   -2.9230 C.3     1  UNL1        0.4680
@<TRIPOS>BOND
     1    13    15    1
     2    13    11    1
     3    15    14    1
     4    14    12    1
     5    11     9    1
     6    11    12    2
     7     9     7    2
     8    12    10    1
     9     1     2    1
    10     1     6    1
    11     3     2    2
    12     7     6    1
    13     7     8    1
    14    10     8    2
    15     2     4    1
    16     4     5    1
