MODEL 1
REMARK VINA RESULT:      -7.7      0.000      0.000
REMARK SMILES O=C(O)CCc1ccc2c(c1)OCO2
REMARK SMILES IDX 4 1 2 2 1 3 3 4 5 6 6 7 7 8 11 9 8 10 10 11 9 12 12 13 14 14
REMARK SMILES IDX 13 15
REMARK H PARENT 3 5
REMARK Flexibility Score: inf
ROOT
ATOM      1  C   UNL     1       8.162  -0.532  -2.185  1.00  0.00     0.127 C 
ENDROOT
BRANCH   1   2
ATOM      2  C   UNL     1       8.398  -1.781  -2.892  1.00  0.00     0.303 C 
ATOM      3  O   UNL     1       9.492  -2.330  -3.032  1.00  0.00    -0.252 OA
BRANCH   2   4
ATOM      4  O   UNL     1       7.285  -2.417  -3.465  1.00  0.00    -0.481 OA
ATOM      5  H   UNL     1       6.577  -2.738  -2.824  1.00  0.00     0.296 HD
ENDBRANCH   2   4
ENDBRANCH   1   2
BRANCH   1   6
ATOM      6  C   UNL     1       6.896  -0.505  -1.421  1.00  0.00     0.047 C 
BRANCH   6   7
ATOM      7  C   UNL     1       6.638   0.665  -0.579  1.00  0.00    -0.043 A 
ATOM      8  C   UNL     1       5.496   1.434  -0.736  1.00  0.00     0.008 A 
ATOM      9  C   UNL     1       7.545   1.058   0.370  1.00  0.00     0.054 A 
ATOM     10  C   UNL     1       5.269   2.555   0.030  1.00  0.00     0.051 A 
ATOM     11  C   UNL     1       7.338   2.179   1.152  1.00  0.00     0.166 A 
ATOM     12  C   UNL     1       6.200   2.932   0.985  1.00  0.00     0.165 A 
ATOM     13  O   UNL     1       8.101   2.755   2.153  1.00  0.00    -0.454 OA
ATOM     14  O   UNL     1       6.274   3.982   1.901  1.00  0.00    -0.454 OA
ATOM     15  C   UNL     1       7.584   4.068   2.414  1.00  0.00     0.468 C 
ENDBRANCH   6   7
ENDBRANCH   1   6
TORSDOF 4
ENDMDL
MODEL 2
REMARK VINA RESULT:      -7.5      1.923      5.650
REMARK SMILES O=C(O)CCc1ccc2c(c1)OCO2
REMARK SMILES IDX 4 1 2 2 1 3 3 4 5 6 6 7 7 8 11 9 8 10 10 11 9 12 12 13 14 14
REMARK SMILES IDX 13 15
REMARK H PARENT 3 5
REMARK Flexibility Score: inf
ROOT
ATOM      1  C   UNL     1       4.717   1.896   0.778  1.00  0.00     0.127 C 
ENDROOT
BRANCH   1   2
ATOM      2  C   UNL     1       4.351   1.140   1.966  1.00  0.00     0.303 C 
ATOM      3  O   UNL     1       5.025   0.248   2.484  1.00  0.00    -0.252 OA
BRANCH   2   4
ATOM      4  O   UNL     1       3.126   1.452   2.576  1.00  0.00    -0.481 OA
ATOM      5  H   UNL     1       2.425   0.727   2.563  1.00  0.00     0.296 HD
ENDBRANCH   2   4
ENDBRANCH   1   2
BRANCH   1   6
ATOM      6  C   UNL     1       6.154   2.236   0.702  1.00  0.00     0.047 C 
BRANCH   6   7
ATOM      7  C   UNL     1       7.020   1.349  -0.078  1.00  0.00    -0.043 A 
ATOM      8  C   UNL     1       8.392   1.539  -0.132  1.00  0.00     0.008 A 
ATOM      9  C   UNL     1       6.490   0.321  -0.812  1.00  0.00     0.054 A 
ATOM     10  C   UNL     1       9.203   0.728  -0.894  1.00  0.00     0.051 A 
ATOM     11  C   UNL     1       7.285  -0.506  -1.583  1.00  0.00     0.166 A 
ATOM     12  C   UNL     1       8.643  -0.306  -1.627  1.00  0.00     0.165 A 
ATOM     13  O   UNL     1       6.975  -1.586  -2.391  1.00  0.00    -0.454 OA
ATOM     14  O   UNL     1       9.167  -1.282  -2.476  1.00  0.00    -0.454 OA
ATOM     15  C   UNL     1       8.121  -1.885  -3.201  1.00  0.00     0.468 C 
ENDBRANCH   6   7
ENDBRANCH   1   6
TORSDOF 4
ENDMDL
MODEL 3
REMARK VINA RESULT:      -7.3      2.012      2.097
REMARK SMILES O=C(O)CCc1ccc2c(c1)OCO2
REMARK SMILES IDX 4 1 2 2 1 3 3 4 5 6 6 7 7 8 11 9 8 10 10 11 9 12 12 13 14 14
REMARK SMILES IDX 13 15
REMARK H PARENT 3 5
REMARK Flexibility Score: inf
ROOT
ATOM      1  C   UNL     1       8.167  -1.240  -0.113  1.00  0.00     0.127 C 
ENDROOT
BRANCH   1   2
ATOM      2  C   UNL     1       7.987  -2.450   0.673  1.00  0.00     0.303 C 
ATOM      3  O   UNL     1       8.774  -3.398   0.721  1.00  0.00    -0.252 OA
BRANCH   2   4
ATOM      4  O   UNL     1       6.819  -2.550   1.445  1.00  0.00    -0.481 OA
ATOM      5  H   UNL     1       6.172  -3.277   1.181  1.00  0.00     0.296 HD
ENDBRANCH   2   4
ENDBRANCH   1   2
BRANCH   1   6
ATOM      6  C   UNL     1       6.901  -0.612  -0.547  1.00  0.00     0.047 C 
BRANCH   6   7
ATOM      7  C   UNL     1       6.576   0.706   0.001  1.00  0.00    -0.043 A 
ATOM      8  C   UNL     1       5.486   1.432  -0.455  1.00  0.00     0.008 A 
ATOM      9  C   UNL     1       7.369   1.281   0.959  1.00  0.00     0.054 A 
ATOM     10  C   UNL     1       5.201   2.688   0.033  1.00  0.00     0.051 A 
ATOM     11  C   UNL     1       7.101   2.540   1.464  1.00  0.00     0.166 A 
ATOM     12  C   UNL     1       6.017   3.247   1.003  1.00  0.00     0.165 A 
ATOM     13  O   UNL     1       7.750   3.304   2.417  1.00  0.00    -0.454 OA
ATOM     14  O   UNL     1       6.008   4.462   1.689  1.00  0.00    -0.454 OA
ATOM     15  C   UNL     1       7.245   4.646   2.338  1.00  0.00     0.468 C 
ENDBRANCH   6   7
ENDBRANCH   1   6
TORSDOF 4
ENDMDL
MODEL 4
REMARK VINA RESULT:      -7.2      1.412      5.758
REMARK SMILES O=C(O)CCc1ccc2c(c1)OCO2
REMARK SMILES IDX 4 1 2 2 1 3 3 4 5 6 6 7 7 8 11 9 8 10 10 11 9 12 12 13 14 14
REMARK SMILES IDX 13 15
REMARK H PARENT 3 5
REMARK Flexibility Score: inf
ROOT
ATOM      1  C   UNL     1       5.298   2.716   0.094  1.00  0.00     0.127 C 
ENDROOT
BRANCH   1   2
ATOM      2  C   UNL     1       6.090   3.773   0.703  1.00  0.00     0.303 C 
ATOM      3  O   UNL     1       6.740   4.624   0.094  1.00  0.00    -0.252 OA
BRANCH   2   4
ATOM      4  O   UNL     1       6.118   3.829   2.106  1.00  0.00    -0.481 OA
ATOM      5  H   UNL     1       5.360   4.327   2.546  1.00  0.00     0.296 HD
ENDBRANCH   2   4
ENDBRANCH   1   2
BRANCH   1   6
ATOM      6  C   UNL     1       5.343   1.433   0.827  1.00  0.00     0.047 C 
BRANCH   6   7
ATOM      7  C   UNL     1       6.134   0.347   0.244  1.00  0.00    -0.043 A 
ATOM      8  C   UNL     1       6.612  -0.698   1.019  1.00  0.00     0.008 A 
ATOM      9  C   UNL     1       6.460   0.354  -1.087  1.00  0.00     0.054 A 
ATOM     10  C   UNL     1       7.387  -1.701   0.479  1.00  0.00     0.051 A 
ATOM     11  C   UNL     1       7.235  -0.641  -1.650  1.00  0.00     0.166 A 
ATOM     12  C   UNL     1       7.701  -1.672  -0.870  1.00  0.00     0.165 A 
ATOM     13  O   UNL     1       7.681  -0.836  -2.946  1.00  0.00    -0.454 OA
ATOM     14  O   UNL     1       8.443  -2.507  -1.707  1.00  0.00    -0.454 OA
ATOM     15  C   UNL     1       8.702  -1.845  -2.923  1.00  0.00     0.468 C 
ENDBRANCH   6   7
ENDBRANCH   1   6
TORSDOF 4
ENDMDL
MODEL 5
REMARK VINA RESULT:      -7.2      2.161      5.994
REMARK SMILES O=C(O)CCc1ccc2c(c1)OCO2
REMARK SMILES IDX 4 1 2 2 1 3 3 4 5 6 6 7 7 8 11 9 8 10 10 11 9 12 12 13 14 14
REMARK SMILES IDX 13 15
REMARK H PARENT 3 5
REMARK Flexibility Score: inf
ROOT
ATOM      1  C   UNL     1       6.405   1.321   0.663  1.00  0.00     0.127 C 
ENDROOT
BRANCH   1   2
ATOM      2  C   UNL     1       5.186   1.331   1.457  1.00  0.00     0.303 C 
ATOM      3  O   UNL     1       4.257   2.131   1.335  1.00  0.00    -0.252 OA
BRANCH   2   4
ATOM      4  O   UNL     1       5.054   0.345   2.448  1.00  0.00    -0.481 OA
ATOM      5  H   UNL     1       5.895  -0.154   2.694  1.00  0.00     0.296 HD
ENDBRANCH   2   4
ENDBRANCH   1   2
BRANCH   1   6
ATOM      6  C   UNL     1       6.210   0.860  -0.729  1.00  0.00     0.047 C 
BRANCH   6   7
ATOM      7  C   UNL     1       6.967  -0.315  -1.165  1.00  0.00    -0.043 A 
ATOM      8  C   UNL     1       7.255  -0.536  -2.503  1.00  0.00     0.008 A 
ATOM      9  C   UNL     1       7.380  -1.257  -0.260  1.00  0.00     0.054 A 
ATOM     10  C   UNL     1       7.935  -1.659  -2.918  1.00  0.00     0.051 A 
ATOM     11  C   UNL     1       8.064  -2.392  -0.654  1.00  0.00     0.166 A 
ATOM     12  C   UNL     1       8.344  -2.597  -1.983  1.00  0.00     0.165 A 
ATOM     13  O   UNL     1       8.569  -3.458   0.070  1.00  0.00    -0.454 OA
ATOM     14  O   UNL     1       9.032  -3.809  -2.068  1.00  0.00    -0.454 OA
ATOM     15  C   UNL     1       8.907  -4.506  -0.850  1.00  0.00     0.468 C 
ENDBRANCH   6   7
ENDBRANCH   1   6
TORSDOF 4
ENDMDL
