@<TRIPOS>MOLECULE
/home/cewinharhar/GITHUB/reincatalyze/data/processed/docking_pred/2023-May-17-1006_maxeplen10_maxtrainstep1000_seadep16_gamma099_lrac9e-4_lrcr1e-3_sub6/939bd1e5684a89eea32cbd4f4170b12915347732_ligand_6.pdbqt
 15 16 0 0 0
SMALL
GASTEIGER

@<TRIPOS>ATOM
      1  C          8.1670   -1.2400   -0.1130 C.3     1  UNL1        0.1270
      2  C          7.9870   -2.4500    0.6730 C.2     1  UNL1        0.3030
      3  O          8.7740   -3.3980    0.7210 O.2     1  UNL1       -0.2520
      4  O          6.8190   -2.5500    1.4450 O.3     1  UNL1       -0.4810
      5  H          6.1720   -3.2770    1.1810 H       1  UNL1        0.2960
      6  C          6.9010   -0.6120   -0.5470 C.3     1  UNL1        0.0470
      7  C          6.5760    0.7060    0.0010 C.2     1  UNL1       -0.0430
      8  C          5.4860    1.4320   -0.4550 C.2     1  UNL1        0.0080
      9  C          7.3690    1.2810    0.9590 C.2     1  UNL1        0.0540
     10  C          5.2010    2.6880    0.0330 C.2     1  UNL1        0.0510
     11  C          7.1010    2.5400    1.4640 C.2     1  UNL1        0.1660
     12  C          6.0170    3.2470    1.0030 C.2     1  UNL1        0.1650
     13  O          7.7500    3.3040    2.4170 O.2     1  UNL1       -0.4540
     14  O          6.0080    4.4620    1.6890 O.2     1  UNL1       -0.4540
     15  C          7.2450    4.6460    2.3380 C.3     1  UNL1        0.4680
@<TRIPOS>BOND
     1     6     1    1
     2     6     7    1
     3     8     7    2
     4     8    10    1
     5     1     2    1
     6     7     9    1
     7    10    12    2
     8     2     3    2
     9     2     4    1
    10     9    11    2
    11    12    11    1
    12    12    14    1
    13     5     4    1
    14    11    13    1
    15    14    15    1
    16    15    13    1
