@<TRIPOS>MOLECULE
/home/cewinharhar/GITHUB/reincatalyze/data/processed/docking_pred/2023-May-17-1006_maxeplen10_maxtrainstep1000_seadep16_gamma099_lrac9e-4_lrcr1e-3_sub6/939bd1e5684a89eea32cbd4f4170b12915347732_ligand_6.pdbqt
 15 16 0 0 0
SMALL
GASTEIGER

@<TRIPOS>ATOM
      1  C          8.1620   -0.5320   -2.1850 C.3     1  UNL1        0.1270
      2  C          8.3980   -1.7810   -2.8920 C.2     1  UNL1        0.3030
      3  O          9.4920   -2.3300   -3.0320 O.2     1  UNL1       -0.2520
      4  O          7.2850   -2.4170   -3.4650 O.3     1  UNL1       -0.4810
      5  H          6.5770   -2.7380   -2.8240 H       1  UNL1        0.2960
      6  C          6.8960   -0.5050   -1.4210 C.3     1  UNL1        0.0470
      7  C          6.6380    0.6650   -0.5790 C.2     1  UNL1       -0.0430
      8  C          5.4960    1.4340   -0.7360 C.2     1  UNL1        0.0080
      9  C          7.5450    1.0580    0.3700 C.2     1  UNL1        0.0540
     10  C          5.2690    2.5550    0.0300 C.2     1  UNL1        0.0510
     11  C          7.3380    2.1790    1.1520 C.2     1  UNL1        0.1660
     12  C          6.2000    2.9320    0.9850 C.2     1  UNL1        0.1650
     13  O          8.1010    2.7550    2.1530 O.2     1  UNL1       -0.4540
     14  O          6.2740    3.9820    1.9010 O.2     1  UNL1       -0.4540
     15  C          7.5840    4.0680    2.4140 C.3     1  UNL1        0.4680
@<TRIPOS>BOND
     1     4     2    1
     2     4     5    1
     3     3     2    2
     4     2     1    1
     5     1     6    1
     6     6     7    1
     7     8     7    2
     8     8    10    1
     9     7     9    1
    10    10    12    2
    11     9    11    2
    12    12    11    1
    13    12    14    1
    14    11    13    1
    15    14    15    1
    16    13    15    1
