MODEL 1
REMARK VINA RESULT:      -7.7      0.000      0.000
REMARK SMILES O=C(O)CCc1ccc2c(c1)OCO2
REMARK SMILES IDX 4 1 2 2 1 3 3 4 5 6 6 7 7 8 11 9 8 10 10 11 9 12 12 13 14 14
REMARK SMILES IDX 13 15
REMARK H PARENT 3 5
REMARK Flexibility Score: inf
ROOT
ATOM      1  C   UNL     1       5.389   2.881   0.104  1.00  0.00     0.127 C 
ENDROOT
BRANCH   1   2
ATOM      2  C   UNL     1       6.220   3.846   0.806  1.00  0.00     0.303 C 
ATOM      3  O   UNL     1       6.838   4.775   0.283  1.00  0.00    -0.252 OA
BRANCH   2   4
ATOM      4  O   UNL     1       6.329   3.709   2.199  1.00  0.00    -0.481 OA
ATOM      5  H   UNL     1       5.790   2.967   2.617  1.00  0.00     0.296 HD
ENDBRANCH   2   4
ENDBRANCH   1   2
BRANCH   1   6
ATOM      6  C   UNL     1       5.298   1.566   0.774  1.00  0.00     0.047 C 
BRANCH   6   7
ATOM      7  C   UNL     1       6.089   0.466   0.219  1.00  0.00    -0.043 A 
ATOM      8  C   UNL     1       6.542  -0.575   1.014  1.00  0.00     0.008 A 
ATOM      9  C   UNL     1       6.439   0.454  -1.106  1.00  0.00     0.054 A 
ATOM     10  C   UNL     1       7.316  -1.591   0.500  1.00  0.00     0.051 A 
ATOM     11  C   UNL     1       7.215  -0.555  -1.643  1.00  0.00     0.166 A 
ATOM     12  C   UNL     1       7.656  -1.581  -0.843  1.00  0.00     0.165 A 
ATOM     13  O   UNL     1       7.681  -0.770  -2.928  1.00  0.00    -0.454 OA
ATOM     14  O   UNL     1       8.404  -2.434  -1.656  1.00  0.00    -0.454 OA
ATOM     15  C   UNL     1       8.692  -1.788  -2.875  1.00  0.00     0.468 C 
ENDBRANCH   6   7
ENDBRANCH   1   6
TORSDOF 4
ENDMDL
MODEL 2
REMARK VINA RESULT:      -7.6      2.109      2.515
REMARK SMILES O=C(O)CCc1ccc2c(c1)OCO2
REMARK SMILES IDX 4 1 2 2 1 3 3 4 5 6 6 7 7 8 11 9 8 10 10 11 9 12 12 13 14 14
REMARK SMILES IDX 13 15
REMARK H PARENT 3 5
REMARK Flexibility Score: inf
ROOT
ATOM      1  C   UNL     1       4.676   1.850   0.674  1.00  0.00     0.127 C 
ENDROOT
BRANCH   1   2
ATOM      2  C   UNL     1       4.390   1.163   1.924  1.00  0.00     0.303 C 
ATOM      3  O   UNL     1       5.131   0.354   2.484  1.00  0.00    -0.252 OA
BRANCH   2   4
ATOM      4  O   UNL     1       3.164   1.446   2.549  1.00  0.00    -0.481 OA
ATOM      5  H   UNL     1       2.444   0.746   2.453  1.00  0.00     0.296 HD
ENDBRANCH   2   4
ENDBRANCH   1   2
BRANCH   1   6
ATOM      6  C   UNL     1       6.093   2.240   0.515  1.00  0.00     0.047 C 
BRANCH   6   7
ATOM      7  C   UNL     1       6.962   1.339  -0.245  1.00  0.00    -0.043 A 
ATOM      8  C   UNL     1       8.320   1.582  -0.376  1.00  0.00     0.008 A 
ATOM      9  C   UNL     1       6.446   0.243  -0.884  1.00  0.00     0.054 A 
ATOM     10  C   UNL     1       9.133   0.756  -1.120  1.00  0.00     0.051 A 
ATOM     11  C   UNL     1       7.242  -0.601  -1.636  1.00  0.00     0.166 A 
ATOM     12  C   UNL     1       8.587  -0.348  -1.756  1.00  0.00     0.165 A 
ATOM     13  O   UNL     1       6.945  -1.745  -2.355  1.00  0.00    -0.454 OA
ATOM     14  O   UNL     1       9.116  -1.356  -2.563  1.00  0.00    -0.454 OA
ATOM     15  C   UNL     1       8.067  -2.050  -3.197  1.00  0.00     0.468 C 
ENDBRANCH   6   7
ENDBRANCH   1   6
TORSDOF 4
ENDMDL
MODEL 3
REMARK VINA RESULT:      -7.4      1.959      2.868
REMARK SMILES O=C(O)CCc1ccc2c(c1)OCO2
REMARK SMILES IDX 4 1 2 2 1 3 3 4 5 6 6 7 7 8 11 9 8 10 10 11 9 12 12 13 14 14
REMARK SMILES IDX 13 15
REMARK H PARENT 3 5
REMARK Flexibility Score: inf
ROOT
ATOM      1  C   UNL     1       6.363   1.346   0.587  1.00  0.00     0.127 C 
ENDROOT
BRANCH   1   2
ATOM      2  C   UNL     1       5.193   1.288   1.449  1.00  0.00     0.303 C 
ATOM      3  O   UNL     1       4.238   2.067   1.416  1.00  0.00    -0.252 OA
BRANCH   2   4
ATOM      4  O   UNL     1       5.145   0.259   2.403  1.00  0.00    -0.481 OA
ATOM      5  H   UNL     1       5.916  -0.391   2.395  1.00  0.00     0.296 HD
ENDBRANCH   2   4
ENDBRANCH   1   2
BRANCH   1   6
ATOM      6  C   UNL     1       6.127   0.830  -0.779  1.00  0.00     0.047 C 
BRANCH   6   7
ATOM      7  C   UNL     1       6.923  -0.320  -1.215  1.00  0.00    -0.043 A 
ATOM      8  C   UNL     1       7.266  -0.500  -2.546  1.00  0.00     0.008 A 
ATOM      9  C   UNL     1       7.320  -1.277  -0.319  1.00  0.00     0.054 A 
ATOM     10  C   UNL     1       7.983  -1.600  -2.963  1.00  0.00     0.051 A 
ATOM     11  C   UNL     1       8.040  -2.388  -0.714  1.00  0.00     0.166 A 
ATOM     12  C   UNL     1       8.375  -2.553  -2.037  1.00  0.00     0.165 A 
ATOM     13  O   UNL     1       8.539  -3.462   0.001  1.00  0.00    -0.454 OA
ATOM     14  O   UNL     1       9.089  -3.749  -2.125  1.00  0.00    -0.454 OA
ATOM     15  C   UNL     1       8.932  -4.480  -0.931  1.00  0.00     0.468 C 
ENDBRANCH   6   7
ENDBRANCH   1   6
TORSDOF 4
ENDMDL
MODEL 4
REMARK VINA RESULT:      -7.4      1.789      5.283
REMARK SMILES O=C(O)CCc1ccc2c(c1)OCO2
REMARK SMILES IDX 4 1 2 2 1 3 3 4 5 6 6 7 7 8 11 9 8 10 10 11 9 12 12 13 14 14
REMARK SMILES IDX 13 15
REMARK H PARENT 3 5
REMARK Flexibility Score: inf
ROOT
ATOM      1  C   UNL     1       8.306  -0.320  -2.865  1.00  0.00     0.127 C 
ENDROOT
BRANCH   1   2
ATOM      2  C   UNL     1       8.469  -1.749  -3.079  1.00  0.00     0.303 C 
ATOM      3  O   UNL     1       9.537  -2.364  -3.039  1.00  0.00    -0.252 OA
BRANCH   2   4
ATOM      4  O   UNL     1       7.312  -2.496  -3.354  1.00  0.00    -0.481 OA
ATOM      5  H   UNL     1       6.671  -2.093  -4.019  1.00  0.00     0.296 HD
ENDBRANCH   2   4
ENDBRANCH   1   2
BRANCH   1   6
ATOM      6  C   UNL     1       8.761   0.144  -1.537  1.00  0.00     0.047 C 
BRANCH   6   7
ATOM      7  C   UNL     1       7.794   0.102  -0.438  1.00  0.00    -0.043 A 
ATOM      8  C   UNL     1       7.745  -0.967   0.444  1.00  0.00     0.008 A 
ATOM      9  C   UNL     1       6.878   1.107  -0.272  1.00  0.00     0.054 A 
ATOM     10  C   UNL     1       6.813  -1.025   1.456  1.00  0.00     0.051 A 
ATOM     11  C   UNL     1       5.934   1.070   0.737  1.00  0.00     0.166 A 
ATOM     12  C   UNL     1       5.898   0.005   1.604  1.00  0.00     0.165 A 
ATOM     13  O   UNL     1       4.930   1.955   1.088  1.00  0.00    -0.454 OA
ATOM     14  O   UNL     1       4.854   0.248   2.498  1.00  0.00    -0.454 OA
ATOM     15  C   UNL     1       4.046   1.292   2.005  1.00  0.00     0.468 C 
ENDBRANCH   6   7
ENDBRANCH   1   6
TORSDOF 4
ENDMDL
MODEL 5
REMARK VINA RESULT:      -7.3      1.100      2.174
REMARK SMILES O=C(O)CCc1ccc2c(c1)OCO2
REMARK SMILES IDX 4 1 2 2 1 3 3 4 5 6 6 7 7 8 11 9 8 10 10 11 9 12 12 13 14 14
REMARK SMILES IDX 13 15
REMARK H PARENT 3 5
REMARK Flexibility Score: inf
ROOT
ATOM      1  C   UNL     1       5.822   2.551   0.422  1.00  0.00     0.127 C 
ENDROOT
BRANCH   1   2
ATOM      2  C   UNL     1       6.352   3.714   1.115  1.00  0.00     0.303 C 
ATOM      3  O   UNL     1       6.417   3.852   2.338  1.00  0.00    -0.252 OA
BRANCH   2   4
ATOM      4  O   UNL     1       6.831   4.772   0.326  1.00  0.00    -0.481 OA
ATOM      5  H   UNL     1       7.740   4.641  -0.090  1.00  0.00     0.296 HD
ENDBRANCH   2   4
ENDBRANCH   1   2
BRANCH   1   6
ATOM      6  C   UNL     1       6.059   1.273   1.126  1.00  0.00     0.047 C 
BRANCH   6   7
ATOM      7  C   UNL     1       6.694   0.191   0.370  1.00  0.00    -0.043 A 
ATOM      8  C   UNL     1       6.637   0.143  -1.014  1.00  0.00     0.008 A 
ATOM      9  C   UNL     1       7.335  -0.833   1.017  1.00  0.00     0.054 A 
ATOM     10  C   UNL     1       7.202  -0.893  -1.724  1.00  0.00     0.051 A 
ATOM     11  C   UNL     1       7.910  -1.882   0.325  1.00  0.00     0.166 A 
ATOM     12  C   UNL     1       7.846  -1.916  -1.047  1.00  0.00     0.165 A 
ATOM     13  O   UNL     1       8.596  -3.003   0.760  1.00  0.00    -0.454 OA
ATOM     14  O   UNL     1       8.505  -3.078  -1.452  1.00  0.00    -0.454 OA
ATOM     15  C   UNL     1       8.702  -3.920  -0.340  1.00  0.00     0.468 C 
ENDBRANCH   6   7
ENDBRANCH   1   6
TORSDOF 4
ENDMDL
