@<TRIPOS>MOLECULE
/home/cewinharhar/GITHUB/reincatalyze/data/processed/docking_pred/2023-May-17-1006_maxeplen10_maxtrainstep1000_seadep16_gamma099_lrac9e-4_lrcr1e-3_sub6/93b19c8378935853b44d27bbf459025f9fc44a5e_ligand_6.pdbqt
 15 16 0 0 0
SMALL
GASTEIGER

@<TRIPOS>ATOM
      1  C          4.6760    1.8500    0.6740 C.3     1  UNL1        0.1270
      2  C          4.3900    1.1630    1.9240 C.2     1  UNL1        0.3030
      3  O          5.1310    0.3540    2.4840 O.2     1  UNL1       -0.2520
      4  O          3.1640    1.4460    2.5490 O.3     1  UNL1       -0.4810
      5  H          2.4440    0.7460    2.4530 H       1  UNL1        0.2960
      6  C          6.0930    2.2400    0.5150 C.3     1  UNL1        0.0470
      7  C          6.9620    1.3390   -0.2450 C.2     1  UNL1       -0.0430
      8  C          8.3200    1.5820   -0.3760 C.2     1  UNL1        0.0080
      9  C          6.4460    0.2430   -0.8840 C.2     1  UNL1        0.0540
     10  C          9.1330    0.7560   -1.1200 C.2     1  UNL1        0.0510
     11  C          7.2420   -0.6010   -1.6360 C.2     1  UNL1        0.1660
     12  C          8.5870   -0.3480   -1.7560 C.2     1  UNL1        0.1650
     13  O          6.9450   -1.7450   -2.3550 O.2     1  UNL1       -0.4540
     14  O          9.1160   -1.3560   -2.5630 O.2     1  UNL1       -0.4540
     15  C          8.0670   -2.0500   -3.1970 C.3     1  UNL1        0.4680
@<TRIPOS>BOND
     1    15    14    1
     2    15    13    1
     3    14    12    1
     4    13    11    1
     5    12    11    2
     6    12    10    1
     7    11     9    1
     8    10     8    2
     9     9     7    2
    10     8     7    1
    11     7     6    1
    12     6     1    1
    13     1     2    1
    14     2     3    2
    15     2     4    1
    16     5     4    1
