@<TRIPOS>MOLECULE
/home/cewinharhar/GITHUB/reincatalyze/data/processed/docking_pred/2023-May-17-1006_maxeplen10_maxtrainstep1000_seadep16_gamma099_lrac9e-4_lrcr1e-3_sub6/93b19c8378935853b44d27bbf459025f9fc44a5e_ligand_6.pdbqt
 15 16 0 0 0
SMALL
GASTEIGER

@<TRIPOS>ATOM
      1  C          5.3890    2.8810    0.1040 C.3     1  UNL1        0.1270
      2  C          6.2200    3.8460    0.8060 C.2     1  UNL1        0.3030
      3  O          6.8380    4.7750    0.2830 O.2     1  UNL1       -0.2520
      4  O          6.3290    3.7090    2.1990 O.3     1  UNL1       -0.4810
      5  H          5.7900    2.9670    2.6170 H       1  UNL1        0.2960
      6  C          5.2980    1.5660    0.7740 C.3     1  UNL1        0.0470
      7  C          6.0890    0.4660    0.2190 C.2     1  UNL1       -0.0430
      8  C          6.5420   -0.5750    1.0140 C.2     1  UNL1        0.0080
      9  C          6.4390    0.4540   -1.1060 C.2     1  UNL1        0.0540
     10  C          7.3160   -1.5910    0.5000 C.2     1  UNL1        0.0510
     11  C          7.2150   -0.5550   -1.6430 C.2     1  UNL1        0.1660
     12  C          7.6560   -1.5810   -0.8430 C.2     1  UNL1        0.1650
     13  O          7.6810   -0.7700   -2.9280 O.2     1  UNL1       -0.4540
     14  O          8.4040   -2.4340   -1.6560 O.2     1  UNL1       -0.4540
     15  C          8.6920   -1.7880   -2.8750 C.3     1  UNL1        0.4680
@<TRIPOS>BOND
     1    13    15    1
     2    13    11    1
     3    15    14    1
     4    14    12    1
     5    11     9    1
     6    11    12    2
     7     9     7    2
     8    12    10    1
     9     1     6    1
    10     1     2    1
    11     7     6    1
    12     7     8    1
    13     3     2    2
    14    10     8    2
    15     2     4    1
    16     4     5    1
