@<TRIPOS>MOLECULE
/home/cewinharhar/GITHUB/reincatalyze/data/processed/docking_pred/2023-May-17-1006_maxeplen10_maxtrainstep1000_seadep16_gamma099_lrac9e-4_lrcr1e-3_sub6/93b19c8378935853b44d27bbf459025f9fc44a5e_ligand_6.pdbqt
 15 16 0 0 0
SMALL
GASTEIGER

@<TRIPOS>ATOM
      1  C          6.3630    1.3460    0.5870 C.3     1  UNL1        0.1270
      2  C          5.1930    1.2880    1.4490 C.2     1  UNL1        0.3030
      3  O          4.2380    2.0670    1.4160 O.2     1  UNL1       -0.2520
      4  O          5.1450    0.2590    2.4030 O.3     1  UNL1       -0.4810
      5  H          5.9160   -0.3910    2.3950 H       1  UNL1        0.2960
      6  C          6.1270    0.8300   -0.7790 C.3     1  UNL1        0.0470
      7  C          6.9230   -0.3200   -1.2150 C.2     1  UNL1       -0.0430
      8  C          7.2660   -0.5000   -2.5460 C.2     1  UNL1        0.0080
      9  C          7.3200   -1.2770   -0.3190 C.2     1  UNL1        0.0540
     10  C          7.9830   -1.6000   -2.9630 C.2     1  UNL1        0.0510
     11  C          8.0400   -2.3880   -0.7140 C.2     1  UNL1        0.1660
     12  C          8.3750   -2.5530   -2.0370 C.2     1  UNL1        0.1650
     13  O          8.5390   -3.4620    0.0010 O.2     1  UNL1       -0.4540
     14  O          9.0890   -3.7490   -2.1250 O.2     1  UNL1       -0.4540
     15  C          8.9320   -4.4800   -0.9310 C.3     1  UNL1        0.4680
@<TRIPOS>BOND
     1    10     8    1
     2    10    12    2
     3     8     7    2
     4    14    12    1
     5    14    15    1
     6    12    11    1
     7     7     6    1
     8     7     9    1
     9    15    13    1
    10     6     1    1
    11    11     9    2
    12    11    13    1
    13     1     2    1
    14     3     2    2
    15     2     4    1
    16     5     4    1
