@<TRIPOS>MOLECULE
/home/cewinharhar/GITHUB/reincatalyze/data/processed/docking_pred/2023-May-17-1006_maxeplen10_maxtrainstep1000_seadep16_gamma099_lrac9e-4_lrcr1e-3_sub6/93b19c8378935853b44d27bbf459025f9fc44a5e_ligand_6.pdbqt
 15 16 0 0 0
SMALL
GASTEIGER

@<TRIPOS>ATOM
      1  C          8.3060   -0.3200   -2.8650 C.3     1  UNL1        0.1270
      2  C          8.4690   -1.7490   -3.0790 C.2     1  UNL1        0.3030
      3  O          9.5370   -2.3640   -3.0390 O.2     1  UNL1       -0.2520
      4  O          7.3120   -2.4960   -3.3540 O.3     1  UNL1       -0.4810
      5  H          6.6710   -2.0930   -4.0190 H       1  UNL1        0.2960
      6  C          8.7610    0.1440   -1.5370 C.3     1  UNL1        0.0470
      7  C          7.7940    0.1020   -0.4380 C.2     1  UNL1       -0.0430
      8  C          7.7450   -0.9670    0.4440 C.2     1  UNL1        0.0080
      9  C          6.8780    1.1070   -0.2720 C.2     1  UNL1        0.0540
     10  C          6.8130   -1.0250    1.4560 C.2     1  UNL1        0.0510
     11  C          5.9340    1.0700    0.7370 C.2     1  UNL1        0.1660
     12  C          5.8980    0.0050    1.6040 C.2     1  UNL1        0.1650
     13  O          4.9300    1.9550    1.0880 O.2     1  UNL1       -0.4540
     14  O          4.8540    0.2480    2.4980 O.2     1  UNL1       -0.4540
     15  C          4.0460    1.2920    2.0050 C.3     1  UNL1        0.4680
@<TRIPOS>BOND
     1     5     4    1
     2     4     2    1
     3     2     3    2
     4     2     1    1
     5     1     6    1
     6     6     7    1
     7     7     9    2
     8     7     8    1
     9     9    11    1
    10     8    10    2
    11    11    13    1
    12    11    12    2
    13    13    15    1
    14    10    12    1
    15    12    14    1
    16    15    14    1
