@<TRIPOS>MOLECULE
/home/cewinharhar/GITHUB/reincatalyze/data/processed/docking_pred/2023-May-17-1006_maxeplen10_maxtrainstep1000_seadep16_gamma099_lrac9e-4_lrcr1e-3_sub6/93b19c8378935853b44d27bbf459025f9fc44a5e_ligand_6.pdbqt
 15 16 0 0 0
SMALL
GASTEIGER

@<TRIPOS>ATOM
      1  C          5.8220    2.5510    0.4220 C.3     1  UNL1        0.1270
      2  C          6.3520    3.7140    1.1150 C.2     1  UNL1        0.3030
      3  O          6.4170    3.8520    2.3380 O.2     1  UNL1       -0.2520
      4  O          6.8310    4.7720    0.3260 O.3     1  UNL1       -0.4810
      5  H          7.7400    4.6410   -0.0900 H       1  UNL1        0.2960
      6  C          6.0590    1.2730    1.1260 C.3     1  UNL1        0.0470
      7  C          6.6940    0.1910    0.3700 C.2     1  UNL1       -0.0430
      8  C          6.6370    0.1430   -1.0140 C.2     1  UNL1        0.0080
      9  C          7.3350   -0.8330    1.0170 C.2     1  UNL1        0.0540
     10  C          7.2020   -0.8930   -1.7240 C.2     1  UNL1        0.0510
     11  C          7.9100   -1.8820    0.3250 C.2     1  UNL1        0.1660
     12  C          7.8460   -1.9160   -1.0470 C.2     1  UNL1        0.1650
     13  O          8.5960   -3.0030    0.7600 O.2     1  UNL1       -0.4540
     14  O          8.5050   -3.0780   -1.4520 O.2     1  UNL1       -0.4540
     15  C          8.7020   -3.9200   -0.3400 C.3     1  UNL1        0.4680
@<TRIPOS>BOND
     1    10    12    2
     2    10     8    1
     3    14    12    1
     4    14    15    1
     5    12    11    1
     6     8     7    2
     7    15    13    1
     8     5     4    1
     9    11    13    1
    10    11     9    2
    11     4     2    1
    12     7     9    1
    13     7     6    1
    14     1     2    1
    15     1     6    1
    16     2     3    2
