@<TRIPOS>MOLECULE
/home/cewinharhar/GITHUB/reincatalyze/data/processed/docking_pred/2023-May-17-1006_maxeplen10_maxtrainstep1000_seadep16_gamma099_lrac9e-4_lrcr1e-3_sub6/93c3770ef064b633c902e85f3368d9330fbaaeb8_ligand_6.pdbqt
 15 16 0 0 0
SMALL
GASTEIGER

@<TRIPOS>ATOM
      1  C          4.7210    1.8720    0.6940 C.3     1  UNL1        0.1270
      2  C          4.4060    1.1570    1.9200 C.2     1  UNL1        0.3030
      3  O          5.1260    0.3200    2.4680 O.2     1  UNL1       -0.2520
      4  O          3.1770    1.4430    2.5350 O.3     1  UNL1       -0.4810
      5  H          2.4910    0.7030    2.5230 H       1  UNL1        0.2960
      6  C          6.1510    2.2240    0.5550 C.3     1  UNL1        0.0470
      7  C          6.9980    1.3190   -0.2250 C.2     1  UNL1       -0.0430
      8  C          8.3570    1.5500   -0.3770 C.2     1  UNL1        0.0080
      9  C          6.4620    0.2320   -0.8620 C.2     1  UNL1        0.0540
     10  C          9.1480    0.7200   -1.1400 C.2     1  UNL1        0.0510
     11  C          7.2370   -0.6150   -1.6320 C.2     1  UNL1        0.1660
     12  C          8.5820   -0.3740   -1.7730 C.2     1  UNL1        0.1650
     13  O          6.9170   -1.7520   -2.3520 O.2     1  UNL1       -0.4540
     14  O          9.0880   -1.3830   -2.5950 O.2     1  UNL1       -0.4540
     15  C          8.0210   -2.0630   -3.2150 C.3     1  UNL1        0.4680
@<TRIPOS>BOND
     1    15    14    1
     2    15    13    1
     3    14    12    1
     4    13    11    1
     5    12    11    2
     6    12    10    1
     7    11     9    1
     8    10     8    2
     9     9     7    2
    10     8     7    1
    11     7     6    1
    12     6     1    1
    13     1     2    1
    14     2     3    2
    15     2     4    1
    16     5     4    1
