@<TRIPOS>MOLECULE
/home/cewinharhar/GITHUB/reincatalyze/data/processed/docking_pred/2023-May-17-1006_maxeplen10_maxtrainstep1000_seadep16_gamma099_lrac9e-4_lrcr1e-3_sub6/93c3770ef064b633c902e85f3368d9330fbaaeb8_ligand_6.pdbqt
 15 16 0 0 0
SMALL
GASTEIGER

@<TRIPOS>ATOM
      1  C          6.4350    1.3270    0.7490 C.3     1  UNL1        0.1270
      2  C          5.1810    1.3230    1.4860 C.2     1  UNL1        0.3030
      3  O          4.2560    2.1220    1.3310 O.2     1  UNL1       -0.2520
      4  O          5.0070    0.3240    2.4570 O.3     1  UNL1       -0.4810
      5  H          5.3060   -0.6040    2.1990 H       1  UNL1        0.2960
      6  C          6.3030    0.9150   -0.6640 C.3     1  UNL1        0.0470
      7  C          7.0240   -0.2870   -1.0900 C.2     1  UNL1       -0.0430
      8  C          7.2870   -0.5380   -2.4280 C.2     1  UNL1        0.0080
      9  C          7.4260   -1.2220   -0.1750 C.2     1  UNL1        0.0540
     10  C          7.9330   -1.6840   -2.8330 C.2     1  UNL1        0.0510
     11  C          8.0770   -2.3800   -0.5580 C.2     1  UNL1        0.1660
     12  C          8.3320   -2.6150   -1.8880 C.2     1  UNL1        0.1650
     13  O          8.5660   -3.4450    0.1770 O.2     1  UNL1       -0.4540
     14  O          8.9890   -3.8450   -1.9600 O.2     1  UNL1       -0.4540
     15  C          8.8650   -4.5180   -0.7290 C.3     1  UNL1        0.4680
@<TRIPOS>BOND
     1    10     8    1
     2    10    12    2
     3     8     7    2
     4    14    12    1
     5    14    15    1
     6    12    11    1
     7     7     6    1
     8     7     9    1
     9    15    13    1
    10     6     1    1
    11    11     9    2
    12    11    13    1
    13     1     2    1
    14     3     2    2
    15     2     4    1
    16     5     4    1
