MODEL 1
REMARK VINA RESULT:      -7.7      0.000      0.000
REMARK SMILES O=C(O)CCc1ccc2c(c1)OCO2
REMARK SMILES IDX 4 1 2 2 1 3 3 4 5 6 6 7 7 8 11 9 8 10 10 11 9 12 12 13 14 14
REMARK SMILES IDX 13 15
REMARK H PARENT 3 5
REMARK Flexibility Score: inf
ROOT
ATOM      1  C   UNL     1       5.418   2.870   0.122  1.00  0.00     0.127 C 
ENDROOT
BRANCH   1   2
ATOM      2  C   UNL     1       6.247   3.856   0.798  1.00  0.00     0.303 C 
ATOM      3  O   UNL     1       6.895   4.747   0.246  1.00  0.00    -0.252 OA
BRANCH   2   4
ATOM      4  O   UNL     1       6.317   3.789   2.198  1.00  0.00    -0.481 OA
ATOM      5  H   UNL     1       5.446   3.622   2.680  1.00  0.00     0.296 HD
ENDBRANCH   2   4
ENDBRANCH   1   2
BRANCH   1   6
ATOM      6  C   UNL     1       5.353   1.566   0.814  1.00  0.00     0.047 C 
BRANCH   6   7
ATOM      7  C   UNL     1       6.132   0.461   0.252  1.00  0.00    -0.043 A 
ATOM      8  C   UNL     1       6.580  -0.586   1.043  1.00  0.00     0.008 A 
ATOM      9  C   UNL     1       6.477   0.451  -1.074  1.00  0.00     0.054 A 
ATOM     10  C   UNL     1       7.344  -1.607   0.522  1.00  0.00     0.051 A 
ATOM     11  C   UNL     1       7.242  -0.564  -1.618  1.00  0.00     0.166 A 
ATOM     12  C   UNL     1       7.678  -1.596  -0.822  1.00  0.00     0.165 A 
ATOM     13  O   UNL     1       7.702  -0.778  -2.905  1.00  0.00    -0.454 OA
ATOM     14  O   UNL     1       8.416  -2.452  -1.641  1.00  0.00    -0.454 OA
ATOM     15  C   UNL     1       8.705  -1.805  -2.859  1.00  0.00     0.468 C 
ENDBRANCH   6   7
ENDBRANCH   1   6
TORSDOF 4
ENDMDL
MODEL 2
REMARK VINA RESULT:      -7.6      2.136      2.525
REMARK SMILES O=C(O)CCc1ccc2c(c1)OCO2
REMARK SMILES IDX 4 1 2 2 1 3 3 4 5 6 6 7 7 8 11 9 8 10 10 11 9 12 12 13 14 14
REMARK SMILES IDX 13 15
REMARK H PARENT 3 5
REMARK Flexibility Score: inf
ROOT
ATOM      1  C   UNL     1       4.721   1.872   0.694  1.00  0.00     0.127 C 
ENDROOT
BRANCH   1   2
ATOM      2  C   UNL     1       4.406   1.157   1.920  1.00  0.00     0.303 C 
ATOM      3  O   UNL     1       5.126   0.320   2.468  1.00  0.00    -0.252 OA
BRANCH   2   4
ATOM      4  O   UNL     1       3.177   1.443   2.535  1.00  0.00    -0.481 OA
ATOM      5  H   UNL     1       2.491   0.703   2.523  1.00  0.00     0.296 HD
ENDBRANCH   2   4
ENDBRANCH   1   2
BRANCH   1   6
ATOM      6  C   UNL     1       6.151   2.224   0.555  1.00  0.00     0.047 C 
BRANCH   6   7
ATOM      7  C   UNL     1       6.998   1.319  -0.225  1.00  0.00    -0.043 A 
ATOM      8  C   UNL     1       8.357   1.550  -0.377  1.00  0.00     0.008 A 
ATOM      9  C   UNL     1       6.462   0.232  -0.862  1.00  0.00     0.054 A 
ATOM     10  C   UNL     1       9.148   0.720  -1.140  1.00  0.00     0.051 A 
ATOM     11  C   UNL     1       7.237  -0.615  -1.632  1.00  0.00     0.166 A 
ATOM     12  C   UNL     1       8.582  -0.374  -1.773  1.00  0.00     0.165 A 
ATOM     13  O   UNL     1       6.917  -1.752  -2.352  1.00  0.00    -0.454 OA
ATOM     14  O   UNL     1       9.088  -1.383  -2.595  1.00  0.00    -0.454 OA
ATOM     15  C   UNL     1       8.021  -2.063  -3.215  1.00  0.00     0.468 C 
ENDBRANCH   6   7
ENDBRANCH   1   6
TORSDOF 4
ENDMDL
MODEL 3
REMARK VINA RESULT:      -7.5      1.804      5.263
REMARK SMILES O=C(O)CCc1ccc2c(c1)OCO2
REMARK SMILES IDX 4 1 2 2 1 3 3 4 5 6 6 7 7 8 11 9 8 10 10 11 9 12 12 13 14 14
REMARK SMILES IDX 13 15
REMARK H PARENT 3 5
REMARK Flexibility Score: inf
ROOT
ATOM      1  C   UNL     1       8.249  -0.218  -2.836  1.00  0.00     0.127 C 
ENDROOT
BRANCH   1   2
ATOM      2  C   UNL     1       8.481  -1.640  -3.040  1.00  0.00     0.303 C 
ATOM      3  O   UNL     1       9.567  -2.212  -2.931  1.00  0.00    -0.252 OA
BRANCH   2   4
ATOM      4  O   UNL     1       7.375  -2.430  -3.391  1.00  0.00    -0.481 OA
ATOM      5  H   UNL     1       7.066  -3.095  -2.699  1.00  0.00     0.296 HD
ENDBRANCH   2   4
ENDBRANCH   1   2
BRANCH   1   6
ATOM      6  C   UNL     1       8.706   0.282  -1.523  1.00  0.00     0.047 C 
BRANCH   6   7
ATOM      7  C   UNL     1       7.757   0.229  -0.409  1.00  0.00    -0.043 A 
ATOM      8  C   UNL     1       7.783  -0.802   0.517  1.00  0.00     0.008 A 
ATOM      9  C   UNL     1       6.783   1.183  -0.273  1.00  0.00     0.054 A 
ATOM     10  C   UNL     1       6.868  -0.873   1.544  1.00  0.00     0.051 A 
ATOM     11  C   UNL     1       5.854   1.133   0.749  1.00  0.00     0.166 A 
ATOM     12  C   UNL     1       5.893   0.105   1.661  1.00  0.00     0.165 A 
ATOM     13  O   UNL     1       4.803   1.970   1.077  1.00  0.00    -0.454 OA
ATOM     14  O   UNL     1       4.847   0.323   2.558  1.00  0.00    -0.454 OA
ATOM     15  C   UNL     1       3.972   1.294   2.033  1.00  0.00     0.468 C 
ENDBRANCH   6   7
ENDBRANCH   1   6
TORSDOF 4
ENDMDL
MODEL 4
REMARK VINA RESULT:      -7.4      1.969      2.871
REMARK SMILES O=C(O)CCc1ccc2c(c1)OCO2
REMARK SMILES IDX 4 1 2 2 1 3 3 4 5 6 6 7 7 8 11 9 8 10 10 11 9 12 12 13 14 14
REMARK SMILES IDX 13 15
REMARK H PARENT 3 5
REMARK Flexibility Score: inf
ROOT
ATOM      1  C   UNL     1       6.435   1.327   0.749  1.00  0.00     0.127 C 
ENDROOT
BRANCH   1   2
ATOM      2  C   UNL     1       5.181   1.323   1.486  1.00  0.00     0.303 C 
ATOM      3  O   UNL     1       4.256   2.122   1.331  1.00  0.00    -0.252 OA
BRANCH   2   4
ATOM      4  O   UNL     1       5.007   0.324   2.457  1.00  0.00    -0.481 OA
ATOM      5  H   UNL     1       5.306  -0.604   2.199  1.00  0.00     0.296 HD
ENDBRANCH   2   4
ENDBRANCH   1   2
BRANCH   1   6
ATOM      6  C   UNL     1       6.303   0.915  -0.664  1.00  0.00     0.047 C 
BRANCH   6   7
ATOM      7  C   UNL     1       7.024  -0.287  -1.090  1.00  0.00    -0.043 A 
ATOM      8  C   UNL     1       7.287  -0.538  -2.428  1.00  0.00     0.008 A 
ATOM      9  C   UNL     1       7.426  -1.222  -0.175  1.00  0.00     0.054 A 
ATOM     10  C   UNL     1       7.933  -1.684  -2.833  1.00  0.00     0.051 A 
ATOM     11  C   UNL     1       8.077  -2.380  -0.558  1.00  0.00     0.166 A 
ATOM     12  C   UNL     1       8.332  -2.615  -1.888  1.00  0.00     0.165 A 
ATOM     13  O   UNL     1       8.566  -3.445   0.177  1.00  0.00    -0.454 OA
ATOM     14  O   UNL     1       8.989  -3.845  -1.960  1.00  0.00    -0.454 OA
ATOM     15  C   UNL     1       8.865  -4.518  -0.729  1.00  0.00     0.468 C 
ENDBRANCH   6   7
ENDBRANCH   1   6
TORSDOF 4
ENDMDL
MODEL 5
REMARK VINA RESULT:      -7.3      0.923      2.062
REMARK SMILES O=C(O)CCc1ccc2c(c1)OCO2
REMARK SMILES IDX 4 1 2 2 1 3 3 4 5 6 6 7 7 8 11 9 8 10 10 11 9 12 12 13 14 14
REMARK SMILES IDX 13 15
REMARK H PARENT 3 5
REMARK Flexibility Score: inf
ROOT
ATOM      1  C   UNL     1       5.405   2.648   0.079  1.00  0.00     0.127 C 
ENDROOT
BRANCH   1   2
ATOM      2  C   UNL     1       6.141   3.663   0.816  1.00  0.00     0.303 C 
ATOM      3  O   UNL     1       6.230   3.735   2.043  1.00  0.00    -0.252 OA
BRANCH   2   4
ATOM      4  O   UNL     1       6.808   4.646   0.069  1.00  0.00    -0.481 OA
ATOM      5  H   UNL     1       6.755   4.555  -0.934  1.00  0.00     0.296 HD
ENDBRANCH   2   4
ENDBRANCH   1   2
BRANCH   1   6
ATOM      6  C   UNL     1       5.468   1.301   0.686  1.00  0.00     0.047 C 
BRANCH   6   7
ATOM      7  C   UNL     1       6.278   0.288   0.005  1.00  0.00    -0.043 A 
ATOM      8  C   UNL     1       6.431   0.289  -1.372  1.00  0.00     0.008 A 
ATOM      9  C   UNL     1       6.879  -0.719   0.713  1.00  0.00     0.054 A 
ATOM     10  C   UNL     1       7.163  -0.683  -2.017  1.00  0.00     0.051 A 
ATOM     11  C   UNL     1       7.618  -1.705   0.087  1.00  0.00     0.166 A 
ATOM     12  C   UNL     1       7.763  -1.691  -1.279  1.00  0.00     0.165 A 
ATOM     13  O   UNL     1       8.302  -2.798   0.589  1.00  0.00    -0.454 OA
ATOM     14  O   UNL     1       8.548  -2.795  -1.613  1.00  0.00    -0.454 OA
ATOM     15  C   UNL     1       8.630  -3.665  -0.508  1.00  0.00     0.468 C 
ENDBRANCH   6   7
ENDBRANCH   1   6
TORSDOF 4
ENDMDL
