@<TRIPOS>MOLECULE
/home/cewinharhar/GITHUB/reincatalyze/data/processed/docking_pred/2023-May-17-1006_maxeplen10_maxtrainstep1000_seadep16_gamma099_lrac9e-4_lrcr1e-3_sub6/93c3770ef064b633c902e85f3368d9330fbaaeb8_ligand_6.pdbqt
 15 16 0 0 0
SMALL
GASTEIGER

@<TRIPOS>ATOM
      1  C          8.2490   -0.2180   -2.8360 C.3     1  UNL1        0.1270
      2  C          8.4810   -1.6400   -3.0400 C.2     1  UNL1        0.3030
      3  O          9.5670   -2.2120   -2.9310 O.2     1  UNL1       -0.2520
      4  O          7.3750   -2.4300   -3.3910 O.3     1  UNL1       -0.4810
      5  H          7.0660   -3.0950   -2.6990 H       1  UNL1        0.2960
      6  C          8.7060    0.2820   -1.5230 C.3     1  UNL1        0.0470
      7  C          7.7570    0.2290   -0.4090 C.2     1  UNL1       -0.0430
      8  C          7.7830   -0.8020    0.5170 C.2     1  UNL1        0.0080
      9  C          6.7830    1.1830   -0.2730 C.2     1  UNL1        0.0540
     10  C          6.8680   -0.8730    1.5440 C.2     1  UNL1        0.0510
     11  C          5.8540    1.1330    0.7490 C.2     1  UNL1        0.1660
     12  C          5.8930    0.1050    1.6610 C.2     1  UNL1        0.1650
     13  O          4.8030    1.9700    1.0770 O.2     1  UNL1       -0.4540
     14  O          4.8470    0.3230    2.5580 O.2     1  UNL1       -0.4540
     15  C          3.9720    1.2940    2.0330 C.3     1  UNL1        0.4680
@<TRIPOS>BOND
     1     4     2    1
     2     4     5    1
     3     2     3    2
     4     2     1    1
     5     1     6    1
     6     6     7    1
     7     7     9    2
     8     7     8    1
     9     9    11    1
    10     8    10    2
    11    11    13    1
    12    11    12    2
    13    13    15    1
    14    10    12    1
    15    12    14    1
    16    15    14    1
