@<TRIPOS>MOLECULE
/home/cewinharhar/GITHUB/reincatalyze/data/processed/docking_pred/2023-May-17-1006_maxeplen10_maxtrainstep1000_seadep16_gamma099_lrac9e-4_lrcr1e-3_sub6/93c3770ef064b633c902e85f3368d9330fbaaeb8_ligand_6.pdbqt
 15 16 0 0 0
SMALL
GASTEIGER

@<TRIPOS>ATOM
      1  C          5.4050    2.6480    0.0790 C.3     1  UNL1        0.1270
      2  C          6.1410    3.6630    0.8160 C.2     1  UNL1        0.3030
      3  O          6.2300    3.7350    2.0430 O.2     1  UNL1       -0.2520
      4  O          6.8080    4.6460    0.0690 O.3     1  UNL1       -0.4810
      5  H          6.7550    4.5550   -0.9340 H       1  UNL1        0.2960
      6  C          5.4680    1.3010    0.6860 C.3     1  UNL1        0.0470
      7  C          6.2780    0.2880    0.0050 C.2     1  UNL1       -0.0430
      8  C          6.4310    0.2890   -1.3720 C.2     1  UNL1        0.0080
      9  C          6.8790   -0.7190    0.7130 C.2     1  UNL1        0.0540
     10  C          7.1630   -0.6830   -2.0170 C.2     1  UNL1        0.0510
     11  C          7.6180   -1.7050    0.0870 C.2     1  UNL1        0.1660
     12  C          7.7630   -1.6910   -1.2790 C.2     1  UNL1        0.1650
     13  O          8.3020   -2.7980    0.5890 O.2     1  UNL1       -0.4540
     14  O          8.5480   -2.7950   -1.6130 O.2     1  UNL1       -0.4540
     15  C          8.6300   -3.6650   -0.5080 C.3     1  UNL1        0.4680
@<TRIPOS>BOND
     1    10     8    1
     2    10    12    2
     3    14    12    1
     4    14    15    1
     5     8     7    2
     6    12    11    1
     7     5     4    1
     8    15    13    1
     9     7     6    1
    10     7     9    1
    11     4     2    1
    12     1     6    1
    13     1     2    1
    14    11    13    1
    15    11     9    2
    16     2     3    2
