MODEL 1
REMARK VINA RESULT:      -7.6      0.000      0.000
REMARK SMILES O=C(O)CCc1ccc2c(c1)OCO2
REMARK SMILES IDX 4 1 2 2 1 3 3 4 5 6 6 7 7 8 11 9 8 10 10 11 9 12 12 13 14 14
REMARK SMILES IDX 13 15
REMARK H PARENT 3 5
REMARK Flexibility Score: inf
ROOT
ATOM      1  C   UNL     1       5.473   2.857   0.070  1.00  0.00     0.127 C 
ENDROOT
BRANCH   1   2
ATOM      2  C   UNL     1       6.334   3.779   0.794  1.00  0.00     0.303 C 
ATOM      3  O   UNL     1       6.881   4.775   0.317  1.00  0.00    -0.252 OA
BRANCH   2   4
ATOM      4  O   UNL     1       6.565   3.513   2.153  1.00  0.00    -0.481 OA
ATOM      5  H   UNL     1       5.829   3.777   2.790  1.00  0.00     0.296 HD
ENDBRANCH   2   4
ENDBRANCH   1   2
BRANCH   1   6
ATOM      6  C   UNL     1       5.322   1.539   0.722  1.00  0.00     0.047 C 
BRANCH   6   7
ATOM      7  C   UNL     1       6.117   0.427   0.194  1.00  0.00    -0.043 A 
ATOM      8  C   UNL     1       6.602  -0.574   1.021  1.00  0.00     0.008 A 
ATOM      9  C   UNL     1       6.438   0.366  -1.136  1.00  0.00     0.054 A 
ATOM     10  C   UNL     1       7.379  -1.600   0.532  1.00  0.00     0.051 A 
ATOM     11  C   UNL     1       7.216  -0.654  -1.649  1.00  0.00     0.166 A 
ATOM     12  C   UNL     1       7.689  -1.640  -0.818  1.00  0.00     0.165 A 
ATOM     13  O   UNL     1       7.658  -0.915  -2.934  1.00  0.00    -0.454 OA
ATOM     14  O   UNL     1       8.432  -2.515  -1.612  1.00  0.00    -0.454 OA
ATOM     15  C   UNL     1       8.684  -1.917  -2.862  1.00  0.00     0.468 C 
ENDBRANCH   6   7
ENDBRANCH   1   6
TORSDOF 4
ENDMDL
MODEL 2
REMARK VINA RESULT:      -7.6      2.114      2.523
REMARK SMILES O=C(O)CCc1ccc2c(c1)OCO2
REMARK SMILES IDX 4 1 2 2 1 3 3 4 5 6 6 7 7 8 11 9 8 10 10 11 9 12 12 13 14 14
REMARK SMILES IDX 13 15
REMARK H PARENT 3 5
REMARK Flexibility Score: inf
ROOT
ATOM      1  C   UNL     1       4.703   1.866   0.689  1.00  0.00     0.127 C 
ENDROOT
BRANCH   1   2
ATOM      2  C   UNL     1       4.382   1.161   1.920  1.00  0.00     0.303 C 
ATOM      3  O   UNL     1       5.093   0.318   2.470  1.00  0.00    -0.252 OA
BRANCH   2   4
ATOM      4  O   UNL     1       3.157   1.464   2.535  1.00  0.00    -0.481 OA
ATOM      5  H   UNL     1       2.986   2.438   2.730  1.00  0.00     0.296 HD
ENDBRANCH   2   4
ENDBRANCH   1   2
BRANCH   1   6
ATOM      6  C   UNL     1       6.132   2.218   0.554  1.00  0.00     0.047 C 
BRANCH   6   7
ATOM      7  C   UNL     1       6.982   1.315  -0.224  1.00  0.00    -0.043 A 
ATOM      8  C   UNL     1       8.344   1.536  -0.357  1.00  0.00     0.008 A 
ATOM      9  C   UNL     1       6.444   0.240  -0.881  1.00  0.00     0.054 A 
ATOM     10  C   UNL     1       9.138   0.708  -1.118  1.00  0.00     0.051 A 
ATOM     11  C   UNL     1       7.222  -0.605  -1.650  1.00  0.00     0.166 A 
ATOM     12  C   UNL     1       8.571  -0.375  -1.771  1.00  0.00     0.165 A 
ATOM     13  O   UNL     1       6.901  -1.731  -2.388  1.00  0.00    -0.454 OA
ATOM     14  O   UNL     1       9.078  -1.378  -2.598  1.00  0.00    -0.454 OA
ATOM     15  C   UNL     1       8.014  -2.042  -3.240  1.00  0.00     0.468 C 
ENDBRANCH   6   7
ENDBRANCH   1   6
TORSDOF 4
ENDMDL
MODEL 3
REMARK VINA RESULT:      -7.5      1.955      2.839
REMARK SMILES O=C(O)CCc1ccc2c(c1)OCO2
REMARK SMILES IDX 4 1 2 2 1 3 3 4 5 6 6 7 7 8 11 9 8 10 10 11 9 12 12 13 14 14
REMARK SMILES IDX 13 15
REMARK H PARENT 3 5
REMARK Flexibility Score: inf
ROOT
ATOM      1  C   UNL     1       6.408   1.293   0.682  1.00  0.00     0.127 C 
ENDROOT
BRANCH   1   2
ATOM      2  C   UNL     1       5.176   1.319   1.453  1.00  0.00     0.303 C 
ATOM      3  O   UNL     1       4.257   2.128   1.311  1.00  0.00    -0.252 OA
BRANCH   2   4
ATOM      4  O   UNL     1       5.016   0.339   2.445  1.00  0.00    -0.481 OA
ATOM      5  H   UNL     1       5.210   0.627   3.392  1.00  0.00     0.296 HD
ENDBRANCH   2   4
ENDBRANCH   1   2
BRANCH   1   6
ATOM      6  C   UNL     1       6.235   0.832  -0.712  1.00  0.00     0.047 C 
BRANCH   6   7
ATOM      7  C   UNL     1       6.984  -0.354  -1.132  1.00  0.00    -0.043 A 
ATOM      8  C   UNL     1       7.276  -0.593  -2.466  1.00  0.00     0.008 A 
ATOM      9  C   UNL     1       7.388  -1.288  -0.214  1.00  0.00     0.054 A 
ATOM     10  C   UNL     1       7.949  -1.726  -2.865  1.00  0.00     0.051 A 
ATOM     11  C   UNL     1       8.065  -2.432  -0.592  1.00  0.00     0.166 A 
ATOM     12  C   UNL     1       8.348  -2.655  -1.918  1.00  0.00     0.165 A 
ATOM     13  O   UNL     1       8.561  -3.492   0.147  1.00  0.00    -0.454 OA
ATOM     14  O   UNL     1       9.027  -3.873  -1.985  1.00  0.00    -0.454 OA
ATOM     15  C   UNL     1       8.894  -4.554  -0.760  1.00  0.00     0.468 C 
ENDBRANCH   6   7
ENDBRANCH   1   6
TORSDOF 4
ENDMDL
MODEL 4
REMARK VINA RESULT:      -7.4      1.789      5.255
REMARK SMILES O=C(O)CCc1ccc2c(c1)OCO2
REMARK SMILES IDX 4 1 2 2 1 3 3 4 5 6 6 7 7 8 11 9 8 10 10 11 9 12 12 13 14 14
REMARK SMILES IDX 13 15
REMARK H PARENT 3 5
REMARK Flexibility Score: inf
ROOT
ATOM      1  C   UNL     1       8.305  -0.313  -2.839  1.00  0.00     0.127 C 
ENDROOT
BRANCH   1   2
ATOM      2  C   UNL     1       8.468  -1.742  -3.062  1.00  0.00     0.303 C 
ATOM      3  O   UNL     1       9.535  -2.356  -3.023  1.00  0.00    -0.252 OA
BRANCH   2   4
ATOM      4  O   UNL     1       7.312  -2.485  -3.346  1.00  0.00    -0.481 OA
ATOM      5  H   UNL     1       7.270  -2.913  -4.259  1.00  0.00     0.296 HD
ENDBRANCH   2   4
ENDBRANCH   1   2
BRANCH   1   6
ATOM      6  C   UNL     1       8.763   0.142  -1.509  1.00  0.00     0.047 C 
BRANCH   6   7
ATOM      7  C   UNL     1       7.796   0.107  -0.410  1.00  0.00    -0.043 A 
ATOM      8  C   UNL     1       7.761  -0.946   0.491  1.00  0.00     0.008 A 
ATOM      9  C   UNL     1       6.866   1.101  -0.263  1.00  0.00     0.054 A 
ATOM     10  C   UNL     1       6.829  -0.999   1.503  1.00  0.00     0.051 A 
ATOM     11  C   UNL     1       5.922   1.070   0.745  1.00  0.00     0.166 A 
ATOM     12  C   UNL     1       5.900   0.020   1.632  1.00  0.00     0.165 A 
ATOM     13  O   UNL     1       4.905   1.948   1.080  1.00  0.00    -0.454 OA
ATOM     14  O   UNL     1       4.851   0.265   2.520  1.00  0.00    -0.454 OA
ATOM     15  C   UNL     1       4.030   1.289   2.008  1.00  0.00     0.468 C 
ENDBRANCH   6   7
ENDBRANCH   1   6
TORSDOF 4
ENDMDL
MODEL 5
REMARK VINA RESULT:      -7.4      0.931      2.093
REMARK SMILES O=C(O)CCc1ccc2c(c1)OCO2
REMARK SMILES IDX 4 1 2 2 1 3 3 4 5 6 6 7 7 8 11 9 8 10 10 11 9 12 12 13 14 14
REMARK SMILES IDX 13 15
REMARK H PARENT 3 5
REMARK Flexibility Score: inf
ROOT
ATOM      1  C   UNL     1       5.385   2.838   0.076  1.00  0.00     0.127 C 
ENDROOT
BRANCH   1   2
ATOM      2  C   UNL     1       6.127   3.842   0.823  1.00  0.00     0.303 C 
ATOM      3  O   UNL     1       6.158   3.945   2.050  1.00  0.00    -0.252 OA
BRANCH   2   4
ATOM      4  O   UNL     1       6.872   4.775   0.084  1.00  0.00    -0.481 OA
ATOM      5  H   UNL     1       7.799   4.488  -0.190  1.00  0.00     0.296 HD
ENDBRANCH   2   4
ENDBRANCH   1   2
BRANCH   1   6
ATOM      6  C   UNL     1       5.370   1.505   0.714  1.00  0.00     0.047 C 
BRANCH   6   7
ATOM      7  C   UNL     1       6.204   0.459   0.119  1.00  0.00    -0.043 A 
ATOM      8  C   UNL     1       6.501   0.452  -1.235  1.00  0.00     0.008 A 
ATOM      9  C   UNL     1       6.686  -0.571   0.882  1.00  0.00     0.054 A 
ATOM     10  C   UNL     1       7.255  -0.551  -1.803  1.00  0.00     0.051 A 
ATOM     11  C   UNL     1       7.445  -1.588   0.334  1.00  0.00     0.166 A 
ATOM     12  C   UNL     1       7.733  -1.581  -1.009  1.00  0.00     0.165 A 
ATOM     13  O   UNL     1       8.027  -2.708   0.902  1.00  0.00    -0.454 OA
ATOM     14  O   UNL     1       8.503  -2.718  -1.262  1.00  0.00    -0.454 OA
ATOM     15  C   UNL     1       8.433  -3.589  -0.157  1.00  0.00     0.468 C 
ENDBRANCH   6   7
ENDBRANCH   1   6
TORSDOF 4
ENDMDL
