@<TRIPOS>MOLECULE
/home/cewinharhar/GITHUB/reincatalyze/data/processed/docking_pred/2023-May-17-1006_maxeplen10_maxtrainstep1000_seadep16_gamma099_lrac9e-4_lrcr1e-3_sub6/93f5b296c54773c487a3666b5d29638d3a74aef5_ligand_6.pdbqt
 15 16 0 0 0
SMALL
GASTEIGER

@<TRIPOS>ATOM
      1  C          8.3050   -0.3130   -2.8390 C.3     1  UNL1        0.1270
      2  C          8.4680   -1.7420   -3.0620 C.2     1  UNL1        0.3030
      3  O          9.5350   -2.3560   -3.0230 O.2     1  UNL1       -0.2520
      4  O          7.3120   -2.4850   -3.3460 O.3     1  UNL1       -0.4810
      5  H          7.2700   -2.9130   -4.2590 H       1  UNL1        0.2960
      6  C          8.7630    0.1420   -1.5090 C.3     1  UNL1        0.0470
      7  C          7.7960    0.1070   -0.4100 C.2     1  UNL1       -0.0430
      8  C          7.7610   -0.9460    0.4910 C.2     1  UNL1        0.0080
      9  C          6.8660    1.1010   -0.2630 C.2     1  UNL1        0.0540
     10  C          6.8290   -0.9990    1.5030 C.2     1  UNL1        0.0510
     11  C          5.9220    1.0700    0.7450 C.2     1  UNL1        0.1660
     12  C          5.9000    0.0200    1.6320 C.2     1  UNL1        0.1650
     13  O          4.9050    1.9480    1.0800 O.2     1  UNL1       -0.4540
     14  O          4.8510    0.2650    2.5200 O.2     1  UNL1       -0.4540
     15  C          4.0300    1.2890    2.0080 C.3     1  UNL1        0.4680
@<TRIPOS>BOND
     1     5     4    1
     2     4     2    1
     3     2     3    2
     4     2     1    1
     5     1     6    1
     6     6     7    1
     7     7     9    2
     8     7     8    1
     9     9    11    1
    10     8    10    2
    11    11    13    1
    12    11    12    2
    13    13    15    1
    14    10    12    1
    15    12    14    1
    16    15    14    1
