@<TRIPOS>MOLECULE
/home/cewinharhar/GITHUB/reincatalyze/data/processed/docking_pred/2023-May-17-1006_maxeplen10_maxtrainstep1000_seadep16_gamma099_lrac9e-4_lrcr1e-3_sub6/93f5b296c54773c487a3666b5d29638d3a74aef5_ligand_6.pdbqt
 15 16 0 0 0
SMALL
GASTEIGER

@<TRIPOS>ATOM
      1  C          5.4730    2.8570    0.0700 C.3     1  UNL1        0.1270
      2  C          6.3340    3.7790    0.7940 C.2     1  UNL1        0.3030
      3  O          6.8810    4.7750    0.3170 O.2     1  UNL1       -0.2520
      4  O          6.5650    3.5130    2.1530 O.3     1  UNL1       -0.4810
      5  H          5.8290    3.7770    2.7900 H       1  UNL1        0.2960
      6  C          5.3220    1.5390    0.7220 C.3     1  UNL1        0.0470
      7  C          6.1170    0.4270    0.1940 C.2     1  UNL1       -0.0430
      8  C          6.6020   -0.5740    1.0210 C.2     1  UNL1        0.0080
      9  C          6.4380    0.3660   -1.1360 C.2     1  UNL1        0.0540
     10  C          7.3790   -1.6000    0.5320 C.2     1  UNL1        0.0510
     11  C          7.2160   -0.6540   -1.6490 C.2     1  UNL1        0.1660
     12  C          7.6890   -1.6400   -0.8180 C.2     1  UNL1        0.1650
     13  O          7.6580   -0.9150   -2.9340 O.2     1  UNL1       -0.4540
     14  O          8.4320   -2.5150   -1.6120 O.2     1  UNL1       -0.4540
     15  C          8.6840   -1.9170   -2.8620 C.3     1  UNL1        0.4680
@<TRIPOS>BOND
     1    13    15    1
     2    13    11    1
     3    15    14    1
     4    11     9    1
     5    11    12    2
     6    14    12    1
     7     9     7    2
     8    12    10    1
     9     1     6    1
    10     1     2    1
    11     7     6    1
    12     7     8    1
    13     3     2    2
    14    10     8    2
    15     2     4    1
    16     4     5    1
