@<TRIPOS>MOLECULE
/home/cewinharhar/GITHUB/reincatalyze/data/processed/docking_pred/2023-May-17-1006_maxeplen10_maxtrainstep1000_seadep16_gamma099_lrac9e-4_lrcr1e-3_sub6/93f5b296c54773c487a3666b5d29638d3a74aef5_ligand_6.pdbqt
 15 16 0 0 0
SMALL
GASTEIGER

@<TRIPOS>ATOM
      1  C          6.4080    1.2930    0.6820 C.3     1  UNL1        0.1270
      2  C          5.1760    1.3190    1.4530 C.2     1  UNL1        0.3030
      3  O          4.2570    2.1280    1.3110 O.2     1  UNL1       -0.2520
      4  O          5.0160    0.3390    2.4450 O.3     1  UNL1       -0.4810
      5  H          5.2100    0.6270    3.3920 H       1  UNL1        0.2960
      6  C          6.2350    0.8320   -0.7120 C.3     1  UNL1        0.0470
      7  C          6.9840   -0.3540   -1.1320 C.2     1  UNL1       -0.0430
      8  C          7.2760   -0.5930   -2.4660 C.2     1  UNL1        0.0080
      9  C          7.3880   -1.2880   -0.2140 C.2     1  UNL1        0.0540
     10  C          7.9490   -1.7260   -2.8650 C.2     1  UNL1        0.0510
     11  C          8.0650   -2.4320   -0.5920 C.2     1  UNL1        0.1660
     12  C          8.3480   -2.6550   -1.9180 C.2     1  UNL1        0.1650
     13  O          8.5610   -3.4920    0.1470 O.2     1  UNL1       -0.4540
     14  O          9.0270   -3.8730   -1.9850 O.2     1  UNL1       -0.4540
     15  C          8.8940   -4.5540   -0.7600 C.3     1  UNL1        0.4680
@<TRIPOS>BOND
     1    10     8    1
     2    10    12    2
     3     8     7    2
     4    14    12    1
     5    14    15    1
     6    12    11    1
     7     7     6    1
     8     7     9    1
     9    15    13    1
    10     6     1    1
    11    11     9    2
    12    11    13    1
    13     1     2    1
    14     3     2    2
    15     2     4    1
    16     4     5    1
