@<TRIPOS>MOLECULE
/home/cewinharhar/GITHUB/reincatalyze/data/processed/docking_pred/2023-May-17-1006_maxeplen10_maxtrainstep1000_seadep16_gamma099_lrac9e-4_lrcr1e-3_sub6/93f5b296c54773c487a3666b5d29638d3a74aef5_ligand_6.pdbqt
 15 16 0 0 0
SMALL
GASTEIGER

@<TRIPOS>ATOM
      1  C          4.7030    1.8660    0.6890 C.3     1  UNL1        0.1270
      2  C          4.3820    1.1610    1.9200 C.2     1  UNL1        0.3030
      3  O          5.0930    0.3180    2.4700 O.2     1  UNL1       -0.2520
      4  O          3.1570    1.4640    2.5350 O.3     1  UNL1       -0.4810
      5  H          2.9860    2.4380    2.7300 H       1  UNL1        0.2960
      6  C          6.1320    2.2180    0.5540 C.3     1  UNL1        0.0470
      7  C          6.9820    1.3150   -0.2240 C.2     1  UNL1       -0.0430
      8  C          8.3440    1.5360   -0.3570 C.2     1  UNL1        0.0080
      9  C          6.4440    0.2400   -0.8810 C.2     1  UNL1        0.0540
     10  C          9.1380    0.7080   -1.1180 C.2     1  UNL1        0.0510
     11  C          7.2220   -0.6050   -1.6500 C.2     1  UNL1        0.1660
     12  C          8.5710   -0.3750   -1.7710 C.2     1  UNL1        0.1650
     13  O          6.9010   -1.7310   -2.3880 O.2     1  UNL1       -0.4540
     14  O          9.0780   -1.3780   -2.5980 O.2     1  UNL1       -0.4540
     15  C          8.0140   -2.0420   -3.2400 C.3     1  UNL1        0.4680
@<TRIPOS>BOND
     1    15    14    1
     2    15    13    1
     3    14    12    1
     4    13    11    1
     5    12    11    2
     6    12    10    1
     7    11     9    1
     8    10     8    2
     9     9     7    2
    10     8     7    1
    11     7     6    1
    12     6     1    1
    13     1     2    1
    14     2     3    2
    15     2     4    1
    16     4     5    1
