@<TRIPOS>MOLECULE
/home/cewinharhar/GITHUB/reincatalyze/data/processed/docking_pred/2023-May-17-1006_maxeplen10_maxtrainstep1000_seadep16_gamma099_lrac9e-4_lrcr1e-3_sub6/955e59fc22a1e87e2ab10a68f3a5c98643a236a4_ligand_6.pdbqt
 15 16 0 0 0
SMALL
GASTEIGER

@<TRIPOS>ATOM
      1  C          8.1730   -0.8530   -2.0820 C.3     1  UNL1        0.1270
      2  C          8.4300   -2.0140   -2.9190 C.2     1  UNL1        0.3030
      3  O          9.5360   -2.5160   -3.1300 O.2     1  UNL1       -0.2520
      4  O          7.3260   -2.6180   -3.5420 O.3     1  UNL1       -0.4810
      5  H          7.1500   -3.5800   -3.3000 H       1  UNL1        0.2960
      6  C          7.1300   -1.0720   -1.0570 C.3     1  UNL1        0.0470
      7  C          6.7490    0.0710   -0.2240 C.2     1  UNL1       -0.0430
      8  C          5.8490   -0.0630    0.8220 C.2     1  UNL1        0.0080
      9  C          7.2470    1.3210   -0.4810 C.2     1  UNL1        0.0540
     10  C          5.4620    1.0180    1.5830 C.2     1  UNL1        0.0510
     11  C          6.8740    2.4200    0.2710 C.2     1  UNL1        0.1660
     12  C          5.9810    2.2720    1.3050 C.2     1  UNL1        0.1650
     13  O          7.2410    3.7520    0.1950 O.2     1  UNL1       -0.4540
     14  O          5.8030    3.5370    1.8660 O.2     1  UNL1       -0.4540
     15  C          6.3300    4.5150    1.0000 C.3     1  UNL1        0.4680
@<TRIPOS>BOND
     1     4     5    1
     2     4     2    1
     3     3     2    2
     4     2     1    1
     5     1     6    1
     6     6     7    1
     7     9     7    2
     8     9    11    1
     9     7     8    1
    10    13    11    1
    11    13    15    1
    12    11    12    2
    13     8    10    2
    14    15    14    1
    15    12    10    1
    16    12    14    1
