@<TRIPOS>MOLECULE
/home/cewinharhar/GITHUB/reincatalyze/data/processed/docking_pred/2023-May-17-1006_maxeplen10_maxtrainstep1000_seadep16_gamma099_lrac9e-4_lrcr1e-3_sub6/955e59fc22a1e87e2ab10a68f3a5c98643a236a4_ligand_6.pdbqt
 15 16 0 0 0
SMALL
GASTEIGER

@<TRIPOS>ATOM
      1  C          4.7170    1.8810    0.6990 C.3     1  UNL1        0.1270
      2  C          4.4240    1.1470    1.9190 C.2     1  UNL1        0.3030
      3  O          5.1620    0.3140    2.4500 O.2     1  UNL1       -0.2520
      4  O          3.1960    1.4060    2.5490 O.3     1  UNL1       -0.4810
      5  H          2.5340    1.9570    2.0240 H       1  UNL1        0.2960
      6  C          6.1430    2.2370    0.5400 C.3     1  UNL1        0.0470
      7  C          6.9870    1.3210   -0.2320 C.2     1  UNL1       -0.0430
      8  C          8.3530    1.5230   -0.3530 C.2     1  UNL1        0.0080
      9  C          6.4400    0.2530   -0.8920 C.2     1  UNL1        0.0540
     10  C          9.1420    0.6840   -1.1080 C.2     1  UNL1        0.0510
     11  C          7.2120   -0.6020   -1.6550 C.2     1  UNL1        0.1660
     12  C          8.5660   -0.3900   -1.7650 C.2     1  UNL1        0.1650
     13  O          6.8830   -1.7240   -2.3950 O.2     1  UNL1       -0.4540
     14  O          9.0660   -1.4010   -2.5870 O.2     1  UNL1       -0.4540
     15  C          7.9980   -2.0510   -3.2380 C.3     1  UNL1        0.4680
@<TRIPOS>BOND
     1    15    14    1
     2    15    13    1
     3    14    12    1
     4    13    11    1
     5    12    11    2
     6    12    10    1
     7    11     9    1
     8    10     8    2
     9     9     7    2
    10     8     7    1
    11     7     6    1
    12     6     1    1
    13     1     2    1
    14     2     3    2
    15     2     4    1
    16     5     4    1
