@<TRIPOS>MOLECULE
/home/cewinharhar/GITHUB/reincatalyze/data/processed/docking_pred/2023-May-17-1006_maxeplen10_maxtrainstep1000_seadep16_gamma099_lrac9e-4_lrcr1e-3_sub6/955e59fc22a1e87e2ab10a68f3a5c98643a236a4_ligand_6.pdbqt
 15 16 0 0 0
SMALL
GASTEIGER

@<TRIPOS>ATOM
      1  C          5.4450    2.9090    0.1550 C.3     1  UNL1        0.1270
      2  C          6.3230    3.8400    0.8470 C.2     1  UNL1        0.3030
      3  O          7.2700    4.4440    0.3410 O.2     1  UNL1       -0.2520
      4  O          6.0720    4.0710    2.2090 O.3     1  UNL1       -0.4810
      5  H          6.2660    5.0010    2.5460 H       1  UNL1        0.2960
      6  C          5.3120    1.5980    0.8250 C.3     1  UNL1        0.0470
      7  C          6.0880    0.4790    0.2850 C.2     1  UNL1       -0.0430
      8  C          6.5540   -0.5410    1.1010 C.2     1  UNL1        0.0080
      9  C          6.4110    0.4280   -1.0450 C.2     1  UNL1        0.0540
     10  C          7.3140   -1.5740    0.6010 C.2     1  UNL1        0.0510
     11  C          7.1710   -0.5990   -1.5690 C.2     1  UNL1        0.1660
     12  C          7.6260   -1.6040   -0.7490 C.2     1  UNL1        0.1650
     13  O          7.6110   -0.8520   -2.8570 O.2     1  UNL1       -0.4540
     14  O          8.3540   -2.4820   -1.5530 O.2     1  UNL1       -0.4540
     15  C          8.6190   -1.8730   -2.7950 C.3     1  UNL1        0.4680
@<TRIPOS>BOND
     1    13    15    1
     2    13    11    1
     3    15    14    1
     4    11     9    1
     5    11    12    2
     6    14    12    1
     7     9     7    2
     8    12    10    1
     9     1     6    1
    10     1     2    1
    11     7     6    1
    12     7     8    1
    13     3     2    2
    14    10     8    2
    15     2     4    1
    16     4     5    1
