@<TRIPOS>MOLECULE
/home/cewinharhar/GITHUB/reincatalyze/data/processed/docking_pred/2023-May-17-1006_maxeplen10_maxtrainstep1000_seadep16_gamma099_lrac9e-4_lrcr1e-3_sub6/955e59fc22a1e87e2ab10a68f3a5c98643a236a4_ligand_6.pdbqt
 15 16 0 0 0
SMALL
GASTEIGER

@<TRIPOS>ATOM
      1  C          6.3950    1.3090    0.6930 C.3     1  UNL1        0.1270
      2  C          5.1860    1.2790    1.5000 C.2     1  UNL1        0.3030
      3  O          4.2460    2.0720    1.4130 O.2     1  UNL1       -0.2520
      4  O          5.0770    0.2610    2.4610 O.3     1  UNL1       -0.4810
      5  H          5.2940    0.5210    3.4110 H       1  UNL1        0.2960
      6  C          6.1970    0.8590   -0.7020 C.3     1  UNL1        0.0470
      7  C          6.9610   -0.3060   -1.1530 C.2     1  UNL1       -0.0430
      8  C          7.2610   -0.5020   -2.4920 C.2     1  UNL1        0.0080
      9  C          7.3710   -1.2620   -0.2620 C.2     1  UNL1        0.0540
     10  C          7.9480   -1.6150   -2.9220 C.2     1  UNL1        0.0510
     11  C          8.0620   -2.3870   -0.6700 C.2     1  UNL1        0.1660
     12  C          8.3530   -2.5680   -2.0010 C.2     1  UNL1        0.1650
     13  O          8.5660   -3.4630    0.0390 O.2     1  UNL1       -0.4540
     14  O          9.0460   -3.7750   -2.1010 O.2     1  UNL1       -0.4540
     15  C          8.9150   -4.4950   -0.8970 C.3     1  UNL1        0.4680
@<TRIPOS>BOND
     1    10     8    1
     2    10    12    2
     3     8     7    2
     4    14    12    1
     5    14    15    1
     6    12    11    1
     7     7     6    1
     8     7     9    1
     9    15    13    1
    10     6     1    1
    11    11     9    2
    12    11    13    1
    13     1     2    1
    14     3     2    2
    15     2     4    1
    16     4     5    1
