MODEL 1
REMARK VINA RESULT:      -7.6      0.000      0.000
REMARK SMILES O=C(O)CCc1ccc2c(c1)OCO2
REMARK SMILES IDX 4 1 2 2 1 3 3 4 5 6 6 7 7 8 11 9 8 10 10 11 9 12 12 13 14 14
REMARK SMILES IDX 13 15
REMARK H PARENT 3 5
REMARK Flexibility Score: inf
ROOT
ATOM      1  C   UNL     1       4.717   1.881   0.699  1.00  0.00     0.127 C 
ENDROOT
BRANCH   1   2
ATOM      2  C   UNL     1       4.424   1.147   1.919  1.00  0.00     0.303 C 
ATOM      3  O   UNL     1       5.162   0.314   2.450  1.00  0.00    -0.252 OA
BRANCH   2   4
ATOM      4  O   UNL     1       3.196   1.406   2.549  1.00  0.00    -0.481 OA
ATOM      5  H   UNL     1       2.534   1.957   2.024  1.00  0.00     0.296 HD
ENDBRANCH   2   4
ENDBRANCH   1   2
BRANCH   1   6
ATOM      6  C   UNL     1       6.143   2.237   0.540  1.00  0.00     0.047 C 
BRANCH   6   7
ATOM      7  C   UNL     1       6.987   1.321  -0.232  1.00  0.00    -0.043 A 
ATOM      8  C   UNL     1       8.353   1.523  -0.353  1.00  0.00     0.008 A 
ATOM      9  C   UNL     1       6.440   0.253  -0.892  1.00  0.00     0.054 A 
ATOM     10  C   UNL     1       9.142   0.684  -1.108  1.00  0.00     0.051 A 
ATOM     11  C   UNL     1       7.212  -0.602  -1.655  1.00  0.00     0.166 A 
ATOM     12  C   UNL     1       8.566  -0.390  -1.765  1.00  0.00     0.165 A 
ATOM     13  O   UNL     1       6.883  -1.724  -2.395  1.00  0.00    -0.454 OA
ATOM     14  O   UNL     1       9.066  -1.401  -2.587  1.00  0.00    -0.454 OA
ATOM     15  C   UNL     1       7.998  -2.051  -3.238  1.00  0.00     0.468 C 
ENDBRANCH   6   7
ENDBRANCH   1   6
TORSDOF 4
ENDMDL
MODEL 2
REMARK VINA RESULT:      -7.4      1.439      5.380
REMARK SMILES O=C(O)CCc1ccc2c(c1)OCO2
REMARK SMILES IDX 4 1 2 2 1 3 3 4 5 6 6 7 7 8 11 9 8 10 10 11 9 12 12 13 14 14
REMARK SMILES IDX 13 15
REMARK H PARENT 3 5
REMARK Flexibility Score: inf
ROOT
ATOM      1  C   UNL     1       8.268  -0.311  -2.817  1.00  0.00     0.127 C 
ENDROOT
BRANCH   1   2
ATOM      2  C   UNL     1       8.449  -1.735  -3.049  1.00  0.00     0.303 C 
ATOM      3  O   UNL     1       9.520  -2.342  -2.980  1.00  0.00    -0.252 OA
BRANCH   2   4
ATOM      4  O   UNL     1       7.310  -2.485  -3.379  1.00  0.00    -0.481 OA
ATOM      5  H   UNL     1       6.422  -2.080  -3.125  1.00  0.00     0.296 HD
ENDBRANCH   2   4
ENDBRANCH   1   2
BRANCH   1   6
ATOM      6  C   UNL     1       8.717   0.142  -1.483  1.00  0.00     0.047 C 
BRANCH   6   7
ATOM      7  C   UNL     1       7.740   0.109  -0.392  1.00  0.00    -0.043 A 
ATOM      8  C   UNL     1       7.676  -0.958   0.491  1.00  0.00     0.008 A 
ATOM      9  C   UNL     1       6.831   1.121  -0.235  1.00  0.00     0.054 A 
ATOM     10  C   UNL     1       6.734  -1.007   1.495  1.00  0.00     0.051 A 
ATOM     11  C   UNL     1       5.878   1.094   0.765  1.00  0.00     0.166 A 
ATOM     12  C   UNL     1       5.827   0.030   1.634  1.00  0.00     0.165 A 
ATOM     13  O   UNL     1       4.879   1.987   1.107  1.00  0.00    -0.454 OA
ATOM     14  O   UNL     1       4.777   0.282   2.518  1.00  0.00    -0.454 OA
ATOM     15  C   UNL     1       3.982   1.333   2.017  1.00  0.00     0.468 C 
ENDBRANCH   6   7
ENDBRANCH   1   6
TORSDOF 4
ENDMDL
MODEL 3
REMARK VINA RESULT:      -7.4      2.143      2.501
REMARK SMILES O=C(O)CCc1ccc2c(c1)OCO2
REMARK SMILES IDX 4 1 2 2 1 3 3 4 5 6 6 7 7 8 11 9 8 10 10 11 9 12 12 13 14 14
REMARK SMILES IDX 13 15
REMARK H PARENT 3 5
REMARK Flexibility Score: inf
ROOT
ATOM      1  C   UNL     1       5.445   2.909   0.155  1.00  0.00     0.127 C 
ENDROOT
BRANCH   1   2
ATOM      2  C   UNL     1       6.323   3.840   0.847  1.00  0.00     0.303 C 
ATOM      3  O   UNL     1       7.270   4.444   0.341  1.00  0.00    -0.252 OA
BRANCH   2   4
ATOM      4  O   UNL     1       6.072   4.071   2.209  1.00  0.00    -0.481 OA
ATOM      5  H   UNL     1       6.266   5.001   2.546  1.00  0.00     0.296 HD
ENDBRANCH   2   4
ENDBRANCH   1   2
BRANCH   1   6
ATOM      6  C   UNL     1       5.312   1.598   0.825  1.00  0.00     0.047 C 
BRANCH   6   7
ATOM      7  C   UNL     1       6.088   0.479   0.285  1.00  0.00    -0.043 A 
ATOM      8  C   UNL     1       6.554  -0.541   1.101  1.00  0.00     0.008 A 
ATOM      9  C   UNL     1       6.411   0.428  -1.045  1.00  0.00     0.054 A 
ATOM     10  C   UNL     1       7.314  -1.574   0.601  1.00  0.00     0.051 A 
ATOM     11  C   UNL     1       7.171  -0.599  -1.569  1.00  0.00     0.166 A 
ATOM     12  C   UNL     1       7.626  -1.604  -0.749  1.00  0.00     0.165 A 
ATOM     13  O   UNL     1       7.611  -0.852  -2.857  1.00  0.00    -0.454 OA
ATOM     14  O   UNL     1       8.354  -2.482  -1.553  1.00  0.00    -0.454 OA
ATOM     15  C   UNL     1       8.619  -1.873  -2.795  1.00  0.00     0.468 C 
ENDBRANCH   6   7
ENDBRANCH   1   6
TORSDOF 4
ENDMDL
MODEL 4
REMARK VINA RESULT:      -7.4      1.797      2.447
REMARK SMILES O=C(O)CCc1ccc2c(c1)OCO2
REMARK SMILES IDX 4 1 2 2 1 3 3 4 5 6 6 7 7 8 11 9 8 10 10 11 9 12 12 13 14 14
REMARK SMILES IDX 13 15
REMARK H PARENT 3 5
REMARK Flexibility Score: inf
ROOT
ATOM      1  C   UNL     1       6.395   1.309   0.693  1.00  0.00     0.127 C 
ENDROOT
BRANCH   1   2
ATOM      2  C   UNL     1       5.186   1.279   1.500  1.00  0.00     0.303 C 
ATOM      3  O   UNL     1       4.246   2.072   1.413  1.00  0.00    -0.252 OA
BRANCH   2   4
ATOM      4  O   UNL     1       5.077   0.261   2.461  1.00  0.00    -0.481 OA
ATOM      5  H   UNL     1       5.294   0.521   3.411  1.00  0.00     0.296 HD
ENDBRANCH   2   4
ENDBRANCH   1   2
BRANCH   1   6
ATOM      6  C   UNL     1       6.197   0.859  -0.702  1.00  0.00     0.047 C 
BRANCH   6   7
ATOM      7  C   UNL     1       6.961  -0.306  -1.153  1.00  0.00    -0.043 A 
ATOM      8  C   UNL     1       7.261  -0.502  -2.492  1.00  0.00     0.008 A 
ATOM      9  C   UNL     1       7.371  -1.262  -0.262  1.00  0.00     0.054 A 
ATOM     10  C   UNL     1       7.948  -1.615  -2.922  1.00  0.00     0.051 A 
ATOM     11  C   UNL     1       8.062  -2.387  -0.670  1.00  0.00     0.166 A 
ATOM     12  C   UNL     1       8.353  -2.568  -2.001  1.00  0.00     0.165 A 
ATOM     13  O   UNL     1       8.566  -3.463   0.039  1.00  0.00    -0.454 OA
ATOM     14  O   UNL     1       9.046  -3.775  -2.101  1.00  0.00    -0.454 OA
ATOM     15  C   UNL     1       8.915  -4.495  -0.897  1.00  0.00     0.468 C 
ENDBRANCH   6   7
ENDBRANCH   1   6
TORSDOF 4
ENDMDL
MODEL 5
REMARK VINA RESULT:      -7.3      1.885      5.644
REMARK SMILES O=C(O)CCc1ccc2c(c1)OCO2
REMARK SMILES IDX 4 1 2 2 1 3 3 4 5 6 6 7 7 8 11 9 8 10 10 11 9 12 12 13 14 14
REMARK SMILES IDX 13 15
REMARK H PARENT 3 5
REMARK Flexibility Score: inf
ROOT
ATOM      1  C   UNL     1       8.173  -0.853  -2.082  1.00  0.00     0.127 C 
ENDROOT
BRANCH   1   2
ATOM      2  C   UNL     1       8.430  -2.014  -2.919  1.00  0.00     0.303 C 
ATOM      3  O   UNL     1       9.536  -2.516  -3.130  1.00  0.00    -0.252 OA
BRANCH   2   4
ATOM      4  O   UNL     1       7.326  -2.618  -3.542  1.00  0.00    -0.481 OA
ATOM      5  H   UNL     1       7.150  -3.580  -3.300  1.00  0.00     0.296 HD
ENDBRANCH   2   4
ENDBRANCH   1   2
BRANCH   1   6
ATOM      6  C   UNL     1       7.130  -1.072  -1.057  1.00  0.00     0.047 C 
BRANCH   6   7
ATOM      7  C   UNL     1       6.749   0.071  -0.224  1.00  0.00    -0.043 A 
ATOM      8  C   UNL     1       5.849  -0.063   0.822  1.00  0.00     0.008 A 
ATOM      9  C   UNL     1       7.247   1.321  -0.481  1.00  0.00     0.054 A 
ATOM     10  C   UNL     1       5.462   1.018   1.583  1.00  0.00     0.051 A 
ATOM     11  C   UNL     1       6.874   2.420   0.271  1.00  0.00     0.166 A 
ATOM     12  C   UNL     1       5.981   2.272   1.305  1.00  0.00     0.165 A 
ATOM     13  O   UNL     1       7.241   3.752   0.195  1.00  0.00    -0.454 OA
ATOM     14  O   UNL     1       5.803   3.537   1.866  1.00  0.00    -0.454 OA
ATOM     15  C   UNL     1       6.330   4.515   1.000  1.00  0.00     0.468 C 
ENDBRANCH   6   7
ENDBRANCH   1   6
TORSDOF 4
ENDMDL
