MODEL 1
REMARK VINA RESULT:      -7.8      0.000      0.000
REMARK SMILES O=C(O)CCc1ccc2c(c1)OCO2
REMARK SMILES IDX 4 1 2 2 1 3 3 4 5 6 6 7 7 8 11 9 8 10 10 11 9 12 12 13 14 14
REMARK SMILES IDX 13 15
REMARK H PARENT 3 5
REMARK Flexibility Score: inf
ROOT
ATOM      1  C   UNL     1       6.378   1.372   0.614  1.00  0.00     0.127 C 
ENDROOT
BRANCH   1   2
ATOM      2  C   UNL     1       5.195   1.307   1.457  1.00  0.00     0.303 C 
ATOM      3  O   UNL     1       4.223   2.062   1.389  1.00  0.00    -0.252 OA
BRANCH   2   4
ATOM      4  O   UNL     1       5.154   0.300   2.435  1.00  0.00    -0.481 OA
ATOM      5  H   UNL     1       4.464  -0.422   2.301  1.00  0.00     0.296 HD
ENDBRANCH   2   4
ENDBRANCH   1   2
BRANCH   1   6
ATOM      6  C   UNL     1       6.170   0.847  -0.752  1.00  0.00     0.047 C 
BRANCH   6   7
ATOM      7  C   UNL     1       6.940  -0.335  -1.148  1.00  0.00    -0.043 A 
ATOM      8  C   UNL     1       7.272  -0.574  -2.472  1.00  0.00     0.008 A 
ATOM      9  C   UNL     1       7.322  -1.265  -0.218  1.00  0.00     0.054 A 
ATOM     10  C   UNL     1       7.964  -1.703  -2.850  1.00  0.00     0.051 A 
ATOM     11  C   UNL     1       8.017  -2.405  -0.573  1.00  0.00     0.166 A 
ATOM     12  C   UNL     1       8.341  -2.628  -1.890  1.00  0.00     0.165 A 
ATOM     13  O   UNL     1       8.497  -3.461   0.181  1.00  0.00    -0.454 OA
ATOM     14  O   UNL     1       9.030  -3.841  -1.936  1.00  0.00    -0.454 OA
ATOM     15  C   UNL     1       8.864  -4.522  -0.714  1.00  0.00     0.468 C 
ENDBRANCH   6   7
ENDBRANCH   1   6
TORSDOF 4
ENDMDL
MODEL 2
REMARK VINA RESULT:      -7.8      1.986      2.879
REMARK SMILES O=C(O)CCc1ccc2c(c1)OCO2
REMARK SMILES IDX 4 1 2 2 1 3 3 4 5 6 6 7 7 8 11 9 8 10 10 11 9 12 12 13 14 14
REMARK SMILES IDX 13 15
REMARK H PARENT 3 5
REMARK Flexibility Score: inf
ROOT
ATOM      1  C   UNL     1       5.546   2.861   0.258  1.00  0.00     0.127 C 
ENDROOT
BRANCH   1   2
ATOM      2  C   UNL     1       6.293   3.954   0.860  1.00  0.00     0.303 C 
ATOM      3  O   UNL     1       6.980   4.775   0.250  1.00  0.00    -0.252 OA
BRANCH   2   4
ATOM      4  O   UNL     1       6.229   4.087   2.256  1.00  0.00    -0.481 OA
ATOM      5  H   UNL     1       5.395   4.519   2.624  1.00  0.00     0.296 HD
ENDBRANCH   2   4
ENDBRANCH   1   2
BRANCH   1   6
ATOM      6  C   UNL     1       5.520   1.630   1.076  1.00  0.00     0.047 C 
BRANCH   6   7
ATOM      7  C   UNL     1       6.296   0.483   0.599  1.00  0.00    -0.043 A 
ATOM      8  C   UNL     1       7.136  -0.226   1.444  1.00  0.00     0.008 A 
ATOM      9  C   UNL     1       6.244   0.101  -0.715  1.00  0.00     0.054 A 
ATOM     10  C   UNL     1       7.894  -1.281   0.988  1.00  0.00     0.051 A 
ATOM     11  C   UNL     1       6.995  -0.956  -1.195  1.00  0.00     0.166 A 
ATOM     12  C   UNL     1       7.822  -1.650  -0.345  1.00  0.00     0.165 A 
ATOM     13  O   UNL     1       7.100  -1.510  -2.459  1.00  0.00    -0.454 OA
ATOM     14  O   UNL     1       8.440  -2.643  -1.107  1.00  0.00    -0.454 OA
ATOM     15  C   UNL     1       8.245  -2.375  -2.476  1.00  0.00     0.468 C 
ENDBRANCH   6   7
ENDBRANCH   1   6
TORSDOF 4
ENDMDL
MODEL 3
REMARK VINA RESULT:      -7.7      1.840      2.371
REMARK SMILES O=C(O)CCc1ccc2c(c1)OCO2
REMARK SMILES IDX 4 1 2 2 1 3 3 4 5 6 6 7 7 8 11 9 8 10 10 11 9 12 12 13 14 14
REMARK SMILES IDX 13 15
REMARK H PARENT 3 5
REMARK Flexibility Score: inf
ROOT
ATOM      1  C   UNL     1       4.752   1.864   0.713  1.00  0.00     0.127 C 
ENDROOT
BRANCH   1   2
ATOM      2  C   UNL     1       4.358   1.192   1.941  1.00  0.00     0.303 C 
ATOM      3  O   UNL     1       3.291   1.352   2.536  1.00  0.00    -0.252 OA
BRANCH   2   4
ATOM      4  O   UNL     1       5.270   0.282   2.499  1.00  0.00    -0.481 OA
ATOM      5  H   UNL     1       4.949  -0.669   2.594  1.00  0.00     0.296 HD
ENDBRANCH   2   4
ENDBRANCH   1   2
BRANCH   1   6
ATOM      6  C   UNL     1       6.197   2.167   0.631  1.00  0.00     0.047 C 
BRANCH   6   7
ATOM      7  C   UNL     1       7.029   1.282  -0.186  1.00  0.00    -0.043 A 
ATOM      8  C   UNL     1       8.379   1.532  -0.380  1.00  0.00     0.008 A 
ATOM      9  C   UNL     1       6.485   0.195  -0.817  1.00  0.00     0.054 A 
ATOM     10  C   UNL     1       9.155   0.721  -1.178  1.00  0.00     0.051 A 
ATOM     11  C   UNL     1       7.245  -0.633  -1.622  1.00  0.00     0.166 A 
ATOM     12  C   UNL     1       8.582  -0.374  -1.805  1.00  0.00     0.165 A 
ATOM     13  O   UNL     1       6.916  -1.766  -2.345  1.00  0.00    -0.454 OA
ATOM     14  O   UNL     1       9.073  -1.367  -2.654  1.00  0.00    -0.454 OA
ATOM     15  C   UNL     1       7.995  -2.054  -3.247  1.00  0.00     0.468 C 
ENDBRANCH   6   7
ENDBRANCH   1   6
TORSDOF 4
ENDMDL
MODEL 4
REMARK VINA RESULT:      -7.5      1.710      2.183
REMARK SMILES O=C(O)CCc1ccc2c(c1)OCO2
REMARK SMILES IDX 4 1 2 2 1 3 3 4 5 6 6 7 7 8 11 9 8 10 10 11 9 12 12 13 14 14
REMARK SMILES IDX 13 15
REMARK H PARENT 3 5
REMARK Flexibility Score: inf
ROOT
ATOM      1  C   UNL     1       5.780   2.510   0.624  1.00  0.00     0.127 C 
ENDROOT
BRANCH   1   2
ATOM      2  C   UNL     1       6.308   3.756   1.158  1.00  0.00     0.303 C 
ATOM      3  O   UNL     1       6.368   4.057   2.351  1.00  0.00    -0.252 OA
BRANCH   2   4
ATOM      4  O   UNL     1       6.790   4.699   0.236  1.00  0.00    -0.481 OA
ATOM      5  H   UNL     1       7.762   4.616  -0.018  1.00  0.00     0.296 HD
ENDBRANCH   2   4
ENDBRANCH   1   2
BRANCH   1   6
ATOM      6  C   UNL     1       6.258   1.304   1.334  1.00  0.00     0.047 C 
BRANCH   6   7
ATOM      7  C   UNL     1       6.798   0.210   0.523  1.00  0.00    -0.043 A 
ATOM      8  C   UNL     1       6.600   0.159  -0.848  1.00  0.00     0.008 A 
ATOM      9  C   UNL     1       7.485  -0.821   1.107  1.00  0.00     0.054 A 
ATOM     10  C   UNL     1       7.076  -0.887  -1.607  1.00  0.00     0.051 A 
ATOM     11  C   UNL     1       7.972  -1.880   0.365  1.00  0.00     0.166 A 
ATOM     12  C   UNL     1       7.770  -1.918  -0.993  1.00  0.00     0.165 A 
ATOM     13  O   UNL     1       8.682  -3.010   0.734  1.00  0.00    -0.454 OA
ATOM     14  O   UNL     1       8.368  -3.090  -1.457  1.00  0.00    -0.454 OA
ATOM     15  C   UNL     1       8.663  -3.932  -0.367  1.00  0.00     0.468 C 
ENDBRANCH   6   7
ENDBRANCH   1   6
TORSDOF 4
ENDMDL
MODEL 5
REMARK VINA RESULT:      -7.3      1.826      5.470
REMARK SMILES O=C(O)CCc1ccc2c(c1)OCO2
REMARK SMILES IDX 4 1 2 2 1 3 3 4 5 6 6 7 7 8 11 9 8 10 10 11 9 12 12 13 14 14
REMARK SMILES IDX 13 15
REMARK H PARENT 3 5
REMARK Flexibility Score: inf
ROOT
ATOM      1  C   UNL     1       8.396  -0.308  -3.079  1.00  0.00     0.127 C 
ENDROOT
BRANCH   1   2
ATOM      2  C   UNL     1       8.515  -1.754  -3.172  1.00  0.00     0.303 C 
ATOM      3  O   UNL     1       9.563  -2.396  -3.071  1.00  0.00    -0.252 OA
BRANCH   2   4
ATOM      4  O   UNL     1       7.338  -2.485  -3.397  1.00  0.00    -0.481 OA
ATOM      5  H   UNL     1       7.438  -3.340  -3.922  1.00  0.00     0.296 HD
ENDBRANCH   2   4
ENDBRANCH   1   2
BRANCH   1   6
ATOM      6  C   UNL     1       8.953   0.261  -1.832  1.00  0.00     0.047 C 
BRANCH   6   7
ATOM      7  C   UNL     1       8.084   0.289  -0.654  1.00  0.00    -0.043 A 
ATOM      8  C   UNL     1       8.339  -0.505   0.454  1.00  0.00     0.008 A 
ATOM      9  C   UNL     1       6.965   1.079  -0.627  1.00  0.00     0.054 A 
ATOM     10  C   UNL     1       7.503  -0.507   1.548  1.00  0.00     0.051 A 
ATOM     11  C   UNL     1       6.113   1.094   0.460  1.00  0.00     0.166 A 
ATOM     12  C   UNL     1       6.378   0.302   1.551  1.00  0.00     0.165 A 
ATOM     13  O   UNL     1       4.947   1.799   0.704  1.00  0.00    -0.454 OA
ATOM     14  O   UNL     1       5.355   0.530   2.473  1.00  0.00    -0.454 OA
ATOM     15  C   UNL     1       4.297   1.214   1.842  1.00  0.00     0.468 C 
ENDBRANCH   6   7
ENDBRANCH   1   6
TORSDOF 4
ENDMDL
