@<TRIPOS>MOLECULE
/home/cewinharhar/GITHUB/reincatalyze/data/processed/docking_pred/2023-May-17-1006_maxeplen10_maxtrainstep1000_seadep16_gamma099_lrac9e-4_lrcr1e-3_sub6/96aa1335557473cc7235c71144735280de1f686e_ligand_6.pdbqt
 15 16 0 0 0
SMALL
GASTEIGER

@<TRIPOS>ATOM
      1  C          6.3780    1.3720    0.6140 C.3     1  UNL1        0.1270
      2  C          5.1950    1.3070    1.4570 C.2     1  UNL1        0.3030
      3  O          4.2230    2.0620    1.3890 O.2     1  UNL1       -0.2520
      4  O          5.1540    0.3000    2.4350 O.3     1  UNL1       -0.4810
      5  H          4.4640   -0.4220    2.3010 H       1  UNL1        0.2960
      6  C          6.1700    0.8470   -0.7520 C.3     1  UNL1        0.0470
      7  C          6.9400   -0.3350   -1.1480 C.2     1  UNL1       -0.0430
      8  C          7.2720   -0.5740   -2.4720 C.2     1  UNL1        0.0080
      9  C          7.3220   -1.2650   -0.2180 C.2     1  UNL1        0.0540
     10  C          7.9640   -1.7030   -2.8500 C.2     1  UNL1        0.0510
     11  C          8.0170   -2.4050   -0.5730 C.2     1  UNL1        0.1660
     12  C          8.3410   -2.6280   -1.8900 C.2     1  UNL1        0.1650
     13  O          8.4970   -3.4610    0.1810 O.2     1  UNL1       -0.4540
     14  O          9.0300   -3.8410   -1.9360 O.2     1  UNL1       -0.4540
     15  C          8.8640   -4.5220   -0.7140 C.3     1  UNL1        0.4680
@<TRIPOS>BOND
     1    10     8    1
     2    10    12    2
     3     8     7    2
     4    14    12    1
     5    14    15    1
     6    12    11    1
     7     7     6    1
     8     7     9    1
     9     6     1    1
    10    15    13    1
    11    11     9    2
    12    11    13    1
    13     1     2    1
    14     3     2    2
    15     2     4    1
    16     5     4    1
