@<TRIPOS>MOLECULE
/home/cewinharhar/GITHUB/reincatalyze/data/processed/docking_pred/2023-May-17-1006_maxeplen10_maxtrainstep1000_seadep16_gamma099_lrac9e-4_lrcr1e-3_sub6/96aa1335557473cc7235c71144735280de1f686e_ligand_6.pdbqt
 15 16 0 0 0
SMALL
GASTEIGER

@<TRIPOS>ATOM
      1  C          5.5460    2.8610    0.2580 C.3     1  UNL1        0.1270
      2  C          6.2930    3.9540    0.8600 C.2     1  UNL1        0.3030
      3  O          6.9800    4.7750    0.2500 O.2     1  UNL1       -0.2520
      4  O          6.2290    4.0870    2.2560 O.3     1  UNL1       -0.4810
      5  H          5.3950    4.5190    2.6240 H       1  UNL1        0.2960
      6  C          5.5200    1.6300    1.0760 C.3     1  UNL1        0.0470
      7  C          6.2960    0.4830    0.5990 C.2     1  UNL1       -0.0430
      8  C          7.1360   -0.2260    1.4440 C.2     1  UNL1        0.0080
      9  C          6.2440    0.1010   -0.7150 C.2     1  UNL1        0.0540
     10  C          7.8940   -1.2810    0.9880 C.2     1  UNL1        0.0510
     11  C          6.9950   -0.9560   -1.1950 C.2     1  UNL1        0.1660
     12  C          7.8220   -1.6500   -0.3450 C.2     1  UNL1        0.1650
     13  O          7.1000   -1.5100   -2.4590 O.2     1  UNL1       -0.4540
     14  O          8.4400   -2.6430   -1.1070 O.2     1  UNL1       -0.4540
     15  C          8.2450   -2.3750   -2.4760 C.3     1  UNL1        0.4680
@<TRIPOS>BOND
     1    15    13    1
     2    15    14    1
     3    13    11    1
     4    11     9    1
     5    11    12    2
     6    14    12    1
     7     9     7    2
     8    12    10    1
     9     3     2    2
    10     1     2    1
    11     1     6    1
    12     7     6    1
    13     7     8    1
    14     2     4    1
    15    10     8    2
    16     4     5    1
