@<TRIPOS>MOLECULE
/home/cewinharhar/GITHUB/reincatalyze/data/processed/docking_pred/2023-May-17-1006_maxeplen10_maxtrainstep1000_seadep16_gamma099_lrac9e-4_lrcr1e-3_sub6/96aa1335557473cc7235c71144735280de1f686e_ligand_6.pdbqt
 15 16 0 0 0
SMALL
GASTEIGER

@<TRIPOS>ATOM
      1  C          5.7800    2.5100    0.6240 C.3     1  UNL1        0.1270
      2  C          6.3080    3.7560    1.1580 C.2     1  UNL1        0.3030
      3  O          6.3680    4.0570    2.3510 O.2     1  UNL1       -0.2520
      4  O          6.7900    4.6990    0.2360 O.3     1  UNL1       -0.4810
      5  H          7.7620    4.6160   -0.0180 H       1  UNL1        0.2960
      6  C          6.2580    1.3040    1.3340 C.3     1  UNL1        0.0470
      7  C          6.7980    0.2100    0.5230 C.2     1  UNL1       -0.0430
      8  C          6.6000    0.1590   -0.8480 C.2     1  UNL1        0.0080
      9  C          7.4850   -0.8210    1.1070 C.2     1  UNL1        0.0540
     10  C          7.0760   -0.8870   -1.6070 C.2     1  UNL1        0.0510
     11  C          7.9720   -1.8800    0.3650 C.2     1  UNL1        0.1660
     12  C          7.7700   -1.9180   -0.9930 C.2     1  UNL1        0.1650
     13  O          8.6820   -3.0100    0.7340 O.2     1  UNL1       -0.4540
     14  O          8.3680   -3.0900   -1.4570 O.2     1  UNL1       -0.4540
     15  C          8.6630   -3.9320   -0.3670 C.3     1  UNL1        0.4680
@<TRIPOS>BOND
     1    10    12    2
     2    10     8    1
     3    14    12    1
     4    14    15    1
     5    12    11    1
     6     8     7    2
     7    15    13    1
     8     5     4    1
     9     4     2    1
    10    11    13    1
    11    11     9    2
    12     7     9    1
    13     7     6    1
    14     1     2    1
    15     1     6    1
    16     2     3    2
