@<TRIPOS>MOLECULE
/home/cewinharhar/GITHUB/reincatalyze/data/processed/docking_pred/2023-May-17-1006_maxeplen10_maxtrainstep1000_seadep16_gamma099_lrac9e-4_lrcr1e-3_sub6/96aa1335557473cc7235c71144735280de1f686e_ligand_6.pdbqt
 15 16 0 0 0
SMALL
GASTEIGER

@<TRIPOS>ATOM
      1  C          4.7520    1.8640    0.7130 C.3     1  UNL1        0.1270
      2  C          4.3580    1.1920    1.9410 C.2     1  UNL1        0.3030
      3  O          3.2910    1.3520    2.5360 O.2     1  UNL1       -0.2520
      4  O          5.2700    0.2820    2.4990 O.3     1  UNL1       -0.4810
      5  H          4.9490   -0.6690    2.5940 H       1  UNL1        0.2960
      6  C          6.1970    2.1670    0.6310 C.3     1  UNL1        0.0470
      7  C          7.0290    1.2820   -0.1860 C.2     1  UNL1       -0.0430
      8  C          8.3790    1.5320   -0.3800 C.2     1  UNL1        0.0080
      9  C          6.4850    0.1950   -0.8170 C.2     1  UNL1        0.0540
     10  C          9.1550    0.7210   -1.1780 C.2     1  UNL1        0.0510
     11  C          7.2450   -0.6330   -1.6220 C.2     1  UNL1        0.1660
     12  C          8.5820   -0.3740   -1.8050 C.2     1  UNL1        0.1650
     13  O          6.9160   -1.7660   -2.3450 O.2     1  UNL1       -0.4540
     14  O          9.0730   -1.3670   -2.6540 O.2     1  UNL1       -0.4540
     15  C          7.9950   -2.0540   -3.2470 C.3     1  UNL1        0.4680
@<TRIPOS>BOND
     1    15    14    1
     2    15    13    1
     3    14    12    1
     4    13    11    1
     5    12    11    2
     6    12    10    1
     7    11     9    1
     8    10     8    2
     9     9     7    2
    10     8     7    1
    11     7     6    1
    12     6     1    1
    13     1     2    1
    14     2     4    1
    15     2     3    2
    16     4     5    1
