@<TRIPOS>MOLECULE
/home/cewinharhar/GITHUB/reincatalyze/data/processed/docking_pred/2023-May-17-1006_maxeplen10_maxtrainstep1000_seadep16_gamma099_lrac9e-4_lrcr1e-3_sub6/96aa1335557473cc7235c71144735280de1f686e_ligand_6.pdbqt
 15 16 0 0 0
SMALL
GASTEIGER

@<TRIPOS>ATOM
      1  C          8.3960   -0.3080   -3.0790 C.3     1  UNL1        0.1270
      2  C          8.5150   -1.7540   -3.1720 C.2     1  UNL1        0.3030
      3  O          9.5630   -2.3960   -3.0710 O.2     1  UNL1       -0.2520
      4  O          7.3380   -2.4850   -3.3970 O.3     1  UNL1       -0.4810
      5  H          7.4380   -3.3400   -3.9220 H       1  UNL1        0.2960
      6  C          8.9530    0.2610   -1.8320 C.3     1  UNL1        0.0470
      7  C          8.0840    0.2890   -0.6540 C.2     1  UNL1       -0.0430
      8  C          8.3390   -0.5050    0.4540 C.2     1  UNL1        0.0080
      9  C          6.9650    1.0790   -0.6270 C.2     1  UNL1        0.0540
     10  C          7.5030   -0.5070    1.5480 C.2     1  UNL1        0.0510
     11  C          6.1130    1.0940    0.4600 C.2     1  UNL1        0.1660
     12  C          6.3780    0.3020    1.5510 C.2     1  UNL1        0.1650
     13  O          4.9470    1.7990    0.7040 O.2     1  UNL1       -0.4540
     14  O          5.3550    0.5300    2.4730 O.2     1  UNL1       -0.4540
     15  C          4.2970    1.2140    1.8420 C.3     1  UNL1        0.4680
@<TRIPOS>BOND
     1     5     4    1
     2     4     2    1
     3     2     1    1
     4     2     3    2
     5     1     6    1
     6     6     7    1
     7     7     9    2
     8     7     8    1
     9     9    11    1
    10     8    10    2
    11    11    13    1
    12    11    12    2
    13    13    15    1
    14    10    12    1
    15    12    14    1
    16    15    14    1
