@<TRIPOS>MOLECULE
/home/cewinharhar/GITHUB/reincatalyze/data/processed/docking_pred/2023-May-17-1006_maxeplen10_maxtrainstep1000_seadep16_gamma099_lrac9e-4_lrcr1e-3_sub6/97a603521aa4ec025b6db977763cb198737ffc85_ligand_6.pdbqt
 15 16 0 0 0
SMALL
GASTEIGER

@<TRIPOS>ATOM
      1  C          6.4260    1.2940    0.7040 C.3     1  UNL1        0.1270
      2  C          5.1740    1.3430    1.4420 C.2     1  UNL1        0.3030
      3  O          4.2710    2.1640    1.2700 O.2     1  UNL1       -0.2520
      4  O          4.9730    0.3710    2.4350 O.3     1  UNL1       -0.4810
      5  H          4.3160   -0.3620    2.2150 H       1  UNL1        0.2960
      6  C          6.2790    0.8580   -0.7010 C.3     1  UNL1        0.0470
      7  C          7.0150   -0.3370   -1.1200 C.2     1  UNL1       -0.0430
      8  C          7.2910   -0.5860   -2.4560 C.2     1  UNL1        0.0080
      9  C          7.4190   -1.2680   -0.2010 C.2     1  UNL1        0.0540
     10  C          7.9520   -1.7270   -2.8540 C.2     1  UNL1        0.0510
     11  C          8.0830   -2.4200   -0.5780 C.2     1  UNL1        0.1660
     12  C          8.3520   -2.6530   -1.9050 C.2     1  UNL1        0.1650
     13  O          8.5780   -3.4800    0.1620 O.2     1  UNL1       -0.4540
     14  O          9.0210   -3.8770   -1.9720 O.2     1  UNL1       -0.4540
     15  C          8.8940   -4.5500   -0.7410 C.3     1  UNL1        0.4680
@<TRIPOS>BOND
     1    10     8    1
     2    10    12    2
     3     8     7    2
     4    14    12    1
     5    14    15    1
     6    12    11    1
     7     7     6    1
     8     7     9    1
     9    15    13    1
    10     6     1    1
    11    11     9    2
    12    11    13    1
    13     1     2    1
    14     3     2    2
    15     2     4    1
    16     5     4    1
