@<TRIPOS>MOLECULE
/home/cewinharhar/GITHUB/reincatalyze/data/processed/docking_pred/2023-May-17-1006_maxeplen10_maxtrainstep1000_seadep16_gamma099_lrac9e-4_lrcr1e-3_sub6/97a603521aa4ec025b6db977763cb198737ffc85_ligand_6.pdbqt
 15 16 0 0 0
SMALL
GASTEIGER

@<TRIPOS>ATOM
      1  C          4.6960    1.8770    0.6800 C.3     1  UNL1        0.1270
      2  C          4.4000    1.1700    1.9160 C.2     1  UNL1        0.3030
      3  O          5.1330    0.3460    2.4650 O.2     1  UNL1       -0.2520
      4  O          3.1730    1.4480    2.5390 O.3     1  UNL1       -0.4810
      5  H          2.5470    2.0590    2.0370 H       1  UNL1        0.2960
      6  C          6.1200    2.2440    0.5260 C.3     1  UNL1        0.0470
      7  C          6.9750    1.3340   -0.2390 C.2     1  UNL1       -0.0430
      8  C          8.3370    1.5580   -0.3710 C.2     1  UNL1        0.0080
      9  C          6.4430    0.2480   -0.8830 C.2     1  UNL1        0.0540
     10  C          9.1360    0.7230   -1.1200 C.2     1  UNL1        0.0510
     11  C          7.2260   -0.6040   -1.6390 C.2     1  UNL1        0.1660
     12  C          8.5740   -0.3700   -1.7600 C.2     1  UNL1        0.1650
     13  O          6.9110   -1.7410   -2.3630 O.2     1  UNL1       -0.4540
     14  O          9.0880   -1.3830   -2.5720 O.2     1  UNL1       -0.4540
     15  C          8.0270   -2.0590   -3.2080 C.3     1  UNL1        0.4680
@<TRIPOS>BOND
     1    15    14    1
     2    15    13    1
     3    14    12    1
     4    13    11    1
     5    12    11    2
     6    12    10    1
     7    11     9    1
     8    10     8    2
     9     9     7    2
    10     8     7    1
    11     7     6    1
    12     6     1    1
    13     1     2    1
    14     2     3    2
    15     2     4    1
    16     5     4    1
