@<TRIPOS>MOLECULE
/home/cewinharhar/GITHUB/reincatalyze/data/processed/docking_pred/2023-May-17-1006_maxeplen10_maxtrainstep1000_seadep16_gamma099_lrac9e-4_lrcr1e-3_sub6/97a603521aa4ec025b6db977763cb198737ffc85_ligand_6.pdbqt
 15 16 0 0 0
SMALL
GASTEIGER

@<TRIPOS>ATOM
      1  C          5.4040    2.8480    0.1440 C.3     1  UNL1        0.1270
      2  C          6.2400    3.8300    0.8170 C.2     1  UNL1        0.3030
      3  O          6.8710    4.7330    0.2650 O.2     1  UNL1       -0.2520
      4  O          6.3380    3.7430    2.2140 O.3     1  UNL1       -0.4810
      5  H          5.7890    3.0210    2.6550 H       1  UNL1        0.2960
      6  C          5.3450    1.5390    0.8300 C.3     1  UNL1        0.0470
      7  C          6.1300    0.4410    0.2620 C.2     1  UNL1       -0.0430
      8  C          6.6030   -0.5950    1.0520 C.2     1  UNL1        0.0080
      9  C          6.4560    0.4280   -1.0680 C.2     1  UNL1        0.0540
     10  C          7.3730   -1.6090    0.5260 C.2     1  UNL1        0.0510
     11  C          7.2260   -0.5790   -1.6180 C.2     1  UNL1        0.1660
     12  C          7.6870   -1.6010   -0.8230 C.2     1  UNL1        0.1650
     13  O          7.6700   -0.7950   -2.9110 O.2     1  UNL1       -0.4540
     14  O          8.4240   -2.4520   -1.6480 O.2     1  UNL1       -0.4540
     15  C          8.6860   -1.8090   -2.8740 C.3     1  UNL1        0.4680
@<TRIPOS>BOND
     1    13    15    1
     2    13    11    1
     3    15    14    1
     4    14    12    1
     5    11     9    1
     6    11    12    2
     7     9     7    2
     8    12    10    1
     9     1     2    1
    10     1     6    1
    11     7     6    1
    12     7     8    1
    13     3     2    2
    14    10     8    2
    15     2     4    1
    16     4     5    1
