@<TRIPOS>MOLECULE
/home/cewinharhar/GITHUB/reincatalyze/data/processed/docking_pred/2023-May-17-1006_maxeplen10_maxtrainstep1000_seadep16_gamma099_lrac9e-4_lrcr1e-3_sub6/97a603521aa4ec025b6db977763cb198737ffc85_ligand_6.pdbqt
 15 16 0 0 0
SMALL
GASTEIGER

@<TRIPOS>ATOM
      1  C          8.2350   -0.2080   -2.8200 C.3     1  UNL1        0.1270
      2  C          8.4810   -1.6240   -3.0430 C.2     1  UNL1        0.3030
      3  O          9.5700   -2.1900   -2.9260 O.2     1  UNL1       -0.2520
      4  O          7.3870   -2.4160   -3.4250 O.3     1  UNL1       -0.4810
      5  H          7.0710   -3.0940   -2.7490 H       1  UNL1        0.2960
      6  C          8.6890    0.2800   -1.5000 C.3     1  UNL1        0.0470
      7  C          7.7340    0.2190   -0.3910 C.2     1  UNL1       -0.0430
      8  C          7.7530   -0.8200    0.5260 C.2     1  UNL1        0.0080
      9  C          6.7630    1.1750   -0.2500 C.2     1  UNL1        0.0540
     10  C          6.8330   -0.8980    1.5470 C.2     1  UNL1        0.0510
     11  C          5.8300    1.1190    0.7680 C.2     1  UNL1        0.1660
     12  C          5.8610    0.0830    1.6700 C.2     1  UNL1        0.1650
     13  O          4.7790    1.9560    1.0990 O.2     1  UNL1       -0.4540
     14  O          4.8110    0.2950    2.5640 O.2     1  UNL1       -0.4540
     15  C          3.9420    1.2750    2.0450 C.3     1  UNL1        0.4680
@<TRIPOS>BOND
     1     4     2    1
     2     4     5    1
     3     2     3    2
     4     2     1    1
     5     1     6    1
     6     6     7    1
     7     7     9    2
     8     7     8    1
     9     9    11    1
    10     8    10    2
    11    11    13    1
    12    11    12    2
    13    13    15    1
    14    10    12    1
    15    12    14    1
    16    15    14    1
