@<TRIPOS>MOLECULE
/home/cewinharhar/GITHUB/reincatalyze/data/processed/docking_pred/2023-May-17-1006_maxeplen10_maxtrainstep1000_seadep16_gamma099_lrac9e-4_lrcr1e-3_sub6/97a603521aa4ec025b6db977763cb198737ffc85_ligand_6.pdbqt
 15 16 0 0 0
SMALL
GASTEIGER

@<TRIPOS>ATOM
      1  C          5.4150    2.6000    0.2020 C.3     1  UNL1        0.1270
      2  C          6.1000    3.6810    0.8940 C.2     1  UNL1        0.3030
      3  O          6.1390    3.8390    2.1150 O.2     1  UNL1       -0.2520
      4  O          6.7760    4.6250    0.1050 O.3     1  UNL1       -0.4810
      5  H          7.7830    4.5980    0.1440 H       1  UNL1        0.2960
      6  C          5.5240    1.2900    0.8780 C.3     1  UNL1        0.0470
      7  C          6.3220    0.2530    0.2200 C.2     1  UNL1       -0.0430
      8  C          6.5100    0.2450   -1.1530 C.2     1  UNL1        0.0080
      9  C          6.8770   -0.7680    0.9450 C.2     1  UNL1        0.0540
     10  C          7.2300   -0.7490   -1.7770 C.2     1  UNL1        0.0510
     11  C          7.6040   -1.7770    0.3400 C.2     1  UNL1        0.1660
     12  C          7.7830   -1.7710   -1.0220 C.2     1  UNL1        0.1650
     13  O          8.2440   -2.8870    0.8620 O.2     1  UNL1       -0.4540
     14  O          8.5450   -2.8980   -1.3330 O.2     1  UNL1       -0.4540
     15  C          8.5750   -3.7660   -0.2240 C.3     1  UNL1        0.4680
@<TRIPOS>BOND
     1    10     8    1
     2    10    12    2
     3    14    12    1
     4    14    15    1
     5     8     7    2
     6    12    11    1
     7    15    13    1
     8     4     5    1
     9     4     2    1
    10     1     6    1
    11     1     2    1
    12     7     6    1
    13     7     9    1
    14    11    13    1
    15    11     9    2
    16     2     3    2
