@<TRIPOS>MOLECULE
/home/cewinharhar/GITHUB/reincatalyze/data/processed/docking_pred/2023-May-17-1006_maxeplen10_maxtrainstep1000_seadep16_gamma099_lrac9e-4_lrcr1e-3_sub6/97b80f67ae9ab19215981068b7c743dd8d1e9d0d_ligand_6.pdbqt
 15 16 0 0 0
SMALL
GASTEIGER

@<TRIPOS>ATOM
      1  C          8.2490   -0.2370   -2.8240 C.3     1  UNL1        0.1270
      2  C          8.4700   -1.6620   -3.0170 C.2     1  UNL1        0.3030
      3  O          9.5530   -2.2410   -2.9070 O.2     1  UNL1       -0.2520
      4  O          7.3580   -2.4460   -3.3600 O.3     1  UNL1       -0.4810
      5  H          7.2890   -2.7240   -4.3270 H       1  UNL1        0.2960
      6  C          8.6980    0.2670   -1.5090 C.3     1  UNL1        0.0470
      7  C          7.7460    0.2030   -0.3980 C.2     1  UNL1       -0.0430
      8  C          7.7700   -0.8360    0.5190 C.2     1  UNL1        0.0080
      9  C          6.7720    1.1560   -0.2550 C.2     1  UNL1        0.0540
     10  C          6.8520   -0.9160    1.5430 C.2     1  UNL1        0.0510
     11  C          5.8410    1.0960    0.7650 C.2     1  UNL1        0.1660
     12  C          5.8780    0.0610    1.6670 C.2     1  UNL1        0.1650
     13  O          4.7890    1.9310    1.0980 O.2     1  UNL1       -0.4540
     14  O          4.8290    0.2700    2.5640 O.2     1  UNL1       -0.4540
     15  C          3.9550    1.2470    2.0460 C.3     1  UNL1        0.4680
@<TRIPOS>BOND
     1     5     4    1
     2     4     2    1
     3     2     3    2
     4     2     1    1
     5     1     6    1
     6     6     7    1
     7     7     9    2
     8     7     8    1
     9     9    11    1
    10     8    10    2
    11    11    13    1
    12    11    12    2
    13    13    15    1
    14    10    12    1
    15    12    14    1
    16    15    14    1
