@<TRIPOS>MOLECULE
/home/cewinharhar/GITHUB/reincatalyze/data/processed/docking_pred/2023-May-17-1006_maxeplen10_maxtrainstep1000_seadep16_gamma099_lrac9e-4_lrcr1e-3_sub6/97b80f67ae9ab19215981068b7c743dd8d1e9d0d_ligand_6.pdbqt
 15 16 0 0 0
SMALL
GASTEIGER

@<TRIPOS>ATOM
      1  C          5.3560    2.9000    0.1300 C.3     1  UNL1        0.1270
      2  C          6.1980    3.8740    0.8060 C.2     1  UNL1        0.3030
      3  O          6.8350    4.7750    0.2580 O.2     1  UNL1       -0.2520
      4  O          6.2950    3.7820    2.2040 O.3     1  UNL1       -0.4810
      5  H          5.5970    4.2830    2.7320 H       1  UNL1        0.2960
      6  C          5.2830    1.5910    0.8150 C.3     1  UNL1        0.0470
      7  C          6.0660    0.4880    0.2530 C.2     1  UNL1       -0.0430
      8  C          6.5160   -0.5580    1.0440 C.2     1  UNL1        0.0080
      9  C          6.4110    0.4780   -1.0730 C.2     1  UNL1        0.0540
     10  C          7.2820   -1.5770    0.5240 C.2     1  UNL1        0.0510
     11  C          7.1780   -0.5340   -1.6160 C.2     1  UNL1        0.1660
     12  C          7.6170   -1.5650   -0.8200 C.2     1  UNL1        0.1650
     13  O          7.6390   -0.7480   -2.9030 O.2     1  UNL1       -0.4540
     14  O          8.3570   -2.4190   -1.6390 O.2     1  UNL1       -0.4540
     15  C          8.6440   -1.7720   -2.8570 C.3     1  UNL1        0.4680
@<TRIPOS>BOND
     1    13    15    1
     2    13    11    1
     3    15    14    1
     4    14    12    1
     5    11     9    1
     6    11    12    2
     7     9     7    2
     8    12    10    1
     9     1     2    1
    10     1     6    1
    11     7     6    1
    12     7     8    1
    13     3     2    2
    14    10     8    2
    15     2     4    1
    16     4     5    1
