@<TRIPOS>MOLECULE
/home/cewinharhar/GITHUB/reincatalyze/data/processed/docking_pred/2023-May-17-1006_maxeplen10_maxtrainstep1000_seadep16_gamma099_lrac9e-4_lrcr1e-3_sub6/97b80f67ae9ab19215981068b7c743dd8d1e9d0d_ligand_6.pdbqt
 15 16 0 0 0
SMALL
GASTEIGER

@<TRIPOS>ATOM
      1  C          5.4640    2.7740    0.0170 C.3     1  UNL1        0.1270
      2  C          6.1590    3.7220    0.8730 C.2     1  UNL1        0.3030
      3  O          6.1990    3.6810    2.1050 O.2     1  UNL1       -0.2520
      4  O          6.8450    4.7750    0.2470 O.3     1  UNL1       -0.4810
      5  H          7.3160    5.4250    0.8570 H       1  UNL1        0.2960
      6  C          5.3600    1.4140    0.5880 C.3     1  UNL1        0.0470
      7  C          6.2150    0.3720    0.0150 C.2     1  UNL1       -0.0430
      8  C          6.5010    0.3330   -1.3410 C.2     1  UNL1        0.0080
      9  C          6.7290   -0.6230    0.8030 C.2     1  UNL1        0.0540
     10  C          7.2750   -0.6670   -1.8860 C.2     1  UNL1        0.0510
     11  C          7.5090   -1.6360    0.2780 C.2     1  UNL1        0.1660
     12  C          7.7850   -1.6620   -1.0680 C.2     1  UNL1        0.1650
     13  O          8.1240   -2.7240    0.8720 O.2     1  UNL1       -0.4540
     14  O          8.5810   -2.7850   -1.2950 O.2     1  UNL1       -0.4540
     15  C          8.5420   -3.6250   -0.1640 C.3     1  UNL1        0.4680
@<TRIPOS>BOND
     1    10     8    1
     2    10    12    2
     3     8     7    2
     4    14    12    1
     5    14    15    1
     6    12    11    1
     7    15    13    1
     8     7     6    1
     9     7     9    1
    10     1     6    1
    11     1     2    1
    12     4     5    1
    13     4     2    1
    14    11     9    2
    15    11    13    1
    16     2     3    2
