@<TRIPOS>MOLECULE
/home/cewinharhar/GITHUB/reincatalyze/data/processed/docking_pred/2023-May-17-1006_maxeplen10_maxtrainstep1000_seadep16_gamma099_lrac9e-4_lrcr1e-3_sub6/97b80f67ae9ab19215981068b7c743dd8d1e9d0d_ligand_6.pdbqt
 15 16 0 0 0
SMALL
GASTEIGER

@<TRIPOS>ATOM
      1  C          6.3980    1.2440    0.6940 C.3     1  UNL1        0.1270
      2  C          5.1640    1.2930    1.4630 C.2     1  UNL1        0.3030
      3  O          4.2790    2.1430    1.3450 O.2     1  UNL1       -0.2520
      4  O          4.9610    0.2880    2.4210 O.3     1  UNL1       -0.4810
      5  H          5.4410    0.4080    3.3000 H       1  UNL1        0.2960
      6  C          6.2180    0.7890   -0.7010 C.3     1  UNL1        0.0470
      7  C          6.9770   -0.3870   -1.1330 C.2     1  UNL1       -0.0430
      8  C          7.2820   -0.6020   -2.4680 C.2     1  UNL1        0.0080
      9  C          7.3770   -1.3330   -0.2270 C.2     1  UNL1        0.0540
     10  C          7.9640   -1.7260   -2.8790 C.2     1  UNL1        0.0510
     11  C          8.0640   -2.4680   -0.6170 C.2     1  UNL1        0.1660
     12  C          8.3600   -2.6680   -1.9440 C.2     1  UNL1        0.1650
     13  O          8.5580   -3.5370    0.1090 O.2     1  UNL1       -0.4540
     14  O          9.0460   -3.8810   -2.0250 O.2     1  UNL1       -0.4540
     15  C          8.9050   -4.5830   -0.8120 C.3     1  UNL1        0.4680
@<TRIPOS>BOND
     1    10     8    1
     2    10    12    2
     3     8     7    2
     4    14    12    1
     5    14    15    1
     6    12    11    1
     7     7     6    1
     8     7     9    1
     9    15    13    1
    10     6     1    1
    11    11     9    2
    12    11    13    1
    13     1     2    1
    14     3     2    2
    15     2     4    1
    16     4     5    1
