MODEL 1
REMARK VINA RESULT:      -7.7      0.000      0.000
REMARK SMILES O=C(O)CCc1ccc2c(c1)OCO2
REMARK SMILES IDX 4 1 2 2 1 3 3 4 5 6 6 7 7 8 11 9 8 10 10 11 9 12 12 13 14 14
REMARK SMILES IDX 13 15
REMARK H PARENT 3 5
REMARK Flexibility Score: inf
ROOT
ATOM      1  C   UNL     1       5.356   2.900   0.130  1.00  0.00     0.127 C 
ENDROOT
BRANCH   1   2
ATOM      2  C   UNL     1       6.198   3.874   0.806  1.00  0.00     0.303 C 
ATOM      3  O   UNL     1       6.835   4.775   0.258  1.00  0.00    -0.252 OA
BRANCH   2   4
ATOM      4  O   UNL     1       6.295   3.782   2.204  1.00  0.00    -0.481 OA
ATOM      5  H   UNL     1       5.597   4.283   2.732  1.00  0.00     0.296 HD
ENDBRANCH   2   4
ENDBRANCH   1   2
BRANCH   1   6
ATOM      6  C   UNL     1       5.283   1.591   0.815  1.00  0.00     0.047 C 
BRANCH   6   7
ATOM      7  C   UNL     1       6.066   0.488   0.253  1.00  0.00    -0.043 A 
ATOM      8  C   UNL     1       6.516  -0.558   1.044  1.00  0.00     0.008 A 
ATOM      9  C   UNL     1       6.411   0.478  -1.073  1.00  0.00     0.054 A 
ATOM     10  C   UNL     1       7.282  -1.577   0.524  1.00  0.00     0.051 A 
ATOM     11  C   UNL     1       7.178  -0.534  -1.616  1.00  0.00     0.166 A 
ATOM     12  C   UNL     1       7.617  -1.565  -0.820  1.00  0.00     0.165 A 
ATOM     13  O   UNL     1       7.639  -0.748  -2.903  1.00  0.00    -0.454 OA
ATOM     14  O   UNL     1       8.357  -2.419  -1.639  1.00  0.00    -0.454 OA
ATOM     15  C   UNL     1       8.644  -1.772  -2.857  1.00  0.00     0.468 C 
ENDBRANCH   6   7
ENDBRANCH   1   6
TORSDOF 4
ENDMDL
MODEL 2
REMARK VINA RESULT:      -7.6      2.137      2.528
REMARK SMILES O=C(O)CCc1ccc2c(c1)OCO2
REMARK SMILES IDX 4 1 2 2 1 3 3 4 5 6 6 7 7 8 11 9 8 10 10 11 9 12 12 13 14 14
REMARK SMILES IDX 13 15
REMARK H PARENT 3 5
REMARK Flexibility Score: inf
ROOT
ATOM      1  C   UNL     1       4.686   1.838   0.691  1.00  0.00     0.127 C 
ENDROOT
BRANCH   1   2
ATOM      2  C   UNL     1       4.390   1.137   1.931  1.00  0.00     0.303 C 
ATOM      3  O   UNL     1       5.121   0.310   2.479  1.00  0.00    -0.252 OA
BRANCH   2   4
ATOM      4  O   UNL     1       3.168   1.426   2.558  1.00  0.00    -0.481 OA
ATOM      5  H   UNL     1       2.570   0.637   2.752  1.00  0.00     0.296 HD
ENDBRANCH   2   4
ENDBRANCH   1   2
BRANCH   1   6
ATOM      6  C   UNL     1       6.108   2.217   0.541  1.00  0.00     0.047 C 
BRANCH   6   7
ATOM      7  C   UNL     1       6.970   1.317  -0.229  1.00  0.00    -0.043 A 
ATOM      8  C   UNL     1       8.330   1.554  -0.361  1.00  0.00     0.008 A 
ATOM      9  C   UNL     1       6.447   0.230  -0.877  1.00  0.00     0.054 A 
ATOM     10  C   UNL     1       9.135   0.729  -1.114  1.00  0.00     0.051 A 
ATOM     11  C   UNL     1       7.236  -0.611  -1.638  1.00  0.00     0.166 A 
ATOM     12  C   UNL     1       8.582  -0.365  -1.759  1.00  0.00     0.165 A 
ATOM     13  O   UNL     1       6.931  -1.747  -2.367  1.00  0.00    -0.454 OA
ATOM     14  O   UNL     1       9.104  -1.370  -2.576  1.00  0.00    -0.454 OA
ATOM     15  C   UNL     1       8.049  -2.052  -3.215  1.00  0.00     0.468 C 
ENDBRANCH   6   7
ENDBRANCH   1   6
TORSDOF 4
ENDMDL
MODEL 3
REMARK VINA RESULT:      -7.5      1.983      2.920
REMARK SMILES O=C(O)CCc1ccc2c(c1)OCO2
REMARK SMILES IDX 4 1 2 2 1 3 3 4 5 6 6 7 7 8 11 9 8 10 10 11 9 12 12 13 14 14
REMARK SMILES IDX 13 15
REMARK H PARENT 3 5
REMARK Flexibility Score: inf
ROOT
ATOM      1  C   UNL     1       6.398   1.244   0.694  1.00  0.00     0.127 C 
ENDROOT
BRANCH   1   2
ATOM      2  C   UNL     1       5.164   1.293   1.463  1.00  0.00     0.303 C 
ATOM      3  O   UNL     1       4.279   2.143   1.345  1.00  0.00    -0.252 OA
BRANCH   2   4
ATOM      4  O   UNL     1       4.961   0.288   2.421  1.00  0.00    -0.481 OA
ATOM      5  H   UNL     1       5.441   0.408   3.300  1.00  0.00     0.296 HD
ENDBRANCH   2   4
ENDBRANCH   1   2
BRANCH   1   6
ATOM      6  C   UNL     1       6.218   0.789  -0.701  1.00  0.00     0.047 C 
BRANCH   6   7
ATOM      7  C   UNL     1       6.977  -0.387  -1.133  1.00  0.00    -0.043 A 
ATOM      8  C   UNL     1       7.282  -0.602  -2.468  1.00  0.00     0.008 A 
ATOM      9  C   UNL     1       7.377  -1.333  -0.227  1.00  0.00     0.054 A 
ATOM     10  C   UNL     1       7.964  -1.726  -2.879  1.00  0.00     0.051 A 
ATOM     11  C   UNL     1       8.064  -2.468  -0.617  1.00  0.00     0.166 A 
ATOM     12  C   UNL     1       8.360  -2.668  -1.944  1.00  0.00     0.165 A 
ATOM     13  O   UNL     1       8.558  -3.537   0.109  1.00  0.00    -0.454 OA
ATOM     14  O   UNL     1       9.046  -3.881  -2.025  1.00  0.00    -0.454 OA
ATOM     15  C   UNL     1       8.905  -4.583  -0.812  1.00  0.00     0.468 C 
ENDBRANCH   6   7
ENDBRANCH   1   6
TORSDOF 4
ENDMDL
MODEL 4
REMARK VINA RESULT:      -7.5      0.967      2.117
REMARK SMILES O=C(O)CCc1ccc2c(c1)OCO2
REMARK SMILES IDX 4 1 2 2 1 3 3 4 5 6 6 7 7 8 11 9 8 10 10 11 9 12 12 13 14 14
REMARK SMILES IDX 13 15
REMARK H PARENT 3 5
REMARK Flexibility Score: inf
ROOT
ATOM      1  C   UNL     1       5.464   2.774   0.017  1.00  0.00     0.127 C 
ENDROOT
BRANCH   1   2
ATOM      2  C   UNL     1       6.159   3.722   0.873  1.00  0.00     0.303 C 
ATOM      3  O   UNL     1       6.199   3.681   2.105  1.00  0.00    -0.252 OA
BRANCH   2   4
ATOM      4  O   UNL     1       6.845   4.775   0.247  1.00  0.00    -0.481 OA
ATOM      5  H   UNL     1       7.316   5.425   0.857  1.00  0.00     0.296 HD
ENDBRANCH   2   4
ENDBRANCH   1   2
BRANCH   1   6
ATOM      6  C   UNL     1       5.360   1.414   0.588  1.00  0.00     0.047 C 
BRANCH   6   7
ATOM      7  C   UNL     1       6.215   0.372   0.015  1.00  0.00    -0.043 A 
ATOM      8  C   UNL     1       6.501   0.333  -1.341  1.00  0.00     0.008 A 
ATOM      9  C   UNL     1       6.729  -0.623   0.803  1.00  0.00     0.054 A 
ATOM     10  C   UNL     1       7.275  -0.667  -1.886  1.00  0.00     0.051 A 
ATOM     11  C   UNL     1       7.509  -1.636   0.278  1.00  0.00     0.166 A 
ATOM     12  C   UNL     1       7.785  -1.662  -1.068  1.00  0.00     0.165 A 
ATOM     13  O   UNL     1       8.124  -2.724   0.872  1.00  0.00    -0.454 OA
ATOM     14  O   UNL     1       8.581  -2.785  -1.295  1.00  0.00    -0.454 OA
ATOM     15  C   UNL     1       8.542  -3.625  -0.164  1.00  0.00     0.468 C 
ENDBRANCH   6   7
ENDBRANCH   1   6
TORSDOF 4
ENDMDL
MODEL 5
REMARK VINA RESULT:      -7.5      1.821      5.262
REMARK SMILES O=C(O)CCc1ccc2c(c1)OCO2
REMARK SMILES IDX 4 1 2 2 1 3 3 4 5 6 6 7 7 8 11 9 8 10 10 11 9 12 12 13 14 14
REMARK SMILES IDX 13 15
REMARK H PARENT 3 5
REMARK Flexibility Score: inf
ROOT
ATOM      1  C   UNL     1       8.249  -0.237  -2.824  1.00  0.00     0.127 C 
ENDROOT
BRANCH   1   2
ATOM      2  C   UNL     1       8.470  -1.662  -3.017  1.00  0.00     0.303 C 
ATOM      3  O   UNL     1       9.553  -2.241  -2.907  1.00  0.00    -0.252 OA
BRANCH   2   4
ATOM      4  O   UNL     1       7.358  -2.446  -3.360  1.00  0.00    -0.481 OA
ATOM      5  H   UNL     1       7.289  -2.724  -4.327  1.00  0.00     0.296 HD
ENDBRANCH   2   4
ENDBRANCH   1   2
BRANCH   1   6
ATOM      6  C   UNL     1       8.698   0.267  -1.509  1.00  0.00     0.047 C 
BRANCH   6   7
ATOM      7  C   UNL     1       7.746   0.203  -0.398  1.00  0.00    -0.043 A 
ATOM      8  C   UNL     1       7.770  -0.836   0.519  1.00  0.00     0.008 A 
ATOM      9  C   UNL     1       6.772   1.156  -0.255  1.00  0.00     0.054 A 
ATOM     10  C   UNL     1       6.852  -0.916   1.543  1.00  0.00     0.051 A 
ATOM     11  C   UNL     1       5.841   1.096   0.765  1.00  0.00     0.166 A 
ATOM     12  C   UNL     1       5.878   0.061   1.667  1.00  0.00     0.165 A 
ATOM     13  O   UNL     1       4.789   1.931   1.098  1.00  0.00    -0.454 OA
ATOM     14  O   UNL     1       4.829   0.270   2.564  1.00  0.00    -0.454 OA
ATOM     15  C   UNL     1       3.955   1.247   2.046  1.00  0.00     0.468 C 
ENDBRANCH   6   7
ENDBRANCH   1   6
TORSDOF 4
ENDMDL
