@<TRIPOS>MOLECULE
/home/cewinharhar/GITHUB/reincatalyze/data/processed/docking_pred/2023-May-17-1006_maxeplen10_maxtrainstep1000_seadep16_gamma099_lrac9e-4_lrcr1e-3_sub6/98720eda2f8b5e3d73e45599e80051818594e19a_ligand_6.pdbqt
 15 16 0 0 0
SMALL
GASTEIGER

@<TRIPOS>ATOM
      1  C          5.4200    2.8750    0.1130 C.3     1  UNL1        0.1270
      2  C          6.2510    3.8520    0.8000 C.2     1  UNL1        0.3030
      3  O          6.8850    4.7600    0.2600 O.2     1  UNL1       -0.2520
      4  O          6.3410    3.7530    2.1970 O.3     1  UNL1       -0.4810
      5  H          7.0920    4.2660    2.6320 H       1  UNL1        0.2960
      6  C          5.3360    1.5690    0.8020 C.3     1  UNL1        0.0470
      7  C          6.1110    0.4590    0.2450 C.2     1  UNL1       -0.0430
      8  C          6.5620   -0.5820    1.0420 C.2     1  UNL1        0.0080
      9  C          6.4480    0.4360   -1.0830 C.2     1  UNL1        0.0540
     10  C          7.3220   -1.6080    0.5270 C.2     1  UNL1        0.0510
     11  C          7.2090   -0.5840   -1.6220 C.2     1  UNL1        0.1660
     12  C          7.6480   -1.6090   -0.8200 C.2     1  UNL1        0.1650
     13  O          7.6610   -0.8100   -2.9100 O.2     1  UNL1       -0.4540
     14  O          8.3800   -2.4730   -1.6360 O.2     1  UNL1       -0.4540
     15  C          8.6630   -1.8370   -2.8610 C.3     1  UNL1        0.4680
@<TRIPOS>BOND
     1    13    15    1
     2    13    11    1
     3    15    14    1
     4    14    12    1
     5    11     9    1
     6    11    12    2
     7     9     7    2
     8    12    10    1
     9     1     2    1
    10     1     6    1
    11     7     6    1
    12     7     8    1
    13     3     2    2
    14    10     8    2
    15     2     4    1
    16     4     5    1
