@<TRIPOS>MOLECULE
/home/cewinharhar/GITHUB/reincatalyze/data/processed/docking_pred/2023-May-17-1006_maxeplen10_maxtrainstep1000_seadep16_gamma099_lrac9e-4_lrcr1e-3_sub6/98720eda2f8b5e3d73e45599e80051818594e19a_ligand_6.pdbqt
 15 16 0 0 0
SMALL
GASTEIGER

@<TRIPOS>ATOM
      1  C          5.3820    2.7200    0.1270 C.3     1  UNL1        0.1270
      2  C          6.1020    3.7280    0.8890 C.2     1  UNL1        0.3030
      3  O          6.1820    3.7760    2.1180 O.2     1  UNL1       -0.2520
      4  O          6.7640    4.7330    0.1660 O.3     1  UNL1       -0.4810
      5  H          6.4100    4.9220   -0.7590 H       1  UNL1        0.2960
      6  C          5.3780    1.3820    0.7540 C.3     1  UNL1        0.0470
      7  C          6.2310    0.3520    0.1560 C.2     1  UNL1       -0.0430
      8  C          6.5210    0.3480   -1.1990 C.2     1  UNL1        0.0080
      9  C          6.7380   -0.6660    0.9190 C.2     1  UNL1        0.0540
     10  C          7.2930   -0.6400   -1.7690 C.2     1  UNL1        0.0510
     11  C          7.5160   -1.6680    0.3700 C.2     1  UNL1        0.1660
     12  C          7.7960   -1.6590   -0.9750 C.2     1  UNL1        0.1650
     13  O          8.1240   -2.7750    0.9370 O.2     1  UNL1       -0.4540
     14  O          8.5880   -2.7790   -1.2300 O.2     1  UNL1       -0.4540
     15  C          8.5420   -3.6490   -0.1220 C.3     1  UNL1        0.4680
@<TRIPOS>BOND
     1    10     8    1
     2    10    12    2
     3    14    12    1
     4    14    15    1
     5     8     7    2
     6    12    11    1
     7     5     4    1
     8    15    13    1
     9     1     6    1
    10     1     2    1
    11     7     6    1
    12     7     9    1
    13     4     2    1
    14    11     9    2
    15    11    13    1
    16     2     3    2
