@<TRIPOS>MOLECULE
/home/cewinharhar/GITHUB/reincatalyze/data/processed/docking_pred/2023-May-17-1006_maxeplen10_maxtrainstep1000_seadep16_gamma099_lrac9e-4_lrcr1e-3_sub6/98720eda2f8b5e3d73e45599e80051818594e19a_ligand_6.pdbqt
 15 16 0 0 0
SMALL
GASTEIGER

@<TRIPOS>ATOM
      1  C          8.3000   -0.3190   -2.8540 C.3     1  UNL1        0.1270
      2  C          8.4680   -1.7480   -3.0680 C.2     1  UNL1        0.3030
      3  O          9.5370   -2.3590   -3.0250 O.2     1  UNL1       -0.2520
      4  O          7.3140   -2.4980   -3.3460 O.3     1  UNL1       -0.4810
      5  H          7.4590   -3.4700   -3.5730 H       1  UNL1        0.2960
      6  C          8.7560    0.1470   -1.5270 C.3     1  UNL1        0.0470
      7  C          7.7900    0.1080   -0.4270 C.2     1  UNL1       -0.0430
      8  C          7.7490   -0.9540    0.4640 C.2     1  UNL1        0.0080
      9  C          6.8690    1.1090   -0.2690 C.2     1  UNL1        0.0540
     10  C          6.8170   -1.0090    1.4770 C.2     1  UNL1        0.0510
     11  C          5.9250    1.0750    0.7410 C.2     1  UNL1        0.1660
     12  C          5.8970    0.0160    1.6170 C.2     1  UNL1        0.1650
     13  O          4.9170    1.9570    1.0860 O.2     1  UNL1       -0.4540
     14  O          4.8510    0.2600    2.5090 O.2     1  UNL1       -0.4540
     15  C          4.0380    1.2960    2.0090 C.3     1  UNL1        0.4680
@<TRIPOS>BOND
     1     5     4    1
     2     4     2    1
     3     2     3    2
     4     2     1    1
     5     1     6    1
     6     6     7    1
     7     7     9    2
     8     7     8    1
     9     9    11    1
    10     8    10    2
    11    11    13    1
    12    11    12    2
    13    13    15    1
    14    10    12    1
    15    12    14    1
    16    15    14    1
