@<TRIPOS>MOLECULE
/home/cewinharhar/GITHUB/reincatalyze/data/processed/docking_pred/2023-May-17-1006_maxeplen10_maxtrainstep1000_seadep16_gamma099_lrac9e-4_lrcr1e-3_sub6/98720eda2f8b5e3d73e45599e80051818594e19a_ligand_6.pdbqt
 15 16 0 0 0
SMALL
GASTEIGER

@<TRIPOS>ATOM
      1  C          4.7050    1.8780    0.6840 C.3     1  UNL1        0.1270
      2  C          4.3850    1.1680    1.9130 C.2     1  UNL1        0.3030
      3  O          5.0970    0.3230    2.4590 O.2     1  UNL1       -0.2520
      4  O          3.1610    1.4690    2.5310 O.3     1  UNL1       -0.4810
      5  H          3.2050    2.0800    3.3320 H       1  UNL1        0.2960
      6  C          6.1340    2.2310    0.5500 C.3     1  UNL1        0.0470
      7  C          6.9850    1.3280   -0.2290 C.2     1  UNL1       -0.0430
      8  C          8.3450    1.5540   -0.3680 C.2     1  UNL1        0.0080
      9  C          6.4490    0.2480   -0.8790 C.2     1  UNL1        0.0540
     10  C          9.1400    0.7270   -1.1290 C.2     1  UNL1        0.0510
     11  C          7.2270   -0.5960   -1.6480 C.2     1  UNL1        0.1660
     12  C          8.5740   -0.3600   -1.7760 C.2     1  UNL1        0.1650
     13  O          6.9080   -1.7260   -2.3800 O.2     1  UNL1       -0.4540
     14  O          9.0830   -1.3650   -2.6000 O.2     1  UNL1       -0.4540
     15  C          8.0190   -2.0360   -3.2360 C.3     1  UNL1        0.4680
@<TRIPOS>BOND
     1    15    14    1
     2    15    13    1
     3    14    12    1
     4    13    11    1
     5    12    11    2
     6    12    10    1
     7    11     9    1
     8    10     8    2
     9     9     7    2
    10     8     7    1
    11     7     6    1
    12     6     1    1
    13     1     2    1
    14     2     3    2
    15     2     4    1
    16     4     5    1
