@<TRIPOS>MOLECULE
/home/cewinharhar/GITHUB/reincatalyze/data/processed/docking_pred/2023-May-17-1006_maxeplen10_maxtrainstep1000_seadep16_gamma099_lrac9e-4_lrcr1e-3_sub6/98720eda2f8b5e3d73e45599e80051818594e19a_ligand_6.pdbqt
 15 16 0 0 0
SMALL
GASTEIGER

@<TRIPOS>ATOM
      1  C          6.4410    1.1170    0.7950 C.3     1  UNL1        0.1270
      2  C          5.1860    1.1570    1.5310 C.2     1  UNL1        0.3030
      3  O          4.8300    0.3450    2.3860 O.2     1  UNL1       -0.2520
      4  O          4.3050    2.2110    1.2440 O.3     1  UNL1       -0.4810
      5  H          4.2440    2.9420    1.9360 H       1  UNL1        0.2960
      6  C          6.2920    0.7290   -0.6240 C.3     1  UNL1        0.0470
      7  C          7.0300   -0.4490   -1.0850 C.2     1  UNL1       -0.0430
      8  C          7.2920   -0.6600   -2.4290 C.2     1  UNL1        0.0080
      9  C          7.4520   -1.4030   -0.1960 C.2     1  UNL1        0.0540
     10  C          7.9550   -1.7850   -2.8670 C.2     1  UNL1        0.0510
     11  C          8.1180   -2.5400   -0.6130 C.2     1  UNL1        0.1660
     12  C          8.3730   -2.7350   -1.9490 C.2     1  UNL1        0.1650
     13  O          8.6280   -3.6160    0.0920 O.2     1  UNL1       -0.4540
     14  O          9.0480   -3.9510   -2.0570 O.2     1  UNL1       -0.4540
     15  C          8.9400   -4.6590   -0.8440 C.3     1  UNL1        0.4680
@<TRIPOS>BOND
     1    10     8    1
     2    10    12    2
     3     8     7    2
     4    14    12    1
     5    14    15    1
     6    12    11    1
     7     7     6    1
     8     7     9    1
     9    15    13    1
    10     6     1    1
    11    11     9    2
    12    11    13    1
    13     1     2    1
    14     4     2    1
    15     4     5    1
    16     2     3    2
