MODEL 1
REMARK VINA RESULT:      -7.6      0.000      0.000
REMARK SMILES O=C(O)CCc1ccc2c(c1)OCO2
REMARK SMILES IDX 4 1 2 2 1 3 3 4 5 6 6 7 7 8 11 9 8 10 10 11 9 12 12 13 14 14
REMARK SMILES IDX 13 15
REMARK H PARENT 3 5
REMARK Flexibility Score: inf
ROOT
ATOM      1  C   UNL     1       5.420   2.875   0.113  1.00  0.00     0.127 C 
ENDROOT
BRANCH   1   2
ATOM      2  C   UNL     1       6.251   3.852   0.800  1.00  0.00     0.303 C 
ATOM      3  O   UNL     1       6.885   4.760   0.260  1.00  0.00    -0.252 OA
BRANCH   2   4
ATOM      4  O   UNL     1       6.341   3.753   2.197  1.00  0.00    -0.481 OA
ATOM      5  H   UNL     1       7.092   4.266   2.632  1.00  0.00     0.296 HD
ENDBRANCH   2   4
ENDBRANCH   1   2
BRANCH   1   6
ATOM      6  C   UNL     1       5.336   1.569   0.802  1.00  0.00     0.047 C 
BRANCH   6   7
ATOM      7  C   UNL     1       6.111   0.459   0.245  1.00  0.00    -0.043 A 
ATOM      8  C   UNL     1       6.562  -0.582   1.042  1.00  0.00     0.008 A 
ATOM      9  C   UNL     1       6.448   0.436  -1.083  1.00  0.00     0.054 A 
ATOM     10  C   UNL     1       7.322  -1.608   0.527  1.00  0.00     0.051 A 
ATOM     11  C   UNL     1       7.209  -0.584  -1.622  1.00  0.00     0.166 A 
ATOM     12  C   UNL     1       7.648  -1.609  -0.820  1.00  0.00     0.165 A 
ATOM     13  O   UNL     1       7.661  -0.810  -2.910  1.00  0.00    -0.454 OA
ATOM     14  O   UNL     1       8.380  -2.473  -1.636  1.00  0.00    -0.454 OA
ATOM     15  C   UNL     1       8.663  -1.837  -2.861  1.00  0.00     0.468 C 
ENDBRANCH   6   7
ENDBRANCH   1   6
TORSDOF 4
ENDMDL
MODEL 2
REMARK VINA RESULT:      -7.6      2.136      2.527
REMARK SMILES O=C(O)CCc1ccc2c(c1)OCO2
REMARK SMILES IDX 4 1 2 2 1 3 3 4 5 6 6 7 7 8 11 9 8 10 10 11 9 12 12 13 14 14
REMARK SMILES IDX 13 15
REMARK H PARENT 3 5
REMARK Flexibility Score: inf
ROOT
ATOM      1  C   UNL     1       4.705   1.878   0.684  1.00  0.00     0.127 C 
ENDROOT
BRANCH   1   2
ATOM      2  C   UNL     1       4.385   1.168   1.913  1.00  0.00     0.303 C 
ATOM      3  O   UNL     1       5.097   0.323   2.459  1.00  0.00    -0.252 OA
BRANCH   2   4
ATOM      4  O   UNL     1       3.161   1.469   2.531  1.00  0.00    -0.481 OA
ATOM      5  H   UNL     1       3.205   2.080   3.332  1.00  0.00     0.296 HD
ENDBRANCH   2   4
ENDBRANCH   1   2
BRANCH   1   6
ATOM      6  C   UNL     1       6.134   2.231   0.550  1.00  0.00     0.047 C 
BRANCH   6   7
ATOM      7  C   UNL     1       6.985   1.328  -0.229  1.00  0.00    -0.043 A 
ATOM      8  C   UNL     1       8.345   1.554  -0.368  1.00  0.00     0.008 A 
ATOM      9  C   UNL     1       6.449   0.248  -0.879  1.00  0.00     0.054 A 
ATOM     10  C   UNL     1       9.140   0.727  -1.129  1.00  0.00     0.051 A 
ATOM     11  C   UNL     1       7.227  -0.596  -1.648  1.00  0.00     0.166 A 
ATOM     12  C   UNL     1       8.574  -0.360  -1.776  1.00  0.00     0.165 A 
ATOM     13  O   UNL     1       6.908  -1.726  -2.380  1.00  0.00    -0.454 OA
ATOM     14  O   UNL     1       9.083  -1.365  -2.600  1.00  0.00    -0.454 OA
ATOM     15  C   UNL     1       8.019  -2.036  -3.236  1.00  0.00     0.468 C 
ENDBRANCH   6   7
ENDBRANCH   1   6
TORSDOF 4
ENDMDL
MODEL 3
REMARK VINA RESULT:      -7.5      1.995      3.017
REMARK SMILES O=C(O)CCc1ccc2c(c1)OCO2
REMARK SMILES IDX 4 1 2 2 1 3 3 4 5 6 6 7 7 8 11 9 8 10 10 11 9 12 12 13 14 14
REMARK SMILES IDX 13 15
REMARK H PARENT 3 5
REMARK Flexibility Score: inf
ROOT
ATOM      1  C   UNL     1       6.441   1.117   0.795  1.00  0.00     0.127 C 
ENDROOT
BRANCH   1   2
ATOM      2  C   UNL     1       5.186   1.157   1.531  1.00  0.00     0.303 C 
ATOM      3  O   UNL     1       4.830   0.345   2.386  1.00  0.00    -0.252 OA
BRANCH   2   4
ATOM      4  O   UNL     1       4.305   2.211   1.244  1.00  0.00    -0.481 OA
ATOM      5  H   UNL     1       4.244   2.942   1.936  1.00  0.00     0.296 HD
ENDBRANCH   2   4
ENDBRANCH   1   2
BRANCH   1   6
ATOM      6  C   UNL     1       6.292   0.729  -0.624  1.00  0.00     0.047 C 
BRANCH   6   7
ATOM      7  C   UNL     1       7.030  -0.449  -1.085  1.00  0.00    -0.043 A 
ATOM      8  C   UNL     1       7.292  -0.660  -2.429  1.00  0.00     0.008 A 
ATOM      9  C   UNL     1       7.452  -1.403  -0.196  1.00  0.00     0.054 A 
ATOM     10  C   UNL     1       7.955  -1.785  -2.867  1.00  0.00     0.051 A 
ATOM     11  C   UNL     1       8.118  -2.540  -0.613  1.00  0.00     0.166 A 
ATOM     12  C   UNL     1       8.373  -2.735  -1.949  1.00  0.00     0.165 A 
ATOM     13  O   UNL     1       8.628  -3.616   0.092  1.00  0.00    -0.454 OA
ATOM     14  O   UNL     1       9.048  -3.951  -2.057  1.00  0.00    -0.454 OA
ATOM     15  C   UNL     1       8.940  -4.659  -0.844  1.00  0.00     0.468 C 
ENDBRANCH   6   7
ENDBRANCH   1   6
TORSDOF 4
ENDMDL
MODEL 4
REMARK VINA RESULT:      -7.5      0.962      2.121
REMARK SMILES O=C(O)CCc1ccc2c(c1)OCO2
REMARK SMILES IDX 4 1 2 2 1 3 3 4 5 6 6 7 7 8 11 9 8 10 10 11 9 12 12 13 14 14
REMARK SMILES IDX 13 15
REMARK H PARENT 3 5
REMARK Flexibility Score: inf
ROOT
ATOM      1  C   UNL     1       5.382   2.720   0.127  1.00  0.00     0.127 C 
ENDROOT
BRANCH   1   2
ATOM      2  C   UNL     1       6.102   3.728   0.889  1.00  0.00     0.303 C 
ATOM      3  O   UNL     1       6.182   3.776   2.118  1.00  0.00    -0.252 OA
BRANCH   2   4
ATOM      4  O   UNL     1       6.764   4.733   0.166  1.00  0.00    -0.481 OA
ATOM      5  H   UNL     1       6.410   4.922  -0.759  1.00  0.00     0.296 HD
ENDBRANCH   2   4
ENDBRANCH   1   2
BRANCH   1   6
ATOM      6  C   UNL     1       5.378   1.382   0.754  1.00  0.00     0.047 C 
BRANCH   6   7
ATOM      7  C   UNL     1       6.231   0.352   0.156  1.00  0.00    -0.043 A 
ATOM      8  C   UNL     1       6.521   0.348  -1.199  1.00  0.00     0.008 A 
ATOM      9  C   UNL     1       6.738  -0.666   0.919  1.00  0.00     0.054 A 
ATOM     10  C   UNL     1       7.293  -0.640  -1.769  1.00  0.00     0.051 A 
ATOM     11  C   UNL     1       7.516  -1.668   0.370  1.00  0.00     0.166 A 
ATOM     12  C   UNL     1       7.796  -1.659  -0.975  1.00  0.00     0.165 A 
ATOM     13  O   UNL     1       8.124  -2.775   0.937  1.00  0.00    -0.454 OA
ATOM     14  O   UNL     1       8.588  -2.779  -1.230  1.00  0.00    -0.454 OA
ATOM     15  C   UNL     1       8.542  -3.649  -0.122  1.00  0.00     0.468 C 
ENDBRANCH   6   7
ENDBRANCH   1   6
TORSDOF 4
ENDMDL
MODEL 5
REMARK VINA RESULT:      -7.4      1.794      5.277
REMARK SMILES O=C(O)CCc1ccc2c(c1)OCO2
REMARK SMILES IDX 4 1 2 2 1 3 3 4 5 6 6 7 7 8 11 9 8 10 10 11 9 12 12 13 14 14
REMARK SMILES IDX 13 15
REMARK H PARENT 3 5
REMARK Flexibility Score: inf
ROOT
ATOM      1  C   UNL     1       8.300  -0.319  -2.854  1.00  0.00     0.127 C 
ENDROOT
BRANCH   1   2
ATOM      2  C   UNL     1       8.468  -1.748  -3.068  1.00  0.00     0.303 C 
ATOM      3  O   UNL     1       9.537  -2.359  -3.025  1.00  0.00    -0.252 OA
BRANCH   2   4
ATOM      4  O   UNL     1       7.314  -2.498  -3.346  1.00  0.00    -0.481 OA
ATOM      5  H   UNL     1       7.459  -3.470  -3.573  1.00  0.00     0.296 HD
ENDBRANCH   2   4
ENDBRANCH   1   2
BRANCH   1   6
ATOM      6  C   UNL     1       8.756   0.147  -1.527  1.00  0.00     0.047 C 
BRANCH   6   7
ATOM      7  C   UNL     1       7.790   0.108  -0.427  1.00  0.00    -0.043 A 
ATOM      8  C   UNL     1       7.749  -0.954   0.464  1.00  0.00     0.008 A 
ATOM      9  C   UNL     1       6.869   1.109  -0.269  1.00  0.00     0.054 A 
ATOM     10  C   UNL     1       6.817  -1.009   1.477  1.00  0.00     0.051 A 
ATOM     11  C   UNL     1       5.925   1.075   0.741  1.00  0.00     0.166 A 
ATOM     12  C   UNL     1       5.897   0.016   1.617  1.00  0.00     0.165 A 
ATOM     13  O   UNL     1       4.917   1.957   1.086  1.00  0.00    -0.454 OA
ATOM     14  O   UNL     1       4.851   0.260   2.509  1.00  0.00    -0.454 OA
ATOM     15  C   UNL     1       4.038   1.296   2.009  1.00  0.00     0.468 C 
ENDBRANCH   6   7
ENDBRANCH   1   6
TORSDOF 4
ENDMDL
