MODEL 1
REMARK VINA RESULT:      -7.6      0.000      0.000
REMARK SMILES O=C(O)CCc1ccc2c(c1)OCO2
REMARK SMILES IDX 4 1 2 2 1 3 3 4 5 6 6 7 7 8 11 9 8 10 10 11 9 12 12 13 14 14
REMARK SMILES IDX 13 15
REMARK H PARENT 3 5
REMARK Flexibility Score: inf
ROOT
ATOM      1  C   UNL     1       5.428   2.876   0.104  1.00  0.00     0.127 C 
ENDROOT
BRANCH   1   2
ATOM      2  C   UNL     1       6.254   3.865   0.778  1.00  0.00     0.303 C 
ATOM      3  O   UNL     1       6.920   4.742   0.224  1.00  0.00    -0.252 OA
BRANCH   2   4
ATOM      4  O   UNL     1       6.298   3.820   2.181  1.00  0.00    -0.481 OA
ATOM      5  H   UNL     1       7.216   3.795   2.597  1.00  0.00     0.296 HD
ENDBRANCH   2   4
ENDBRANCH   1   2
BRANCH   1   6
ATOM      6  C   UNL     1       5.366   1.572   0.798  1.00  0.00     0.047 C 
BRANCH   6   7
ATOM      7  C   UNL     1       6.136   0.464   0.228  1.00  0.00    -0.043 A 
ATOM      8  C   UNL     1       6.568  -0.596   1.010  1.00  0.00     0.008 A 
ATOM      9  C   UNL     1       6.488   0.464  -1.096  1.00  0.00     0.054 A 
ATOM     10  C   UNL     1       7.323  -1.620   0.483  1.00  0.00     0.051 A 
ATOM     11  C   UNL     1       7.244  -0.554  -1.646  1.00  0.00     0.166 A 
ATOM     12  C   UNL     1       7.664  -1.599  -0.860  1.00  0.00     0.165 A 
ATOM     13  O   UNL     1       7.708  -0.760  -2.934  1.00  0.00    -0.454 OA
ATOM     14  O   UNL     1       8.396  -2.454  -1.684  1.00  0.00    -0.454 OA
ATOM     15  C   UNL     1       8.699  -1.798  -2.893  1.00  0.00     0.468 C 
ENDBRANCH   6   7
ENDBRANCH   1   6
TORSDOF 4
ENDMDL
MODEL 2
REMARK VINA RESULT:      -7.6      2.138      2.526
REMARK SMILES O=C(O)CCc1ccc2c(c1)OCO2
REMARK SMILES IDX 4 1 2 2 1 3 3 4 5 6 6 7 7 8 11 9 8 10 10 11 9 12 12 13 14 14
REMARK SMILES IDX 13 15
REMARK H PARENT 3 5
REMARK Flexibility Score: inf
ROOT
ATOM      1  C   UNL     1       4.729   1.881   0.693  1.00  0.00     0.127 C 
ENDROOT
BRANCH   1   2
ATOM      2  C   UNL     1       4.408   1.163   1.916  1.00  0.00     0.303 C 
ATOM      3  O   UNL     1       5.123   0.322   2.462  1.00  0.00    -0.252 OA
BRANCH   2   4
ATOM      4  O   UNL     1       3.178   1.451   2.528  1.00  0.00    -0.481 OA
ATOM      5  H   UNL     1       2.595   0.659   2.751  1.00  0.00     0.296 HD
ENDBRANCH   2   4
ENDBRANCH   1   2
BRANCH   1   6
ATOM      6  C   UNL     1       6.161   2.224   0.556  1.00  0.00     0.047 C 
BRANCH   6   7
ATOM      7  C   UNL     1       7.003   1.318  -0.227  1.00  0.00    -0.043 A 
ATOM      8  C   UNL     1       8.363   1.542  -0.379  1.00  0.00     0.008 A 
ATOM      9  C   UNL     1       6.460   0.237  -0.869  1.00  0.00     0.054 A 
ATOM     10  C   UNL     1       9.149   0.711  -1.146  1.00  0.00     0.051 A 
ATOM     11  C   UNL     1       7.230  -0.611  -1.642  1.00  0.00     0.166 A 
ATOM     12  C   UNL     1       8.576  -0.378  -1.783  1.00  0.00     0.165 A 
ATOM     13  O   UNL     1       6.903  -1.744  -2.368  1.00  0.00    -0.454 OA
ATOM     14  O   UNL     1       9.076  -1.386  -2.609  1.00  0.00    -0.454 OA
ATOM     15  C   UNL     1       8.005  -2.057  -3.232  1.00  0.00     0.468 C 
ENDBRANCH   6   7
ENDBRANCH   1   6
TORSDOF 4
ENDMDL
MODEL 3
REMARK VINA RESULT:      -7.5      1.988      2.891
REMARK SMILES O=C(O)CCc1ccc2c(c1)OCO2
REMARK SMILES IDX 4 1 2 2 1 3 3 4 5 6 6 7 7 8 11 9 8 10 10 11 9 12 12 13 14 14
REMARK SMILES IDX 13 15
REMARK H PARENT 3 5
REMARK Flexibility Score: inf
ROOT
ATOM      1  C   UNL     1       6.411   1.312   0.696  1.00  0.00     0.127 C 
ENDROOT
BRANCH   1   2
ATOM      2  C   UNL     1       5.195   1.291   1.495  1.00  0.00     0.303 C 
ATOM      3  O   UNL     1       4.244   2.064   1.373  1.00  0.00    -0.252 OA
BRANCH   2   4
ATOM      4  O   UNL     1       5.095   0.306   2.490  1.00  0.00    -0.481 OA
ATOM      5  H   UNL     1       5.300   0.603   3.432  1.00  0.00     0.296 HD
ENDBRANCH   2   4
ENDBRANCH   1   2
BRANCH   1   6
ATOM      6  C   UNL     1       6.224   0.842  -0.693  1.00  0.00     0.047 C 
BRANCH   6   7
ATOM      7  C   UNL     1       6.978  -0.341  -1.115  1.00  0.00    -0.043 A 
ATOM      8  C   UNL     1       7.278  -0.572  -2.449  1.00  0.00     0.008 A 
ATOM      9  C   UNL     1       7.377  -1.280  -0.201  1.00  0.00     0.054 A 
ATOM     10  C   UNL     1       7.955  -1.702  -2.851  1.00  0.00     0.051 A 
ATOM     11  C   UNL     1       8.058  -2.421  -0.581  1.00  0.00     0.166 A 
ATOM     12  C   UNL     1       8.349  -2.636  -1.906  1.00  0.00     0.165 A 
ATOM     13  O   UNL     1       8.550  -3.485   0.154  1.00  0.00    -0.454 OA
ATOM     14  O   UNL     1       9.030  -3.852  -1.977  1.00  0.00    -0.454 OA
ATOM     15  C   UNL     1       8.890  -4.541  -0.756  1.00  0.00     0.468 C 
ENDBRANCH   6   7
ENDBRANCH   1   6
TORSDOF 4
ENDMDL
MODEL 4
REMARK VINA RESULT:      -7.4      1.799      5.285
REMARK SMILES O=C(O)CCc1ccc2c(c1)OCO2
REMARK SMILES IDX 4 1 2 2 1 3 3 4 5 6 6 7 7 8 11 9 8 10 10 11 9 12 12 13 14 14
REMARK SMILES IDX 13 15
REMARK H PARENT 3 5
REMARK Flexibility Score: inf
ROOT
ATOM      1  C   UNL     1       8.310  -0.321  -2.846  1.00  0.00     0.127 C 
ENDROOT
BRANCH   1   2
ATOM      2  C   UNL     1       8.469  -1.749  -3.071  1.00  0.00     0.303 C 
ATOM      3  O   UNL     1       9.535  -2.366  -3.036  1.00  0.00    -0.252 OA
BRANCH   2   4
ATOM      4  O   UNL     1       7.310  -2.490  -3.353  1.00  0.00    -0.481 OA
ATOM      5  H   UNL     1       7.241  -2.871  -4.284  1.00  0.00     0.296 HD
ENDBRANCH   2   4
ENDBRANCH   1   2
BRANCH   1   6
ATOM      6  C   UNL     1       8.765   0.131  -1.514  1.00  0.00     0.047 C 
BRANCH   6   7
ATOM      7  C   UNL     1       7.793   0.096  -0.419  1.00  0.00    -0.043 A 
ATOM      8  C   UNL     1       7.739  -0.969   0.468  1.00  0.00     0.008 A 
ATOM      9  C   UNL     1       6.878   1.103  -0.261  1.00  0.00     0.054 A 
ATOM     10  C   UNL     1       6.803  -1.021   1.476  1.00  0.00     0.051 A 
ATOM     11  C   UNL     1       5.930   1.072   0.744  1.00  0.00     0.166 A 
ATOM     12  C   UNL     1       5.889   0.011   1.616  1.00  0.00     0.165 A 
ATOM     13  O   UNL     1       4.926   1.960   1.087  1.00  0.00    -0.454 OA
ATOM     14  O   UNL     1       4.841   0.259   2.504  1.00  0.00    -0.454 OA
ATOM     15  C   UNL     1       4.038   1.303   2.003  1.00  0.00     0.468 C 
ENDBRANCH   6   7
ENDBRANCH   1   6
TORSDOF 4
ENDMDL
MODEL 5
REMARK VINA RESULT:      -7.4      0.938      2.067
REMARK SMILES O=C(O)CCc1ccc2c(c1)OCO2
REMARK SMILES IDX 4 1 2 2 1 3 3 4 5 6 6 7 7 8 11 9 8 10 10 11 9 12 12 13 14 14
REMARK SMILES IDX 13 15
REMARK H PARENT 3 5
REMARK Flexibility Score: inf
ROOT
ATOM      1  C   UNL     1       5.553   2.663   0.134  1.00  0.00     0.127 C 
ENDROOT
BRANCH   1   2
ATOM      2  C   UNL     1       6.169   3.731   0.905  1.00  0.00     0.303 C 
ATOM      3  O   UNL     1       6.154   3.829   2.134  1.00  0.00    -0.252 OA
BRANCH   2   4
ATOM      4  O   UNL     1       6.837   4.738   0.192  1.00  0.00    -0.481 OA
ATOM      5  H   UNL     1       6.713   5.680   0.529  1.00  0.00     0.296 HD
ENDBRANCH   2   4
ENDBRANCH   1   2
BRANCH   1   6
ATOM      6  C   UNL     1       5.653   1.331   0.768  1.00  0.00     0.047 C 
BRANCH   6   7
ATOM      7  C   UNL     1       6.401   0.295   0.053  1.00  0.00    -0.043 A 
ATOM      8  C   UNL     1       6.469   0.275  -1.331  1.00  0.00     0.008 A 
ATOM      9  C   UNL     1       7.028  -0.714   0.736  1.00  0.00     0.054 A 
ATOM     10  C   UNL     1       7.142  -0.719  -2.006  1.00  0.00     0.051 A 
ATOM     11  C   UNL     1       7.710  -1.721   0.080  1.00  0.00     0.166 A 
ATOM     12  C   UNL     1       7.770  -1.727  -1.293  1.00  0.00     0.165 A 
ATOM     13  O   UNL     1       8.404  -2.820   0.554  1.00  0.00    -0.454 OA
ATOM     14  O   UNL     1       8.514  -2.850  -1.659  1.00  0.00    -0.454 OA
ATOM     15  C   UNL     1       8.649  -3.707  -0.548  1.00  0.00     0.468 C 
ENDBRANCH   6   7
ENDBRANCH   1   6
TORSDOF 4
ENDMDL
