@<TRIPOS>MOLECULE
/home/cewinharhar/GITHUB/reincatalyze/data/processed/docking_pred/2023-May-17-1006_maxeplen10_maxtrainstep1000_seadep16_gamma099_lrac9e-4_lrcr1e-3_sub6/98ce2146f260201d1ebb2f82702d5d512d51d1e1_ligand_6.pdbqt
 15 16 0 0 0
SMALL
GASTEIGER

@<TRIPOS>ATOM
      1  C          4.7290    1.8810    0.6930 C.3     1  UNL1        0.1270
      2  C          4.4080    1.1630    1.9160 C.2     1  UNL1        0.3030
      3  O          5.1230    0.3220    2.4620 O.2     1  UNL1       -0.2520
      4  O          3.1780    1.4510    2.5280 O.3     1  UNL1       -0.4810
      5  H          2.5950    0.6590    2.7510 H       1  UNL1        0.2960
      6  C          6.1610    2.2240    0.5560 C.3     1  UNL1        0.0470
      7  C          7.0030    1.3180   -0.2270 C.2     1  UNL1       -0.0430
      8  C          8.3630    1.5420   -0.3790 C.2     1  UNL1        0.0080
      9  C          6.4600    0.2370   -0.8690 C.2     1  UNL1        0.0540
     10  C          9.1490    0.7110   -1.1460 C.2     1  UNL1        0.0510
     11  C          7.2300   -0.6110   -1.6420 C.2     1  UNL1        0.1660
     12  C          8.5760   -0.3780   -1.7830 C.2     1  UNL1        0.1650
     13  O          6.9030   -1.7440   -2.3680 O.2     1  UNL1       -0.4540
     14  O          9.0760   -1.3860   -2.6090 O.2     1  UNL1       -0.4540
     15  C          8.0050   -2.0570   -3.2320 C.3     1  UNL1        0.4680
@<TRIPOS>BOND
     1    15    14    1
     2    15    13    1
     3    14    12    1
     4    13    11    1
     5    12    11    2
     6    12    10    1
     7    11     9    1
     8    10     8    2
     9     9     7    2
    10     8     7    1
    11     7     6    1
    12     6     1    1
    13     1     2    1
    14     2     3    2
    15     2     4    1
    16     4     5    1
