@<TRIPOS>MOLECULE
/home/cewinharhar/GITHUB/reincatalyze/data/processed/docking_pred/2023-May-17-1006_maxeplen10_maxtrainstep1000_seadep16_gamma099_lrac9e-4_lrcr1e-3_sub6/98ce2146f260201d1ebb2f82702d5d512d51d1e1_ligand_6.pdbqt
 15 16 0 0 0
SMALL
GASTEIGER

@<TRIPOS>ATOM
      1  C          5.4280    2.8760    0.1040 C.3     1  UNL1        0.1270
      2  C          6.2540    3.8650    0.7780 C.2     1  UNL1        0.3030
      3  O          6.9200    4.7420    0.2240 O.2     1  UNL1       -0.2520
      4  O          6.2980    3.8200    2.1810 O.3     1  UNL1       -0.4810
      5  H          7.2160    3.7950    2.5970 H       1  UNL1        0.2960
      6  C          5.3660    1.5720    0.7980 C.3     1  UNL1        0.0470
      7  C          6.1360    0.4640    0.2280 C.2     1  UNL1       -0.0430
      8  C          6.5680   -0.5960    1.0100 C.2     1  UNL1        0.0080
      9  C          6.4880    0.4640   -1.0960 C.2     1  UNL1        0.0540
     10  C          7.3230   -1.6200    0.4830 C.2     1  UNL1        0.0510
     11  C          7.2440   -0.5540   -1.6460 C.2     1  UNL1        0.1660
     12  C          7.6640   -1.5990   -0.8600 C.2     1  UNL1        0.1650
     13  O          7.7080   -0.7600   -2.9340 O.2     1  UNL1       -0.4540
     14  O          8.3960   -2.4540   -1.6840 O.2     1  UNL1       -0.4540
     15  C          8.6990   -1.7980   -2.8930 C.3     1  UNL1        0.4680
@<TRIPOS>BOND
     1    13    15    1
     2    13    11    1
     3    15    14    1
     4    14    12    1
     5    11     9    1
     6    11    12    2
     7     9     7    2
     8    12    10    1
     9     1     2    1
    10     1     6    1
    11     3     2    2
    12     7     6    1
    13     7     8    1
    14    10     8    2
    15     2     4    1
    16     4     5    1
