@<TRIPOS>MOLECULE
/home/cewinharhar/GITHUB/reincatalyze/data/processed/docking_pred/2023-May-17-1006_maxeplen10_maxtrainstep1000_seadep16_gamma099_lrac9e-4_lrcr1e-3_sub6/98ce2146f260201d1ebb2f82702d5d512d51d1e1_ligand_6.pdbqt
 15 16 0 0 0
SMALL
GASTEIGER

@<TRIPOS>ATOM
      1  C          5.5530    2.6630    0.1340 C.3     1  UNL1        0.1270
      2  C          6.1690    3.7310    0.9050 C.2     1  UNL1        0.3030
      3  O          6.1540    3.8290    2.1340 O.2     1  UNL1       -0.2520
      4  O          6.8370    4.7380    0.1920 O.3     1  UNL1       -0.4810
      5  H          6.7130    5.6800    0.5290 H       1  UNL1        0.2960
      6  C          5.6530    1.3310    0.7680 C.3     1  UNL1        0.0470
      7  C          6.4010    0.2950    0.0530 C.2     1  UNL1       -0.0430
      8  C          6.4690    0.2750   -1.3310 C.2     1  UNL1        0.0080
      9  C          7.0280   -0.7140    0.7360 C.2     1  UNL1        0.0540
     10  C          7.1420   -0.7190   -2.0060 C.2     1  UNL1        0.0510
     11  C          7.7100   -1.7210    0.0800 C.2     1  UNL1        0.1660
     12  C          7.7700   -1.7270   -1.2930 C.2     1  UNL1        0.1650
     13  O          8.4040   -2.8200    0.5540 O.2     1  UNL1       -0.4540
     14  O          8.5140   -2.8500   -1.6590 O.2     1  UNL1       -0.4540
     15  C          8.6490   -3.7070   -0.5480 C.3     1  UNL1        0.4680
@<TRIPOS>BOND
     1    10     8    1
     2    10    12    2
     3    14    12    1
     4    14    15    1
     5     8     7    2
     6    12    11    1
     7    15    13    1
     8     7     9    1
     9     7     6    1
    10    11    13    1
    11    11     9    2
    12     1     6    1
    13     1     2    1
    14     4     5    1
    15     4     2    1
    16     2     3    2
