@<TRIPOS>MOLECULE
/home/cewinharhar/GITHUB/reincatalyze/data/processed/docking_pred/2023-May-17-1006_maxeplen10_maxtrainstep1000_seadep16_gamma099_lrac9e-4_lrcr1e-3_sub6/98ce2146f260201d1ebb2f82702d5d512d51d1e1_ligand_6.pdbqt
 15 16 0 0 0
SMALL
GASTEIGER

@<TRIPOS>ATOM
      1  C          6.4110    1.3120    0.6960 C.3     1  UNL1        0.1270
      2  C          5.1950    1.2910    1.4950 C.2     1  UNL1        0.3030
      3  O          4.2440    2.0640    1.3730 O.2     1  UNL1       -0.2520
      4  O          5.0950    0.3060    2.4900 O.3     1  UNL1       -0.4810
      5  H          5.3000    0.6030    3.4320 H       1  UNL1        0.2960
      6  C          6.2240    0.8420   -0.6930 C.3     1  UNL1        0.0470
      7  C          6.9780   -0.3410   -1.1150 C.2     1  UNL1       -0.0430
      8  C          7.2780   -0.5720   -2.4490 C.2     1  UNL1        0.0080
      9  C          7.3770   -1.2800   -0.2010 C.2     1  UNL1        0.0540
     10  C          7.9550   -1.7020   -2.8510 C.2     1  UNL1        0.0510
     11  C          8.0580   -2.4210   -0.5810 C.2     1  UNL1        0.1660
     12  C          8.3490   -2.6360   -1.9060 C.2     1  UNL1        0.1650
     13  O          8.5500   -3.4850    0.1540 O.2     1  UNL1       -0.4540
     14  O          9.0300   -3.8520   -1.9770 O.2     1  UNL1       -0.4540
     15  C          8.8900   -4.5410   -0.7560 C.3     1  UNL1        0.4680
@<TRIPOS>BOND
     1    10     8    1
     2    10    12    2
     3     8     7    2
     4    14    12    1
     5    14    15    1
     6    12    11    1
     7     7     6    1
     8     7     9    1
     9    15    13    1
    10     6     1    1
    11    11     9    2
    12    11    13    1
    13     1     2    1
    14     3     2    2
    15     2     4    1
    16     4     5    1
