@<TRIPOS>MOLECULE
/home/cewinharhar/GITHUB/reincatalyze/data/processed/docking_pred/2023-May-17-1006_maxeplen10_maxtrainstep1000_seadep16_gamma099_lrac9e-4_lrcr1e-3_sub6/98ce2146f260201d1ebb2f82702d5d512d51d1e1_ligand_6.pdbqt
 15 16 0 0 0
SMALL
GASTEIGER

@<TRIPOS>ATOM
      1  C          8.3100   -0.3210   -2.8460 C.3     1  UNL1        0.1270
      2  C          8.4690   -1.7490   -3.0710 C.2     1  UNL1        0.3030
      3  O          9.5350   -2.3660   -3.0360 O.2     1  UNL1       -0.2520
      4  O          7.3100   -2.4900   -3.3530 O.3     1  UNL1       -0.4810
      5  H          7.2410   -2.8710   -4.2840 H       1  UNL1        0.2960
      6  C          8.7650    0.1310   -1.5140 C.3     1  UNL1        0.0470
      7  C          7.7930    0.0960   -0.4190 C.2     1  UNL1       -0.0430
      8  C          7.7390   -0.9690    0.4680 C.2     1  UNL1        0.0080
      9  C          6.8780    1.1030   -0.2610 C.2     1  UNL1        0.0540
     10  C          6.8030   -1.0210    1.4760 C.2     1  UNL1        0.0510
     11  C          5.9300    1.0720    0.7440 C.2     1  UNL1        0.1660
     12  C          5.8890    0.0110    1.6160 C.2     1  UNL1        0.1650
     13  O          4.9260    1.9600    1.0870 O.2     1  UNL1       -0.4540
     14  O          4.8410    0.2590    2.5040 O.2     1  UNL1       -0.4540
     15  C          4.0380    1.3030    2.0030 C.3     1  UNL1        0.4680
@<TRIPOS>BOND
     1     5     4    1
     2     4     2    1
     3     2     3    2
     4     2     1    1
     5     1     6    1
     6     6     7    1
     7     7     9    2
     8     7     8    1
     9     9    11    1
    10     8    10    2
    11    11    13    1
    12    11    12    2
    13    13    15    1
    14    10    12    1
    15    12    14    1
    16    15    14    1
