@<TRIPOS>MOLECULE
/home/cewinharhar/GITHUB/reincatalyze/data/processed/docking_pred/2023-May-17-1006_maxeplen10_maxtrainstep1000_seadep16_gamma099_lrac9e-4_lrcr1e-3_sub6/9a7d3f5f853688f06c0e35b58fb12e655ab1ce10_ligand_6.pdbqt
 15 16 0 0 0
SMALL
GASTEIGER

@<TRIPOS>ATOM
      1  C          5.4190    2.8660    0.1280 C.3     1  UNL1        0.1270
      2  C          6.2490    3.8450    0.8120 C.2     1  UNL1        0.3030
      3  O          6.8860    4.7490    0.2690 O.2     1  UNL1       -0.2520
      4  O          6.3320    3.7560    2.2100 O.3     1  UNL1       -0.4810
      5  H          6.8860    4.4630    2.6690 H       1  UNL1        0.2960
      6  C          5.3510    1.5560    0.8110 C.3     1  UNL1        0.0470
      7  C          6.1350    0.4560    0.2450 C.2     1  UNL1       -0.0430
      8  C          6.5930   -0.5880    1.0330 C.2     1  UNL1        0.0080
      9  C          6.4730    0.4470   -1.0830 C.2     1  UNL1        0.0540
     10  C          7.3610   -1.6050    0.5090 C.2     1  UNL1        0.0510
     11  C          7.2420   -0.5620   -1.6300 C.2     1  UNL1        0.1660
     12  C          7.6880   -1.5910   -0.8370 C.2     1  UNL1        0.1650
     13  O          7.6960   -0.7740   -2.9200 O.2     1  UNL1       -0.4540
     14  O          8.4270   -2.4430   -1.6600 O.2     1  UNL1       -0.4540
     15  C          8.7050   -1.7940   -2.8790 C.3     1  UNL1        0.4680
@<TRIPOS>BOND
     1    13    15    1
     2    13    11    1
     3    15    14    1
     4    14    12    1
     5    11     9    1
     6    11    12    2
     7     9     7    2
     8    12    10    1
     9     1     6    1
    10     1     2    1
    11     7     6    1
    12     7     8    1
    13     3     2    2
    14    10     8    2
    15     2     4    1
    16     4     5    1
