@<TRIPOS>MOLECULE
/home/cewinharhar/GITHUB/reincatalyze/data/processed/docking_pred/2023-May-17-1006_maxeplen10_maxtrainstep1000_seadep16_gamma099_lrac9e-4_lrcr1e-3_sub6/9a7d3f5f853688f06c0e35b58fb12e655ab1ce10_ligand_6.pdbqt
 15 16 0 0 0
SMALL
GASTEIGER

@<TRIPOS>ATOM
      1  C          4.7160    1.8970    0.6810 C.3     1  UNL1        0.1270
      2  C          4.3860    1.1830    1.9040 C.2     1  UNL1        0.3030
      3  O          5.0890    0.3300    2.4480 O.2     1  UNL1       -0.2520
      4  O          3.1610    1.4880    2.5180 O.3     1  UNL1       -0.4810
      5  H          3.1850    2.2050    3.2270 H       1  UNL1        0.2960
      6  C          6.1480    2.2430    0.5550 C.3     1  UNL1        0.0470
      7  C          6.9960    1.3400   -0.2260 C.2     1  UNL1       -0.0430
      8  C          8.3550    1.5720   -0.3770 C.2     1  UNL1        0.0080
      9  C          6.4600    0.2540   -0.8670 C.2     1  UNL1        0.0540
     10  C          9.1470    0.7440   -1.1410 C.2     1  UNL1        0.0510
     11  C          7.2360   -0.5900   -1.6380 C.2     1  UNL1        0.1660
     12  C          8.5810   -0.3490   -1.7780 C.2     1  UNL1        0.1650
     13  O          6.9160   -1.7260   -2.3620 O.2     1  UNL1       -0.4540
     14  O          9.0870   -1.3550   -2.6020 O.2     1  UNL1       -0.4540
     15  C          8.0210   -2.0340   -3.2250 C.3     1  UNL1        0.4680
@<TRIPOS>BOND
     1    15    14    1
     2    15    13    1
     3    14    12    1
     4    13    11    1
     5    12    11    2
     6    12    10    1
     7    11     9    1
     8    10     8    2
     9     9     7    2
    10     8     7    1
    11     7     6    1
    12     6     1    1
    13     1     2    1
    14     2     3    2
    15     2     4    1
    16     4     5    1
