@<TRIPOS>MOLECULE
/home/cewinharhar/GITHUB/reincatalyze/data/processed/docking_pred/2023-May-17-1006_maxeplen10_maxtrainstep1000_seadep16_gamma099_lrac9e-4_lrcr1e-3_sub6/9a7d3f5f853688f06c0e35b58fb12e655ab1ce10_ligand_6.pdbqt
 15 16 0 0 0
SMALL
GASTEIGER

@<TRIPOS>ATOM
      1  C          5.3550    2.9370    0.1750 C.3     1  UNL1        0.1270
      2  C          6.1300    3.9020    0.9380 C.2     1  UNL1        0.3030
      3  O          6.1190    4.0220    2.1650 O.2     1  UNL1       -0.2520
      4  O          6.9640    4.7730    0.2190 O.3     1  UNL1       -0.4810
      5  H          6.6060    5.7020    0.0600 H       1  UNL1        0.2960
      6  C          5.3060    1.5900    0.7830 C.3     1  UNL1        0.0470
      7  C          6.1500    0.5490    0.1930 C.2     1  UNL1       -0.0430
      8  C          6.4210    0.5210   -1.1670 C.2     1  UNL1        0.0080
      9  C          6.6670   -0.4550    0.9670 C.2     1  UNL1        0.0540
     10  C          7.1850   -0.4780   -1.7290 C.2     1  UNL1        0.0510
     11  C          7.4370   -1.4670    0.4250 C.2     1  UNL1        0.1660
     12  C          7.6990   -1.4820   -0.9240 C.2     1  UNL1        0.1650
     13  O          8.0530   -2.5630    1.0030 O.2     1  UNL1       -0.4540
     14  O          8.4870   -2.6080   -1.1690 O.2     1  UNL1       -0.4540
     15  C          8.4560   -3.4570   -0.0450 C.3     1  UNL1        0.4680
@<TRIPOS>BOND
     1    10     8    1
     2    10    12    2
     3    14    12    1
     4    14    15    1
     5     8     7    2
     6    12    11    1
     7    15    13    1
     8     5     4    1
     9     1     6    1
    10     1     2    1
    11     7     6    1
    12     7     9    1
    13     4     2    1
    14    11     9    2
    15    11    13    1
    16     2     3    2
