@<TRIPOS>MOLECULE
/home/cewinharhar/GITHUB/reincatalyze/data/processed/docking_pred/2023-May-17-1006_maxeplen10_maxtrainstep1000_seadep16_gamma099_lrac9e-4_lrcr1e-3_sub6/9a7d3f5f853688f06c0e35b58fb12e655ab1ce10_ligand_6.pdbqt
 15 16 0 0 0
SMALL
GASTEIGER

@<TRIPOS>ATOM
      1  C          8.3110   -0.3230   -2.8650 C.3     1  UNL1        0.1270
      2  C          8.4740   -1.7530   -3.0770 C.2     1  UNL1        0.3030
      3  O          9.5420   -2.3670   -3.0360 O.2     1  UNL1       -0.2520
      4  O          7.3180   -2.5000   -3.3520 O.3     1  UNL1       -0.4810
      5  H          6.7660   -2.7750   -2.5540 H       1  UNL1        0.2960
      6  C          8.7590    0.1420   -1.5350 C.3     1  UNL1        0.0470
      7  C          7.7880    0.1000   -0.4400 C.2     1  UNL1       -0.0430
      8  C          7.7320   -0.9720    0.4380 C.2     1  UNL1        0.0080
      9  C          6.8760    1.1070   -0.2740 C.2     1  UNL1        0.0540
     10  C          6.7960   -1.0300    1.4470 C.2     1  UNL1        0.0510
     11  C          5.9280    1.0710    0.7310 C.2     1  UNL1        0.1660
     12  C          5.8850    0.0030    1.5950 C.2     1  UNL1        0.1650
     13  O          4.9260    1.9590    1.0820 O.2     1  UNL1       -0.4540
     14  O          4.8380    0.2480    2.4850 O.2     1  UNL1       -0.4540
     15  C          4.0370    1.2970    1.9930 C.3     1  UNL1        0.4680
@<TRIPOS>BOND
     1     4     2    1
     2     4     5    1
     3     2     3    2
     4     2     1    1
     5     1     6    1
     6     6     7    1
     7     7     9    2
     8     7     8    1
     9     9    11    1
    10     8    10    2
    11    11    13    1
    12    11    12    2
    13    13    15    1
    14    10    12    1
    15    12    14    1
    16    15    14    1
