MODEL 1
REMARK VINA RESULT:      -7.6      0.000      0.000
REMARK SMILES O=C(O)CCc1ccc2c(c1)OCO2
REMARK SMILES IDX 4 1 2 2 1 3 3 4 5 6 6 7 7 8 11 9 8 10 10 11 9 12 12 13 14 14
REMARK SMILES IDX 13 15
REMARK H PARENT 3 5
REMARK Flexibility Score: inf
ROOT
ATOM      1  C   UNL     1       5.419   2.866   0.128  1.00  0.00     0.127 C 
ENDROOT
BRANCH   1   2
ATOM      2  C   UNL     1       6.249   3.845   0.812  1.00  0.00     0.303 C 
ATOM      3  O   UNL     1       6.886   4.749   0.269  1.00  0.00    -0.252 OA
BRANCH   2   4
ATOM      4  O   UNL     1       6.332   3.756   2.210  1.00  0.00    -0.481 OA
ATOM      5  H   UNL     1       6.886   4.463   2.669  1.00  0.00     0.296 HD
ENDBRANCH   2   4
ENDBRANCH   1   2
BRANCH   1   6
ATOM      6  C   UNL     1       5.351   1.556   0.811  1.00  0.00     0.047 C 
BRANCH   6   7
ATOM      7  C   UNL     1       6.135   0.456   0.245  1.00  0.00    -0.043 A 
ATOM      8  C   UNL     1       6.593  -0.588   1.033  1.00  0.00     0.008 A 
ATOM      9  C   UNL     1       6.473   0.447  -1.083  1.00  0.00     0.054 A 
ATOM     10  C   UNL     1       7.361  -1.605   0.509  1.00  0.00     0.051 A 
ATOM     11  C   UNL     1       7.242  -0.562  -1.630  1.00  0.00     0.166 A 
ATOM     12  C   UNL     1       7.688  -1.591  -0.837  1.00  0.00     0.165 A 
ATOM     13  O   UNL     1       7.696  -0.774  -2.920  1.00  0.00    -0.454 OA
ATOM     14  O   UNL     1       8.427  -2.443  -1.660  1.00  0.00    -0.454 OA
ATOM     15  C   UNL     1       8.705  -1.794  -2.879  1.00  0.00     0.468 C 
ENDBRANCH   6   7
ENDBRANCH   1   6
TORSDOF 4
ENDMDL
MODEL 2
REMARK VINA RESULT:      -7.6      2.128      2.517
REMARK SMILES O=C(O)CCc1ccc2c(c1)OCO2
REMARK SMILES IDX 4 1 2 2 1 3 3 4 5 6 6 7 7 8 11 9 8 10 10 11 9 12 12 13 14 14
REMARK SMILES IDX 13 15
REMARK H PARENT 3 5
REMARK Flexibility Score: inf
ROOT
ATOM      1  C   UNL     1       4.716   1.897   0.681  1.00  0.00     0.127 C 
ENDROOT
BRANCH   1   2
ATOM      2  C   UNL     1       4.386   1.183   1.904  1.00  0.00     0.303 C 
ATOM      3  O   UNL     1       5.089   0.330   2.448  1.00  0.00    -0.252 OA
BRANCH   2   4
ATOM      4  O   UNL     1       3.161   1.488   2.518  1.00  0.00    -0.481 OA
ATOM      5  H   UNL     1       3.185   2.205   3.227  1.00  0.00     0.296 HD
ENDBRANCH   2   4
ENDBRANCH   1   2
BRANCH   1   6
ATOM      6  C   UNL     1       6.148   2.243   0.555  1.00  0.00     0.047 C 
BRANCH   6   7
ATOM      7  C   UNL     1       6.996   1.340  -0.226  1.00  0.00    -0.043 A 
ATOM      8  C   UNL     1       8.355   1.572  -0.377  1.00  0.00     0.008 A 
ATOM      9  C   UNL     1       6.460   0.254  -0.867  1.00  0.00     0.054 A 
ATOM     10  C   UNL     1       9.147   0.744  -1.141  1.00  0.00     0.051 A 
ATOM     11  C   UNL     1       7.236  -0.590  -1.638  1.00  0.00     0.166 A 
ATOM     12  C   UNL     1       8.581  -0.349  -1.778  1.00  0.00     0.165 A 
ATOM     13  O   UNL     1       6.916  -1.726  -2.362  1.00  0.00    -0.454 OA
ATOM     14  O   UNL     1       9.087  -1.355  -2.602  1.00  0.00    -0.454 OA
ATOM     15  C   UNL     1       8.021  -2.034  -3.225  1.00  0.00     0.468 C 
ENDBRANCH   6   7
ENDBRANCH   1   6
TORSDOF 4
ENDMDL
MODEL 3
REMARK VINA RESULT:      -7.5      1.969      2.882
REMARK SMILES O=C(O)CCc1ccc2c(c1)OCO2
REMARK SMILES IDX 4 1 2 2 1 3 3 4 5 6 6 7 7 8 11 9 8 10 10 11 9 12 12 13 14 14
REMARK SMILES IDX 13 15
REMARK H PARENT 3 5
REMARK Flexibility Score: inf
ROOT
ATOM      1  C   UNL     1       6.401   1.320   0.637  1.00  0.00     0.127 C 
ENDROOT
BRANCH   1   2
ATOM      2  C   UNL     1       5.184   1.332   1.435  1.00  0.00     0.303 C 
ATOM      3  O   UNL     1       4.250   2.126   1.306  1.00  0.00    -0.252 OA
BRANCH   2   4
ATOM      4  O   UNL     1       5.062   0.358   2.438  1.00  0.00    -0.481 OA
ATOM      5  H   UNL     1       5.924  -0.026   2.794  1.00  0.00     0.296 HD
ENDBRANCH   2   4
ENDBRANCH   1   2
BRANCH   1   6
ATOM      6  C   UNL     1       6.210   0.816  -0.740  1.00  0.00     0.047 C 
BRANCH   6   7
ATOM      7  C   UNL     1       6.970  -0.372  -1.137  1.00  0.00    -0.043 A 
ATOM      8  C   UNL     1       7.287  -0.619  -2.464  1.00  0.00     0.008 A 
ATOM      9  C   UNL     1       7.360  -1.298  -0.206  1.00  0.00     0.054 A 
ATOM     10  C   UNL     1       7.970  -1.753  -2.843  1.00  0.00     0.051 A 
ATOM     11  C   UNL     1       8.047  -2.442  -0.563  1.00  0.00     0.166 A 
ATOM     12  C   UNL     1       8.354  -2.674  -1.882  1.00  0.00     0.165 A 
ATOM     13  O   UNL     1       8.532  -3.496   0.191  1.00  0.00    -0.454 OA
ATOM     14  O   UNL     1       9.038  -3.890  -1.929  1.00  0.00    -0.454 OA
ATOM     15  C   UNL     1       8.884  -4.564  -0.701  1.00  0.00     0.468 C 
ENDBRANCH   6   7
ENDBRANCH   1   6
TORSDOF 4
ENDMDL
MODEL 4
REMARK VINA RESULT:      -7.4      1.784      5.283
REMARK SMILES O=C(O)CCc1ccc2c(c1)OCO2
REMARK SMILES IDX 4 1 2 2 1 3 3 4 5 6 6 7 7 8 11 9 8 10 10 11 9 12 12 13 14 14
REMARK SMILES IDX 13 15
REMARK H PARENT 3 5
REMARK Flexibility Score: inf
ROOT
ATOM      1  C   UNL     1       8.311  -0.323  -2.865  1.00  0.00     0.127 C 
ENDROOT
BRANCH   1   2
ATOM      2  C   UNL     1       8.474  -1.753  -3.077  1.00  0.00     0.303 C 
ATOM      3  O   UNL     1       9.542  -2.367  -3.036  1.00  0.00    -0.252 OA
BRANCH   2   4
ATOM      4  O   UNL     1       7.318  -2.500  -3.352  1.00  0.00    -0.481 OA
ATOM      5  H   UNL     1       6.766  -2.775  -2.554  1.00  0.00     0.296 HD
ENDBRANCH   2   4
ENDBRANCH   1   2
BRANCH   1   6
ATOM      6  C   UNL     1       8.759   0.142  -1.535  1.00  0.00     0.047 C 
BRANCH   6   7
ATOM      7  C   UNL     1       7.788   0.100  -0.440  1.00  0.00    -0.043 A 
ATOM      8  C   UNL     1       7.732  -0.972   0.438  1.00  0.00     0.008 A 
ATOM      9  C   UNL     1       6.876   1.107  -0.274  1.00  0.00     0.054 A 
ATOM     10  C   UNL     1       6.796  -1.030   1.447  1.00  0.00     0.051 A 
ATOM     11  C   UNL     1       5.928   1.071   0.731  1.00  0.00     0.166 A 
ATOM     12  C   UNL     1       5.885   0.003   1.595  1.00  0.00     0.165 A 
ATOM     13  O   UNL     1       4.926   1.959   1.082  1.00  0.00    -0.454 OA
ATOM     14  O   UNL     1       4.838   0.248   2.485  1.00  0.00    -0.454 OA
ATOM     15  C   UNL     1       4.037   1.297   1.993  1.00  0.00     0.468 C 
ENDBRANCH   6   7
ENDBRANCH   1   6
TORSDOF 4
ENDMDL
MODEL 5
REMARK VINA RESULT:      -7.4      0.947      2.114
REMARK SMILES O=C(O)CCc1ccc2c(c1)OCO2
REMARK SMILES IDX 4 1 2 2 1 3 3 4 5 6 6 7 7 8 11 9 8 10 10 11 9 12 12 13 14 14
REMARK SMILES IDX 13 15
REMARK H PARENT 3 5
REMARK Flexibility Score: inf
ROOT
ATOM      1  C   UNL     1       5.355   2.937   0.175  1.00  0.00     0.127 C 
ENDROOT
BRANCH   1   2
ATOM      2  C   UNL     1       6.130   3.902   0.938  1.00  0.00     0.303 C 
ATOM      3  O   UNL     1       6.119   4.022   2.165  1.00  0.00    -0.252 OA
BRANCH   2   4
ATOM      4  O   UNL     1       6.964   4.773   0.219  1.00  0.00    -0.481 OA
ATOM      5  H   UNL     1       6.606   5.702   0.060  1.00  0.00     0.296 HD
ENDBRANCH   2   4
ENDBRANCH   1   2
BRANCH   1   6
ATOM      6  C   UNL     1       5.306   1.590   0.783  1.00  0.00     0.047 C 
BRANCH   6   7
ATOM      7  C   UNL     1       6.150   0.549   0.193  1.00  0.00    -0.043 A 
ATOM      8  C   UNL     1       6.421   0.521  -1.167  1.00  0.00     0.008 A 
ATOM      9  C   UNL     1       6.667  -0.455   0.967  1.00  0.00     0.054 A 
ATOM     10  C   UNL     1       7.185  -0.478  -1.729  1.00  0.00     0.051 A 
ATOM     11  C   UNL     1       7.437  -1.467   0.425  1.00  0.00     0.166 A 
ATOM     12  C   UNL     1       7.699  -1.482  -0.924  1.00  0.00     0.165 A 
ATOM     13  O   UNL     1       8.053  -2.563   1.003  1.00  0.00    -0.454 OA
ATOM     14  O   UNL     1       8.487  -2.608  -1.169  1.00  0.00    -0.454 OA
ATOM     15  C   UNL     1       8.456  -3.457  -0.045  1.00  0.00     0.468 C 
ENDBRANCH   6   7
ENDBRANCH   1   6
TORSDOF 4
ENDMDL
