@<TRIPOS>MOLECULE
/home/cewinharhar/GITHUB/reincatalyze/data/processed/docking_pred/2023-May-17-1006_maxeplen10_maxtrainstep1000_seadep16_gamma099_lrac9e-4_lrcr1e-3_sub6/9a7d3f5f853688f06c0e35b58fb12e655ab1ce10_ligand_6.pdbqt
 15 16 0 0 0
SMALL
GASTEIGER

@<TRIPOS>ATOM
      1  C          6.4010    1.3200    0.6370 C.3     1  UNL1        0.1270
      2  C          5.1840    1.3320    1.4350 C.2     1  UNL1        0.3030
      3  O          4.2500    2.1260    1.3060 O.2     1  UNL1       -0.2520
      4  O          5.0620    0.3580    2.4380 O.3     1  UNL1       -0.4810
      5  H          5.9240   -0.0260    2.7940 H       1  UNL1        0.2960
      6  C          6.2100    0.8160   -0.7400 C.3     1  UNL1        0.0470
      7  C          6.9700   -0.3720   -1.1370 C.2     1  UNL1       -0.0430
      8  C          7.2870   -0.6190   -2.4640 C.2     1  UNL1        0.0080
      9  C          7.3600   -1.2980   -0.2060 C.2     1  UNL1        0.0540
     10  C          7.9700   -1.7530   -2.8430 C.2     1  UNL1        0.0510
     11  C          8.0470   -2.4420   -0.5630 C.2     1  UNL1        0.1660
     12  C          8.3540   -2.6740   -1.8820 C.2     1  UNL1        0.1650
     13  O          8.5320   -3.4960    0.1910 O.2     1  UNL1       -0.4540
     14  O          9.0380   -3.8900   -1.9290 O.2     1  UNL1       -0.4540
     15  C          8.8840   -4.5640   -0.7010 C.3     1  UNL1        0.4680
@<TRIPOS>BOND
     1    10     8    1
     2    10    12    2
     3     8     7    2
     4    14    12    1
     5    14    15    1
     6    12    11    1
     7     7     6    1
     8     7     9    1
     9     6     1    1
    10    15    13    1
    11    11     9    2
    12    11    13    1
    13     1     2    1
    14     3     2    2
    15     2     4    1
    16     4     5    1
