@<TRIPOS>MOLECULE
/home/cewinharhar/GITHUB/reincatalyze/data/processed/docking_pred/2023-May-17-1006_maxeplen10_maxtrainstep1000_seadep16_gamma099_lrac9e-4_lrcr1e-3_sub6/9c92d7019ca479aa147a964f0da84773825070a7_ligand_6.pdbqt
 15 16 0 0 0
SMALL
GASTEIGER

@<TRIPOS>ATOM
      1  C          5.4240    2.8690    0.1130 C.3     1  UNL1        0.1270
      2  C          6.2500    3.8490    0.8000 C.2     1  UNL1        0.3030
      3  O          6.9160    4.7330    0.2560 O.2     1  UNL1       -0.2520
      4  O          6.2950    3.7860    2.2010 O.3     1  UNL1       -0.4810
      5  H          5.5910    4.3140    2.6930 H       1  UNL1        0.2960
      6  C          5.3560    1.5590    0.7950 C.3     1  UNL1        0.0470
      7  C          6.1310    0.4560    0.2230 C.2     1  UNL1       -0.0430
      8  C          6.5600   -0.6080    1.0010 C.2     1  UNL1        0.0080
      9  C          6.4910    0.4650   -1.0980 C.2     1  UNL1        0.0540
     10  C          7.3200   -1.6280    0.4730 C.2     1  UNL1        0.0510
     11  C          7.2530   -0.5480   -1.6510 C.2     1  UNL1        0.1660
     12  C          7.6700   -1.5970   -0.8680 C.2     1  UNL1        0.1650
     13  O          7.7260   -0.7450   -2.9360 O.2     1  UNL1       -0.4540
     14  O          8.4090   -2.4460   -1.6930 O.2     1  UNL1       -0.4540
     15  C          8.7180   -1.7820   -2.8960 C.3     1  UNL1        0.4680
@<TRIPOS>BOND
     1    13    15    1
     2    13    11    1
     3    15    14    1
     4    14    12    1
     5    11     9    1
     6    11    12    2
     7     9     7    2
     8    12    10    1
     9     1     6    1
    10     1     2    1
    11     7     6    1
    12     7     8    1
    13     3     2    2
    14    10     8    2
    15     2     4    1
    16     4     5    1
