@<TRIPOS>MOLECULE
/home/cewinharhar/GITHUB/reincatalyze/data/processed/docking_pred/2023-May-17-1006_maxeplen10_maxtrainstep1000_seadep16_gamma099_lrac9e-4_lrcr1e-3_sub6/9c92d7019ca479aa147a964f0da84773825070a7_ligand_6.pdbqt
 15 16 0 0 0
SMALL
GASTEIGER

@<TRIPOS>ATOM
      1  C          6.3880    1.3230    0.6560 C.3     1  UNL1        0.1270
      2  C          5.1900    1.2860    1.4800 C.2     1  UNL1        0.3030
      3  O          4.2380    2.0640    1.3960 O.2     1  UNL1       -0.2520
      4  O          5.1090    0.2800    2.4550 O.3     1  UNL1       -0.4810
      5  H          5.8300    0.2840    3.1600 H       1  UNL1        0.2960
      6  C          6.1840    0.8260   -0.7220 C.3     1  UNL1        0.0470
      7  C          6.9540   -0.3480   -1.1390 C.2     1  UNL1       -0.0430
      8  C          7.2750   -0.5690   -2.4690 C.2     1  UNL1        0.0080
      9  C          7.3490   -1.2880   -0.2240 C.2     1  UNL1        0.0540
     10  C          7.9670   -1.6910   -2.8680 C.2     1  UNL1        0.0510
     11  C          8.0450   -2.4200   -0.6000 C.2     1  UNL1        0.1660
     12  C          8.3570   -2.6260   -1.9230 C.2     1  UNL1        0.1650
     13  O          8.5370   -3.4840    0.1360 O.2     1  UNL1       -0.4540
     14  O          9.0500   -3.8360   -1.9900 O.2     1  UNL1       -0.4540
     15  C          8.8990   -4.5320   -0.7750 C.3     1  UNL1        0.4680
@<TRIPOS>BOND
     1    10     8    1
     2    10    12    2
     3     8     7    2
     4    14    12    1
     5    14    15    1
     6    12    11    1
     7     7     6    1
     8     7     9    1
     9    15    13    1
    10     6     1    1
    11    11     9    2
    12    11    13    1
    13     1     2    1
    14     3     2    2
    15     2     4    1
    16     4     5    1
