@<TRIPOS>MOLECULE
/home/cewinharhar/GITHUB/reincatalyze/data/processed/docking_pred/2023-May-17-1006_maxeplen10_maxtrainstep1000_seadep16_gamma099_lrac9e-4_lrcr1e-3_sub6/9c92d7019ca479aa147a964f0da84773825070a7_ligand_6.pdbqt
 15 16 0 0 0
SMALL
GASTEIGER

@<TRIPOS>ATOM
      1  C          4.7090    1.8700    0.6830 C.3     1  UNL1        0.1270
      2  C          4.4100    1.1600    1.9170 C.2     1  UNL1        0.3030
      3  O          5.1420    0.3350    2.4650 O.2     1  UNL1       -0.2520
      4  O          3.1820    1.4370    2.5380 O.3     1  UNL1       -0.4810
      5  H          3.1980    2.1380    3.2640 H       1  UNL1        0.2960
      6  C          6.1340    2.2340    0.5300 C.3     1  UNL1        0.0470
      7  C          6.9850    1.3270   -0.2420 C.2     1  UNL1       -0.0430
      8  C          8.3460    1.5530   -0.3830 C.2     1  UNL1        0.0080
      9  C          6.4500    0.2420   -0.8850 C.2     1  UNL1        0.0540
     10  C          9.1410    0.7210   -1.1400 C.2     1  UNL1        0.0510
     11  C          7.2290   -0.6070   -1.6490 C.2     1  UNL1        0.1660
     12  C          8.5760   -0.3710   -1.7780 C.2     1  UNL1        0.1650
     13  O          6.9120   -1.7430   -2.3730 O.2     1  UNL1       -0.4540
     14  O          9.0860   -1.3810   -2.5960 O.2     1  UNL1       -0.4540
     15  C          8.0220   -2.0570   -3.2270 C.3     1  UNL1        0.4680
@<TRIPOS>BOND
     1    15    14    1
     2    15    13    1
     3    14    12    1
     4    13    11    1
     5    12    11    2
     6    12    10    1
     7    11     9    1
     8    10     8    2
     9     9     7    2
    10     8     7    1
    11     7     6    1
    12     6     1    1
    13     1     2    1
    14     2     3    2
    15     2     4    1
    16     4     5    1
