@<TRIPOS>MOLECULE
/home/cewinharhar/GITHUB/reincatalyze/data/processed/docking_pred/2023-May-17-1006_maxeplen10_maxtrainstep1000_seadep16_gamma099_lrac9e-4_lrcr1e-3_sub6/9c92d7019ca479aa147a964f0da84773825070a7_ligand_6.pdbqt
 15 16 0 0 0
SMALL
GASTEIGER

@<TRIPOS>ATOM
      1  C          8.3120   -0.3240   -2.8460 C.3     1  UNL1        0.1270
      2  C          8.4700   -1.7530   -3.0660 C.2     1  UNL1        0.3030
      3  O          9.5360   -2.3710   -3.0310 O.2     1  UNL1       -0.2520
      4  O          7.3100   -2.4950   -3.3420 O.3     1  UNL1       -0.4810
      5  H          6.4370   -2.0760   -3.0610 H       1  UNL1        0.2960
      6  C          8.7640    0.1320   -1.5140 C.3     1  UNL1        0.0470
      7  C          7.7910    0.0950   -0.4200 C.2     1  UNL1       -0.0430
      8  C          7.7350   -0.9700    0.4660 C.2     1  UNL1        0.0080
      9  C          6.8750    1.1020   -0.2630 C.2     1  UNL1        0.0540
     10  C          6.7970   -1.0230    1.4730 C.2     1  UNL1        0.0510
     11  C          5.9260    1.0710    0.7400 C.2     1  UNL1        0.1660
     12  C          5.8830    0.0090    1.6110 C.2     1  UNL1        0.1650
     13  O          4.9210    1.9590    1.0830 O.2     1  UNL1       -0.4540
     14  O          4.8340    0.2570    2.4980 O.2     1  UNL1       -0.4540
     15  C          4.0310    1.3010    1.9970 C.3     1  UNL1        0.4680
@<TRIPOS>BOND
     1     4     2    1
     2     4     5    1
     3     2     3    2
     4     2     1    1
     5     1     6    1
     6     6     7    1
     7     7     9    2
     8     7     8    1
     9     9    11    1
    10     8    10    2
    11    11    13    1
    12    11    12    2
    13    13    15    1
    14    10    12    1
    15    12    14    1
    16    15    14    1
