MODEL 1
REMARK VINA RESULT:      -7.6      0.000      0.000
REMARK SMILES O=C(O)CCc1ccc2c(c1)OCO2
REMARK SMILES IDX 4 1 2 2 1 3 3 4 5 6 6 7 7 8 11 9 8 10 10 11 9 12 12 13 14 14
REMARK SMILES IDX 13 15
REMARK H PARENT 3 5
REMARK Flexibility Score: inf
ROOT
ATOM      1  C   UNL     1       5.424   2.869   0.113  1.00  0.00     0.127 C 
ENDROOT
BRANCH   1   2
ATOM      2  C   UNL     1       6.250   3.849   0.800  1.00  0.00     0.303 C 
ATOM      3  O   UNL     1       6.916   4.733   0.256  1.00  0.00    -0.252 OA
BRANCH   2   4
ATOM      4  O   UNL     1       6.295   3.786   2.201  1.00  0.00    -0.481 OA
ATOM      5  H   UNL     1       5.591   4.314   2.693  1.00  0.00     0.296 HD
ENDBRANCH   2   4
ENDBRANCH   1   2
BRANCH   1   6
ATOM      6  C   UNL     1       5.356   1.559   0.795  1.00  0.00     0.047 C 
BRANCH   6   7
ATOM      7  C   UNL     1       6.131   0.456   0.223  1.00  0.00    -0.043 A 
ATOM      8  C   UNL     1       6.560  -0.608   1.001  1.00  0.00     0.008 A 
ATOM      9  C   UNL     1       6.491   0.465  -1.098  1.00  0.00     0.054 A 
ATOM     10  C   UNL     1       7.320  -1.628   0.473  1.00  0.00     0.051 A 
ATOM     11  C   UNL     1       7.253  -0.548  -1.651  1.00  0.00     0.166 A 
ATOM     12  C   UNL     1       7.670  -1.597  -0.868  1.00  0.00     0.165 A 
ATOM     13  O   UNL     1       7.726  -0.745  -2.936  1.00  0.00    -0.454 OA
ATOM     14  O   UNL     1       8.409  -2.446  -1.693  1.00  0.00    -0.454 OA
ATOM     15  C   UNL     1       8.718  -1.782  -2.896  1.00  0.00     0.468 C 
ENDBRANCH   6   7
ENDBRANCH   1   6
TORSDOF 4
ENDMDL
MODEL 2
REMARK VINA RESULT:      -7.6      2.124      2.518
REMARK SMILES O=C(O)CCc1ccc2c(c1)OCO2
REMARK SMILES IDX 4 1 2 2 1 3 3 4 5 6 6 7 7 8 11 9 8 10 10 11 9 12 12 13 14 14
REMARK SMILES IDX 13 15
REMARK H PARENT 3 5
REMARK Flexibility Score: inf
ROOT
ATOM      1  C   UNL     1       4.709   1.870   0.683  1.00  0.00     0.127 C 
ENDROOT
BRANCH   1   2
ATOM      2  C   UNL     1       4.410   1.160   1.917  1.00  0.00     0.303 C 
ATOM      3  O   UNL     1       5.142   0.335   2.465  1.00  0.00    -0.252 OA
BRANCH   2   4
ATOM      4  O   UNL     1       3.182   1.437   2.538  1.00  0.00    -0.481 OA
ATOM      5  H   UNL     1       3.198   2.138   3.264  1.00  0.00     0.296 HD
ENDBRANCH   2   4
ENDBRANCH   1   2
BRANCH   1   6
ATOM      6  C   UNL     1       6.134   2.234   0.530  1.00  0.00     0.047 C 
BRANCH   6   7
ATOM      7  C   UNL     1       6.985   1.327  -0.242  1.00  0.00    -0.043 A 
ATOM      8  C   UNL     1       8.346   1.553  -0.383  1.00  0.00     0.008 A 
ATOM      9  C   UNL     1       6.450   0.242  -0.885  1.00  0.00     0.054 A 
ATOM     10  C   UNL     1       9.141   0.721  -1.140  1.00  0.00     0.051 A 
ATOM     11  C   UNL     1       7.229  -0.607  -1.649  1.00  0.00     0.166 A 
ATOM     12  C   UNL     1       8.576  -0.371  -1.778  1.00  0.00     0.165 A 
ATOM     13  O   UNL     1       6.912  -1.743  -2.373  1.00  0.00    -0.454 OA
ATOM     14  O   UNL     1       9.086  -1.381  -2.596  1.00  0.00    -0.454 OA
ATOM     15  C   UNL     1       8.022  -2.057  -3.227  1.00  0.00     0.468 C 
ENDBRANCH   6   7
ENDBRANCH   1   6
TORSDOF 4
ENDMDL
MODEL 3
REMARK VINA RESULT:      -7.5      1.979      2.885
REMARK SMILES O=C(O)CCc1ccc2c(c1)OCO2
REMARK SMILES IDX 4 1 2 2 1 3 3 4 5 6 6 7 7 8 11 9 8 10 10 11 9 12 12 13 14 14
REMARK SMILES IDX 13 15
REMARK H PARENT 3 5
REMARK Flexibility Score: inf
ROOT
ATOM      1  C   UNL     1       6.388   1.323   0.656  1.00  0.00     0.127 C 
ENDROOT
BRANCH   1   2
ATOM      2  C   UNL     1       5.190   1.286   1.480  1.00  0.00     0.303 C 
ATOM      3  O   UNL     1       4.238   2.064   1.396  1.00  0.00    -0.252 OA
BRANCH   2   4
ATOM      4  O   UNL     1       5.109   0.280   2.455  1.00  0.00    -0.481 OA
ATOM      5  H   UNL     1       5.830   0.284   3.160  1.00  0.00     0.296 HD
ENDBRANCH   2   4
ENDBRANCH   1   2
BRANCH   1   6
ATOM      6  C   UNL     1       6.184   0.826  -0.722  1.00  0.00     0.047 C 
BRANCH   6   7
ATOM      7  C   UNL     1       6.954  -0.348  -1.139  1.00  0.00    -0.043 A 
ATOM      8  C   UNL     1       7.275  -0.569  -2.469  1.00  0.00     0.008 A 
ATOM      9  C   UNL     1       7.349  -1.288  -0.224  1.00  0.00     0.054 A 
ATOM     10  C   UNL     1       7.967  -1.691  -2.868  1.00  0.00     0.051 A 
ATOM     11  C   UNL     1       8.045  -2.420  -0.600  1.00  0.00     0.166 A 
ATOM     12  C   UNL     1       8.357  -2.626  -1.923  1.00  0.00     0.165 A 
ATOM     13  O   UNL     1       8.537  -3.484   0.136  1.00  0.00    -0.454 OA
ATOM     14  O   UNL     1       9.050  -3.836  -1.990  1.00  0.00    -0.454 OA
ATOM     15  C   UNL     1       8.899  -4.532  -0.775  1.00  0.00     0.468 C 
ENDBRANCH   6   7
ENDBRANCH   1   6
TORSDOF 4
ENDMDL
MODEL 4
REMARK VINA RESULT:      -7.5      0.957      2.124
REMARK SMILES O=C(O)CCc1ccc2c(c1)OCO2
REMARK SMILES IDX 4 1 2 2 1 3 3 4 5 6 6 7 7 8 11 9 8 10 10 11 9 12 12 13 14 14
REMARK SMILES IDX 13 15
REMARK H PARENT 3 5
REMARK Flexibility Score: inf
ROOT
ATOM      1  C   UNL     1       5.368   2.844   0.188  1.00  0.00     0.127 C 
ENDROOT
BRANCH   1   2
ATOM      2  C   UNL     1       6.225   3.756   0.929  1.00  0.00     0.303 C 
ATOM      3  O   UNL     1       6.441   3.712   2.142  1.00  0.00    -0.252 OA
BRANCH   2   4
ATOM      4  O   UNL     1       6.862   4.775   0.204  1.00  0.00    -0.481 OA
ATOM      5  H   UNL     1       7.067   5.622   0.711  1.00  0.00     0.296 HD
ENDBRANCH   2   4
ENDBRANCH   1   2
BRANCH   1   6
ATOM      6  C   UNL     1       5.300   1.484   0.763  1.00  0.00     0.047 C 
BRANCH   6   7
ATOM      7  C   UNL     1       6.161   0.456   0.174  1.00  0.00    -0.043 A 
ATOM      8  C   UNL     1       6.459   0.448  -1.180  1.00  0.00     0.008 A 
ATOM      9  C   UNL     1       6.668  -0.558   0.943  1.00  0.00     0.054 A 
ATOM     10  C   UNL     1       7.238  -0.538  -1.741  1.00  0.00     0.051 A 
ATOM     11  C   UNL     1       7.453  -1.558   0.402  1.00  0.00     0.166 A 
ATOM     12  C   UNL     1       7.741  -1.552  -0.942  1.00  0.00     0.165 A 
ATOM     13  O   UNL     1       8.063  -2.660   0.975  1.00  0.00    -0.454 OA
ATOM     14  O   UNL     1       8.540  -2.670  -1.188  1.00  0.00    -0.454 OA
ATOM     15  C   UNL     1       8.491  -3.536  -0.078  1.00  0.00     0.468 C 
ENDBRANCH   6   7
ENDBRANCH   1   6
TORSDOF 4
ENDMDL
MODEL 5
REMARK VINA RESULT:      -7.4      1.794      5.286
REMARK SMILES O=C(O)CCc1ccc2c(c1)OCO2
REMARK SMILES IDX 4 1 2 2 1 3 3 4 5 6 6 7 7 8 11 9 8 10 10 11 9 12 12 13 14 14
REMARK SMILES IDX 13 15
REMARK H PARENT 3 5
REMARK Flexibility Score: inf
ROOT
ATOM      1  C   UNL     1       8.312  -0.324  -2.846  1.00  0.00     0.127 C 
ENDROOT
BRANCH   1   2
ATOM      2  C   UNL     1       8.470  -1.753  -3.066  1.00  0.00     0.303 C 
ATOM      3  O   UNL     1       9.536  -2.371  -3.031  1.00  0.00    -0.252 OA
BRANCH   2   4
ATOM      4  O   UNL     1       7.310  -2.495  -3.342  1.00  0.00    -0.481 OA
ATOM      5  H   UNL     1       6.437  -2.076  -3.061  1.00  0.00     0.296 HD
ENDBRANCH   2   4
ENDBRANCH   1   2
BRANCH   1   6
ATOM      6  C   UNL     1       8.764   0.132  -1.514  1.00  0.00     0.047 C 
BRANCH   6   7
ATOM      7  C   UNL     1       7.791   0.095  -0.420  1.00  0.00    -0.043 A 
ATOM      8  C   UNL     1       7.735  -0.970   0.466  1.00  0.00     0.008 A 
ATOM      9  C   UNL     1       6.875   1.102  -0.263  1.00  0.00     0.054 A 
ATOM     10  C   UNL     1       6.797  -1.023   1.473  1.00  0.00     0.051 A 
ATOM     11  C   UNL     1       5.926   1.071   0.740  1.00  0.00     0.166 A 
ATOM     12  C   UNL     1       5.883   0.009   1.611  1.00  0.00     0.165 A 
ATOM     13  O   UNL     1       4.921   1.959   1.083  1.00  0.00    -0.454 OA
ATOM     14  O   UNL     1       4.834   0.257   2.498  1.00  0.00    -0.454 OA
ATOM     15  C   UNL     1       4.031   1.301   1.997  1.00  0.00     0.468 C 
ENDBRANCH   6   7
ENDBRANCH   1   6
TORSDOF 4
ENDMDL
