@<TRIPOS>MOLECULE
/home/cewinharhar/GITHUB/reincatalyze/data/processed/docking_pred/2023-May-17-1006_maxeplen10_maxtrainstep1000_seadep16_gamma099_lrac9e-4_lrcr1e-3_sub6/9cf679a9c5542d052f5b9fd38195e755841f8057_ligand_6.pdbqt
 15 16 0 0 0
SMALL
GASTEIGER

@<TRIPOS>ATOM
      1  C          5.3430    2.5960    0.1740 C.3     1  UNL1        0.1270
      2  C          6.2140    3.5950    0.7730 C.2     1  UNL1        0.3030
      3  O          6.9380    4.3780    0.1560 O.2     1  UNL1       -0.2520
      4  O          6.2320    3.6770    2.1740 O.3     1  UNL1       -0.4810
      5  H          7.1330    3.5670    2.6150 H       1  UNL1        0.2960
      6  C          5.3760    1.2850    0.8560 C.3     1  UNL1        0.0470
      7  C          6.1880    0.2260    0.2510 C.2     1  UNL1       -0.0430
      8  C          6.7190   -0.8040    1.0110 C.2     1  UNL1        0.0080
      9  C          6.4800    0.2470   -1.0870 C.2     1  UNL1        0.0540
     10  C          7.5120   -1.7800    0.4490 C.2     1  UNL1        0.0510
     11  C          7.2730   -0.7220   -1.6730 C.2     1  UNL1        0.1660
     12  C          7.7920   -1.7380   -0.9070 C.2     1  UNL1        0.1650
     13  O          7.6920   -0.9000   -2.9800 O.2     1  UNL1       -0.4540
     14  O          8.5390   -2.5480   -1.7640 O.2     1  UNL1       -0.4540
     15  C          8.7460   -1.8750   -2.9850 C.3     1  UNL1        0.4680
@<TRIPOS>BOND
     1    15    13    1
     2    15    14    1
     3    13    11    1
     4    14    12    1
     5    11     9    1
     6    11    12    2
     7     9     7    2
     8    12    10    1
     9     3     2    2
    10     1     2    1
    11     1     6    1
    12     7     6    1
    13     7     8    1
    14    10     8    2
    15     2     4    1
    16     4     5    1
