@<TRIPOS>MOLECULE
/home/cewinharhar/GITHUB/reincatalyze/data/processed/docking_pred/2023-May-17-1006_maxeplen10_maxtrainstep1000_seadep16_gamma099_lrac9e-4_lrcr1e-3_sub6/9cf679a9c5542d052f5b9fd38195e755841f8057_ligand_6.pdbqt
 15 16 0 0 0
SMALL
GASTEIGER

@<TRIPOS>ATOM
      1  C          6.4290    1.2000    0.7210 C.3     1  UNL1        0.1270
      2  C          5.2140    1.1600    1.5200 C.2     1  UNL1        0.3030
      3  O          4.9520    0.3240    2.3860 O.2     1  UNL1       -0.2520
      4  O          4.2560    2.1590    1.2860 O.3     1  UNL1       -0.4810
      5  H          3.4430    1.8810    0.7580 H       1  UNL1        0.2960
      6  C          6.2430    0.7550   -0.6770 C.3     1  UNL1        0.0470
      7  C          6.9930   -0.4230   -1.1180 C.2     1  UNL1       -0.0430
      8  C          7.2750   -0.6420   -2.4580 C.2     1  UNL1        0.0080
      9  C          7.4060   -1.3680   -0.2170 C.2     1  UNL1        0.0540
     10  C          7.9490   -1.7670   -2.8780 C.2     1  UNL1        0.0510
     11  C          8.0850   -2.5040   -0.6150 C.2     1  UNL1        0.1660
     12  C          8.3590   -2.7080   -1.9460 C.2     1  UNL1        0.1650
     13  O          8.5890   -3.5730    0.1040 O.2     1  UNL1       -0.4540
     14  O          9.0420   -3.9220   -2.0360 O.2     1  UNL1       -0.4540
     15  C          8.9200   -4.6210   -0.8190 C.3     1  UNL1        0.4680
@<TRIPOS>BOND
     1    10     8    1
     2    10    12    2
     3     8     7    2
     4    14    12    1
     5    14    15    1
     6    12    11    1
     7     7     6    1
     8     7     9    1
     9    15    13    1
    10     6     1    1
    11    11     9    2
    12    11    13    1
    13     1     2    1
    14     5     4    1
    15     4     2    1
    16     2     3    2
