@<TRIPOS>MOLECULE
/home/cewinharhar/GITHUB/reincatalyze/data/processed/docking_pred/2023-May-17-1006_maxeplen10_maxtrainstep1000_seadep16_gamma099_lrac9e-4_lrcr1e-3_sub6/9cf679a9c5542d052f5b9fd38195e755841f8057_ligand_6.pdbqt
 15 16 0 0 0
SMALL
GASTEIGER

@<TRIPOS>ATOM
      1  C          8.2040   -0.8860   -2.0460 C.3     1  UNL1        0.1270
      2  C          8.4430   -2.0360   -2.9040 C.2     1  UNL1        0.3030
      3  O          9.5400   -2.5590   -3.1140 O.2     1  UNL1       -0.2520
      4  O          7.3320   -2.6020   -3.5480 O.3     1  UNL1       -0.4810
      5  H          6.4910   -2.0450   -3.5560 H       1  UNL1        0.2960
      6  C          7.1590   -1.1050   -1.0240 C.3     1  UNL1        0.0470
      7  C          6.7610    0.0420   -0.2050 C.2     1  UNL1       -0.0430
      8  C          5.8370   -0.0860    0.8210 C.2     1  UNL1        0.0080
      9  C          7.2640    1.2900   -0.4580 C.2     1  UNL1        0.0540
     10  C          5.4350    0.9980    1.5680 C.2     1  UNL1        0.0510
     11  C          6.8750    2.3930    0.2800 C.2     1  UNL1        0.1660
     12  C          5.9600    2.2510    1.2940 C.2     1  UNL1        0.1650
     13  O          7.2440    3.7250    0.2050 O.2     1  UNL1       -0.4540
     14  O          5.7690    3.5190    1.8460 O.2     1  UNL1       -0.4540
     15  C          6.3160    4.4920    0.9860 C.3     1  UNL1        0.4680
@<TRIPOS>BOND
     1     5     4    1
     2     4     2    1
     3     3     2    2
     4     2     1    1
     5     1     6    1
     6     6     7    1
     7     9     7    2
     8     9    11    1
     9     7     8    1
    10    13    11    1
    11    13    15    1
    12    11    12    2
    13     8    10    2
    14    15    14    1
    15    12    10    1
    16    12    14    1
