@<TRIPOS>MOLECULE
/home/cewinharhar/GITHUB/reincatalyze/data/processed/docking_pred/2023-May-17-1006_maxeplen10_maxtrainstep1000_seadep16_gamma099_lrac9e-4_lrcr1e-3_sub6/9cf679a9c5542d052f5b9fd38195e755841f8057_ligand_6.pdbqt
 15 16 0 0 0
SMALL
GASTEIGER

@<TRIPOS>ATOM
      1  C          4.7380    1.8930    0.7040 C.3     1  UNL1        0.1270
      2  C          4.4230    1.1610    1.9210 C.2     1  UNL1        0.3030
      3  O          5.1480    0.3230    2.4610 O.2     1  UNL1       -0.2520
      4  O          3.1900    1.4300    2.5340 O.3     1  UNL1       -0.4810
      5  H          2.6160    0.6300    2.7500 H       1  UNL1        0.2960
      6  C          6.1690    2.2340    0.5610 C.3     1  UNL1        0.0470
      7  C          7.0070    1.3240   -0.2230 C.2     1  UNL1       -0.0430
      8  C          8.3680    1.5420   -0.3750 C.2     1  UNL1        0.0080
      9  C          6.4590    0.2450   -0.8650 C.2     1  UNL1        0.0540
     10  C          9.1510    0.7080   -1.1410 C.2     1  UNL1        0.0510
     11  C          7.2250   -0.6060   -1.6390 C.2     1  UNL1        0.1660
     12  C          8.5730   -0.3780   -1.7790 C.2     1  UNL1        0.1650
     13  O          6.8940   -1.7360   -2.3650 O.2     1  UNL1       -0.4540
     14  O          9.0680   -1.3880   -2.6060 O.2     1  UNL1       -0.4540
     15  C          7.9950   -2.0540   -3.2290 C.3     1  UNL1        0.4680
@<TRIPOS>BOND
     1    15    14    1
     2    15    13    1
     3    14    12    1
     4    13    11    1
     5    12    11    2
     6    12    10    1
     7    11     9    1
     8    10     8    2
     9     9     7    2
    10     8     7    1
    11     7     6    1
    12     6     1    1
    13     1     2    1
    14     2     3    2
    15     2     4    1
    16     4     5    1
