MODEL 1
REMARK VINA RESULT:      -7.6      0.000      0.000
REMARK SMILES O=C(O)CCc1ccc2c(c1)OCO2
REMARK SMILES IDX 4 1 2 2 1 3 3 4 5 6 6 7 7 8 11 9 8 10 10 11 9 12 12 13 14 14
REMARK SMILES IDX 13 15
REMARK H PARENT 3 5
REMARK Flexibility Score: inf
ROOT
ATOM      1  C   UNL     1       4.738   1.893   0.704  1.00  0.00     0.127 C 
ENDROOT
BRANCH   1   2
ATOM      2  C   UNL     1       4.423   1.161   1.921  1.00  0.00     0.303 C 
ATOM      3  O   UNL     1       5.148   0.323   2.461  1.00  0.00    -0.252 OA
BRANCH   2   4
ATOM      4  O   UNL     1       3.190   1.430   2.534  1.00  0.00    -0.481 OA
ATOM      5  H   UNL     1       2.616   0.630   2.750  1.00  0.00     0.296 HD
ENDBRANCH   2   4
ENDBRANCH   1   2
BRANCH   1   6
ATOM      6  C   UNL     1       6.169   2.234   0.561  1.00  0.00     0.047 C 
BRANCH   6   7
ATOM      7  C   UNL     1       7.007   1.324  -0.223  1.00  0.00    -0.043 A 
ATOM      8  C   UNL     1       8.368   1.542  -0.375  1.00  0.00     0.008 A 
ATOM      9  C   UNL     1       6.459   0.245  -0.865  1.00  0.00     0.054 A 
ATOM     10  C   UNL     1       9.151   0.708  -1.141  1.00  0.00     0.051 A 
ATOM     11  C   UNL     1       7.225  -0.606  -1.639  1.00  0.00     0.166 A 
ATOM     12  C   UNL     1       8.573  -0.378  -1.779  1.00  0.00     0.165 A 
ATOM     13  O   UNL     1       6.894  -1.736  -2.365  1.00  0.00    -0.454 OA
ATOM     14  O   UNL     1       9.068  -1.388  -2.606  1.00  0.00    -0.454 OA
ATOM     15  C   UNL     1       7.995  -2.054  -3.229  1.00  0.00     0.468 C 
ENDBRANCH   6   7
ENDBRANCH   1   6
TORSDOF 4
ENDMDL
MODEL 2
REMARK VINA RESULT:      -7.5      1.878      2.435
REMARK SMILES O=C(O)CCc1ccc2c(c1)OCO2
REMARK SMILES IDX 4 1 2 2 1 3 3 4 5 6 6 7 7 8 11 9 8 10 10 11 9 12 12 13 14 14
REMARK SMILES IDX 13 15
REMARK H PARENT 3 5
REMARK Flexibility Score: inf
ROOT
ATOM      1  C   UNL     1       6.429   1.200   0.721  1.00  0.00     0.127 C 
ENDROOT
BRANCH   1   2
ATOM      2  C   UNL     1       5.214   1.160   1.520  1.00  0.00     0.303 C 
ATOM      3  O   UNL     1       4.952   0.324   2.386  1.00  0.00    -0.252 OA
BRANCH   2   4
ATOM      4  O   UNL     1       4.256   2.159   1.286  1.00  0.00    -0.481 OA
ATOM      5  H   UNL     1       3.443   1.881   0.758  1.00  0.00     0.296 HD
ENDBRANCH   2   4
ENDBRANCH   1   2
BRANCH   1   6
ATOM      6  C   UNL     1       6.243   0.755  -0.677  1.00  0.00     0.047 C 
BRANCH   6   7
ATOM      7  C   UNL     1       6.993  -0.423  -1.118  1.00  0.00    -0.043 A 
ATOM      8  C   UNL     1       7.275  -0.642  -2.458  1.00  0.00     0.008 A 
ATOM      9  C   UNL     1       7.406  -1.368  -0.217  1.00  0.00     0.054 A 
ATOM     10  C   UNL     1       7.949  -1.767  -2.878  1.00  0.00     0.051 A 
ATOM     11  C   UNL     1       8.085  -2.504  -0.615  1.00  0.00     0.166 A 
ATOM     12  C   UNL     1       8.359  -2.708  -1.946  1.00  0.00     0.165 A 
ATOM     13  O   UNL     1       8.589  -3.573   0.104  1.00  0.00    -0.454 OA
ATOM     14  O   UNL     1       9.042  -3.922  -2.036  1.00  0.00    -0.454 OA
ATOM     15  C   UNL     1       8.920  -4.621  -0.819  1.00  0.00     0.468 C 
ENDBRANCH   6   7
ENDBRANCH   1   6
TORSDOF 4
ENDMDL
MODEL 3
REMARK VINA RESULT:      -7.4      2.068      2.453
REMARK SMILES O=C(O)CCc1ccc2c(c1)OCO2
REMARK SMILES IDX 4 1 2 2 1 3 3 4 5 6 6 7 7 8 11 9 8 10 10 11 9 12 12 13 14 14
REMARK SMILES IDX 13 15
REMARK H PARENT 3 5
REMARK Flexibility Score: inf
ROOT
ATOM      1  C   UNL     1       5.343   2.596   0.174  1.00  0.00     0.127 C 
ENDROOT
BRANCH   1   2
ATOM      2  C   UNL     1       6.214   3.595   0.773  1.00  0.00     0.303 C 
ATOM      3  O   UNL     1       6.938   4.378   0.156  1.00  0.00    -0.252 OA
BRANCH   2   4
ATOM      4  O   UNL     1       6.232   3.677   2.174  1.00  0.00    -0.481 OA
ATOM      5  H   UNL     1       7.133   3.567   2.615  1.00  0.00     0.296 HD
ENDBRANCH   2   4
ENDBRANCH   1   2
BRANCH   1   6
ATOM      6  C   UNL     1       5.376   1.285   0.856  1.00  0.00     0.047 C 
BRANCH   6   7
ATOM      7  C   UNL     1       6.188   0.226   0.251  1.00  0.00    -0.043 A 
ATOM      8  C   UNL     1       6.719  -0.804   1.011  1.00  0.00     0.008 A 
ATOM      9  C   UNL     1       6.480   0.247  -1.087  1.00  0.00     0.054 A 
ATOM     10  C   UNL     1       7.512  -1.780   0.449  1.00  0.00     0.051 A 
ATOM     11  C   UNL     1       7.273  -0.722  -1.673  1.00  0.00     0.166 A 
ATOM     12  C   UNL     1       7.792  -1.738  -0.907  1.00  0.00     0.165 A 
ATOM     13  O   UNL     1       7.692  -0.900  -2.980  1.00  0.00    -0.454 OA
ATOM     14  O   UNL     1       8.539  -2.548  -1.764  1.00  0.00    -0.454 OA
ATOM     15  C   UNL     1       8.746  -1.875  -2.985  1.00  0.00     0.468 C 
ENDBRANCH   6   7
ENDBRANCH   1   6
TORSDOF 4
ENDMDL
MODEL 4
REMARK VINA RESULT:      -7.4      1.442      5.373
REMARK SMILES O=C(O)CCc1ccc2c(c1)OCO2
REMARK SMILES IDX 4 1 2 2 1 3 3 4 5 6 6 7 7 8 11 9 8 10 10 11 9 12 12 13 14 14
REMARK SMILES IDX 13 15
REMARK H PARENT 3 5
REMARK Flexibility Score: inf
ROOT
ATOM      1  C   UNL     1       8.324  -0.307  -2.854  1.00  0.00     0.127 C 
ENDROOT
BRANCH   1   2
ATOM      2  C   UNL     1       8.485  -1.735  -3.079  1.00  0.00     0.303 C 
ATOM      3  O   UNL     1       9.552  -2.351  -3.045  1.00  0.00    -0.252 OA
BRANCH   2   4
ATOM      4  O   UNL     1       7.327  -2.478  -3.358  1.00  0.00    -0.481 OA
ATOM      5  H   UNL     1       6.507  -1.947  -3.607  1.00  0.00     0.296 HD
ENDBRANCH   2   4
ENDBRANCH   1   2
BRANCH   1   6
ATOM      6  C   UNL     1       8.776   0.146  -1.521  1.00  0.00     0.047 C 
BRANCH   6   7
ATOM      7  C   UNL     1       7.807   0.098  -0.425  1.00  0.00    -0.043 A 
ATOM      8  C   UNL     1       7.766  -0.967   0.461  1.00  0.00     0.008 A 
ATOM      9  C   UNL     1       6.881   1.095  -0.266  1.00  0.00     0.054 A 
ATOM     10  C   UNL     1       6.831  -1.030   1.470  1.00  0.00     0.051 A 
ATOM     11  C   UNL     1       5.934   1.053   0.740  1.00  0.00     0.166 A 
ATOM     12  C   UNL     1       5.906  -0.009   1.611  1.00  0.00     0.165 A 
ATOM     13  O   UNL     1       4.920   1.930   1.085  1.00  0.00    -0.454 OA
ATOM     14  O   UNL     1       4.856   0.228   2.501  1.00  0.00    -0.454 OA
ATOM     15  C   UNL     1       4.040   1.262   2.002  1.00  0.00     0.468 C 
ENDBRANCH   6   7
ENDBRANCH   1   6
TORSDOF 4
ENDMDL
MODEL 5
REMARK VINA RESULT:      -7.3      1.877      5.649
REMARK SMILES O=C(O)CCc1ccc2c(c1)OCO2
REMARK SMILES IDX 4 1 2 2 1 3 3 4 5 6 6 7 7 8 11 9 8 10 10 11 9 12 12 13 14 14
REMARK SMILES IDX 13 15
REMARK H PARENT 3 5
REMARK Flexibility Score: inf
ROOT
ATOM      1  C   UNL     1       8.204  -0.886  -2.046  1.00  0.00     0.127 C 
ENDROOT
BRANCH   1   2
ATOM      2  C   UNL     1       8.443  -2.036  -2.904  1.00  0.00     0.303 C 
ATOM      3  O   UNL     1       9.540  -2.559  -3.114  1.00  0.00    -0.252 OA
BRANCH   2   4
ATOM      4  O   UNL     1       7.332  -2.602  -3.548  1.00  0.00    -0.481 OA
ATOM      5  H   UNL     1       6.491  -2.045  -3.556  1.00  0.00     0.296 HD
ENDBRANCH   2   4
ENDBRANCH   1   2
BRANCH   1   6
ATOM      6  C   UNL     1       7.159  -1.105  -1.024  1.00  0.00     0.047 C 
BRANCH   6   7
ATOM      7  C   UNL     1       6.761   0.042  -0.205  1.00  0.00    -0.043 A 
ATOM      8  C   UNL     1       5.837  -0.086   0.821  1.00  0.00     0.008 A 
ATOM      9  C   UNL     1       7.264   1.290  -0.458  1.00  0.00     0.054 A 
ATOM     10  C   UNL     1       5.435   0.998   1.568  1.00  0.00     0.051 A 
ATOM     11  C   UNL     1       6.875   2.393   0.280  1.00  0.00     0.166 A 
ATOM     12  C   UNL     1       5.960   2.251   1.294  1.00  0.00     0.165 A 
ATOM     13  O   UNL     1       7.244   3.725   0.205  1.00  0.00    -0.454 OA
ATOM     14  O   UNL     1       5.769   3.519   1.846  1.00  0.00    -0.454 OA
ATOM     15  C   UNL     1       6.316   4.492   0.986  1.00  0.00     0.468 C 
ENDBRANCH   6   7
ENDBRANCH   1   6
TORSDOF 4
ENDMDL
