@<TRIPOS>MOLECULE
/home/cewinharhar/GITHUB/reincatalyze/data/processed/docking_pred/2023-May-17-1006_maxeplen10_maxtrainstep1000_seadep16_gamma099_lrac9e-4_lrcr1e-3_sub6/9cf679a9c5542d052f5b9fd38195e755841f8057_ligand_6.pdbqt
 15 16 0 0 0
SMALL
GASTEIGER

@<TRIPOS>ATOM
      1  C          8.3240   -0.3070   -2.8540 C.3     1  UNL1        0.1270
      2  C          8.4850   -1.7350   -3.0790 C.2     1  UNL1        0.3030
      3  O          9.5520   -2.3510   -3.0450 O.2     1  UNL1       -0.2520
      4  O          7.3270   -2.4780   -3.3580 O.3     1  UNL1       -0.4810
      5  H          6.5070   -1.9470   -3.6070 H       1  UNL1        0.2960
      6  C          8.7760    0.1460   -1.5210 C.3     1  UNL1        0.0470
      7  C          7.8070    0.0980   -0.4250 C.2     1  UNL1       -0.0430
      8  C          7.7660   -0.9670    0.4610 C.2     1  UNL1        0.0080
      9  C          6.8810    1.0950   -0.2660 C.2     1  UNL1        0.0540
     10  C          6.8310   -1.0300    1.4700 C.2     1  UNL1        0.0510
     11  C          5.9340    1.0530    0.7400 C.2     1  UNL1        0.1660
     12  C          5.9060   -0.0090    1.6110 C.2     1  UNL1        0.1650
     13  O          4.9200    1.9300    1.0850 O.2     1  UNL1       -0.4540
     14  O          4.8560    0.2280    2.5010 O.2     1  UNL1       -0.4540
     15  C          4.0400    1.2620    2.0020 C.3     1  UNL1        0.4680
@<TRIPOS>BOND
     1     5     4    1
     2     4     2    1
     3     2     3    2
     4     2     1    1
     5     1     6    1
     6     6     7    1
     7     7     9    2
     8     7     8    1
     9     9    11    1
    10     8    10    2
    11    11    13    1
    12    11    12    2
    13    13    15    1
    14    10    12    1
    15    12    14    1
    16    15    14    1
