@<TRIPOS>MOLECULE
/home/cewinharhar/GITHUB/reincatalyze/data/processed/docking_pred/2023-May-17-1006_maxeplen10_maxtrainstep1000_seadep16_gamma099_lrac9e-4_lrcr1e-3_sub6/9e6208548f5309b91e7f4e881f40d3475c8e3dc2_ligand_6.pdbqt
 15 16 0 0 0
SMALL
GASTEIGER

@<TRIPOS>ATOM
      1  C          5.3730    2.8020    0.0030 C.3     1  UNL1        0.1270
      2  C          6.1480    3.7750    0.7570 C.2     1  UNL1        0.3030
      3  O          6.7940    4.7060    0.2740 O.2     1  UNL1       -0.2520
      4  O          6.1620    3.6440    2.1550 O.3     1  UNL1       -0.4810
      5  H          7.0420    3.3770    2.5680 H       1  UNL1        0.2960
      6  C          5.2680    1.4810    0.6590 C.3     1  UNL1        0.0470
      7  C          6.0840    0.3900    0.1190 C.2     1  UNL1       -0.0430
      8  C          6.5390   -0.6420    0.9250 C.2     1  UNL1        0.0080
      9  C          6.4550    0.3800   -1.1990 C.2     1  UNL1        0.0540
     10  C          7.3360   -1.6480    0.4270 C.2     1  UNL1        0.0510
     11  C          7.2530   -0.6200   -1.7220 C.2     1  UNL1        0.1660
     12  C          7.6970   -1.6370   -0.9110 C.2     1  UNL1        0.1650
     13  O          7.7440   -0.8320   -2.9980 O.2     1  UNL1       -0.4540
     14  O          8.4700   -2.4810   -1.7100 O.2     1  UNL1       -0.4540
     15  C          8.7680   -1.8350   -2.9260 C.3     1  UNL1        0.4680
@<TRIPOS>BOND
     1    13    15    1
     2    13    11    1
     3    15    14    1
     4    11     9    1
     5    11    12    2
     6    14    12    1
     7     9     7    2
     8    12    10    1
     9     1     6    1
    10     1     2    1
    11     7     6    1
    12     7     8    1
    13     3     2    2
    14    10     8    2
    15     2     4    1
    16     4     5    1
