@<TRIPOS>MOLECULE
/home/cewinharhar/GITHUB/reincatalyze/data/processed/docking_pred/2023-May-17-1006_maxeplen10_maxtrainstep1000_seadep16_gamma099_lrac9e-4_lrcr1e-3_sub6/9e6208548f5309b91e7f4e881f40d3475c8e3dc2_ligand_6.pdbqt
 15 16 0 0 0
SMALL
GASTEIGER

@<TRIPOS>ATOM
      1  C          5.0040    1.7610    0.7560 C.3     1  UNL1        0.1270
      2  C          4.5810    1.1780    2.0190 C.2     1  UNL1        0.3030
      3  O          5.1980    0.3240    2.6580 O.2     1  UNL1       -0.2520
      4  O          3.3650    1.6260    2.5600 O.3     1  UNL1       -0.4810
      5  H          2.8990    0.9930    3.1920 H       1  UNL1        0.2960
      6  C          6.4570    1.6550    0.5020 C.3     1  UNL1        0.0470
      7  C          6.9450    0.4310   -0.1370 C.2     1  UNL1       -0.0430
      8  C          6.6970    0.1640   -1.4750 C.2     1  UNL1        0.0080
      9  C          7.6320   -0.5090    0.5840 C.2     1  UNL1        0.0540
     10  C          7.1240   -1.0030   -2.0680 C.2     1  UNL1        0.0510
     11  C          8.0710   -1.6870    0.0090 C.2     1  UNL1        0.1660
     12  C          7.8190   -1.9380   -1.3180 C.2     1  UNL1        0.1650
     13  O          8.7710   -2.7600    0.5330 O.2     1  UNL1       -0.4540
     14  O          8.3750   -3.1860   -1.6050 O.2     1  UNL1       -0.4540
     15  C          8.6940   -3.8470   -0.4020 C.3     1  UNL1        0.4680
@<TRIPOS>BOND
     1    10     8    1
     2    10    12    2
     3    14    12    1
     4    14    15    1
     5     8     7    2
     6    12    11    1
     7    15    13    1
     8     7     6    1
     9     7     9    1
    10    11    13    1
    11    11     9    2
    12     6     1    1
    13     1     2    1
    14     2     4    1
    15     2     3    2
    16     4     5    1
