MODEL 1
REMARK VINA RESULT:      -8.0      0.000      0.000
REMARK SMILES O=C(O)CCc1ccc2c(c1)OCO2
REMARK SMILES IDX 4 1 2 2 1 3 3 4 5 6 6 7 7 8 11 9 8 10 10 11 9 12 12 13 14 14
REMARK SMILES IDX 13 15
REMARK H PARENT 3 5
REMARK Flexibility Score: inf
ROOT
ATOM      1  C   UNL     1       5.277   2.177   1.353  1.00  0.00     0.127 C 
ENDROOT
BRANCH   1   2
ATOM      2  C   UNL     1       4.559   1.166   2.112  1.00  0.00     0.303 C 
ATOM      3  O   UNL     1       4.957   0.021   2.338  1.00  0.00    -0.252 OA
BRANCH   2   4
ATOM      4  O   UNL     1       3.305   1.521   2.634  1.00  0.00    -0.481 OA
ATOM      5  H   UNL     1       3.246   1.599   3.637  1.00  0.00     0.296 HD
ENDBRANCH   2   4
ENDBRANCH   1   2
BRANCH   1   6
ATOM      6  C   UNL     1       5.310   1.923  -0.104  1.00  0.00     0.047 C 
BRANCH   6   7
ATOM      7  C   UNL     1       6.448   1.169  -0.634  1.00  0.00    -0.043 A 
ATOM      8  C   UNL     1       7.754   1.586  -0.428  1.00  0.00     0.008 A 
ATOM      9  C   UNL     1       6.251   0.042  -1.388  1.00  0.00     0.054 A 
ATOM     10  C   UNL     1       8.823   0.898  -0.957  1.00  0.00     0.051 A 
ATOM     11  C   UNL     1       7.309  -0.664  -1.928  1.00  0.00     0.166 A 
ATOM     12  C   UNL     1       8.598  -0.239  -1.715  1.00  0.00     0.165 A 
ATOM     13  O   UNL     1       7.347  -1.808  -2.706  1.00  0.00    -0.454 OA
ATOM     14  O   UNL     1       9.434  -1.141  -2.375  1.00  0.00    -0.454 OA
ATOM     15  C   UNL     1       8.669  -1.936  -3.251  1.00  0.00     0.468 C 
ENDBRANCH   6   7
ENDBRANCH   1   6
TORSDOF 4
ENDMDL
MODEL 2
REMARK VINA RESULT:      -7.9      1.337      5.628
REMARK SMILES O=C(O)CCc1ccc2c(c1)OCO2
REMARK SMILES IDX 4 1 2 2 1 3 3 4 5 6 6 7 7 8 11 9 8 10 10 11 9 12 12 13 14 14
REMARK SMILES IDX 13 15
REMARK H PARENT 3 5
REMARK Flexibility Score: inf
ROOT
ATOM      1  C   UNL     1       8.803  -0.631  -2.410  1.00  0.00     0.127 C 
ENDROOT
BRANCH   1   2
ATOM      2  C   UNL     1       8.811  -1.957  -3.008  1.00  0.00     0.303 C 
ATOM      3  O   UNL     1       9.815  -2.633  -3.239  1.00  0.00    -0.252 OA
BRANCH   2   4
ATOM      4  O   UNL     1       7.570  -2.516  -3.351  1.00  0.00    -0.481 OA
ATOM      5  H   UNL     1       6.897  -2.598  -2.605  1.00  0.00     0.296 HD
ENDBRANCH   2   4
ENDBRANCH   1   2
BRANCH   1   6
ATOM      6  C   UNL     1       7.461  -0.014  -2.335  1.00  0.00     0.047 C 
BRANCH   6   7
ATOM      7  C   UNL     1       6.807   0.028  -1.025  1.00  0.00    -0.043 A 
ATOM      8  C   UNL     1       6.918  -1.022  -0.126  1.00  0.00     0.008 A 
ATOM      9  C   UNL     1       6.031   1.096  -0.665  1.00  0.00     0.054 A 
ATOM     10  C   UNL     1       6.274  -0.999   1.091  1.00  0.00     0.051 A 
ATOM     11  C   UNL     1       5.376   1.141   0.552  1.00  0.00     0.166 A 
ATOM     12  C   UNL     1       5.495   0.094   1.434  1.00  0.00     0.165 A 
ATOM     13  O   UNL     1       4.554   2.100   1.118  1.00  0.00    -0.454 OA
ATOM     14  O   UNL     1       4.732   0.423   2.555  1.00  0.00    -0.454 OA
ATOM     15  C   UNL     1       3.894   1.514   2.250  1.00  0.00     0.468 C 
ENDBRANCH   6   7
ENDBRANCH   1   6
TORSDOF 4
ENDMDL
MODEL 3
REMARK VINA RESULT:      -7.6      1.779      2.102
REMARK SMILES O=C(O)CCc1ccc2c(c1)OCO2
REMARK SMILES IDX 4 1 2 2 1 3 3 4 5 6 6 7 7 8 11 9 8 10 10 11 9 12 12 13 14 14
REMARK SMILES IDX 13 15
REMARK H PARENT 3 5
REMARK Flexibility Score: inf
ROOT
ATOM      1  C   UNL     1       5.004   1.761   0.756  1.00  0.00     0.127 C 
ENDROOT
BRANCH   1   2
ATOM      2  C   UNL     1       4.581   1.178   2.019  1.00  0.00     0.303 C 
ATOM      3  O   UNL     1       5.198   0.324   2.658  1.00  0.00    -0.252 OA
BRANCH   2   4
ATOM      4  O   UNL     1       3.365   1.626   2.560  1.00  0.00    -0.481 OA
ATOM      5  H   UNL     1       2.899   0.993   3.192  1.00  0.00     0.296 HD
ENDBRANCH   2   4
ENDBRANCH   1   2
BRANCH   1   6
ATOM      6  C   UNL     1       6.457   1.655   0.502  1.00  0.00     0.047 C 
BRANCH   6   7
ATOM      7  C   UNL     1       6.945   0.431  -0.137  1.00  0.00    -0.043 A 
ATOM      8  C   UNL     1       6.697   0.164  -1.475  1.00  0.00     0.008 A 
ATOM      9  C   UNL     1       7.632  -0.509   0.584  1.00  0.00     0.054 A 
ATOM     10  C   UNL     1       7.124  -1.003  -2.068  1.00  0.00     0.051 A 
ATOM     11  C   UNL     1       8.071  -1.687   0.009  1.00  0.00     0.166 A 
ATOM     12  C   UNL     1       7.819  -1.938  -1.318  1.00  0.00     0.165 A 
ATOM     13  O   UNL     1       8.771  -2.760   0.533  1.00  0.00    -0.454 OA
ATOM     14  O   UNL     1       8.375  -3.186  -1.605  1.00  0.00    -0.454 OA
ATOM     15  C   UNL     1       8.694  -3.847  -0.402  1.00  0.00     0.468 C 
ENDBRANCH   6   7
ENDBRANCH   1   6
TORSDOF 4
ENDMDL
MODEL 4
REMARK VINA RESULT:      -7.4      2.170      2.464
REMARK SMILES O=C(O)CCc1ccc2c(c1)OCO2
REMARK SMILES IDX 4 1 2 2 1 3 3 4 5 6 6 7 7 8 11 9 8 10 10 11 9 12 12 13 14 14
REMARK SMILES IDX 13 15
REMARK H PARENT 3 5
REMARK Flexibility Score: inf
ROOT
ATOM      1  C   UNL     1       5.373   2.802   0.003  1.00  0.00     0.127 C 
ENDROOT
BRANCH   1   2
ATOM      2  C   UNL     1       6.148   3.775   0.757  1.00  0.00     0.303 C 
ATOM      3  O   UNL     1       6.794   4.706   0.274  1.00  0.00    -0.252 OA
BRANCH   2   4
ATOM      4  O   UNL     1       6.162   3.644   2.155  1.00  0.00    -0.481 OA
ATOM      5  H   UNL     1       7.042   3.377   2.568  1.00  0.00     0.296 HD
ENDBRANCH   2   4
ENDBRANCH   1   2
BRANCH   1   6
ATOM      6  C   UNL     1       5.268   1.481   0.659  1.00  0.00     0.047 C 
BRANCH   6   7
ATOM      7  C   UNL     1       6.084   0.390   0.119  1.00  0.00    -0.043 A 
ATOM      8  C   UNL     1       6.539  -0.642   0.925  1.00  0.00     0.008 A 
ATOM      9  C   UNL     1       6.455   0.380  -1.199  1.00  0.00     0.054 A 
ATOM     10  C   UNL     1       7.336  -1.648   0.427  1.00  0.00     0.051 A 
ATOM     11  C   UNL     1       7.253  -0.620  -1.722  1.00  0.00     0.166 A 
ATOM     12  C   UNL     1       7.697  -1.637  -0.911  1.00  0.00     0.165 A 
ATOM     13  O   UNL     1       7.744  -0.832  -2.998  1.00  0.00    -0.454 OA
ATOM     14  O   UNL     1       8.470  -2.481  -1.710  1.00  0.00    -0.454 OA
ATOM     15  C   UNL     1       8.768  -1.835  -2.926  1.00  0.00     0.468 C 
ENDBRANCH   6   7
ENDBRANCH   1   6
TORSDOF 4
ENDMDL
MODEL 5
REMARK VINA RESULT:      -7.4      1.996      5.649
REMARK SMILES O=C(O)CCc1ccc2c(c1)OCO2
REMARK SMILES IDX 4 1 2 2 1 3 3 4 5 6 6 7 7 8 11 9 8 10 10 11 9 12 12 13 14 14
REMARK SMILES IDX 13 15
REMARK H PARENT 3 5
REMARK Flexibility Score: inf
ROOT
ATOM      1  C   UNL     1       8.018  -0.825  -2.044  1.00  0.00     0.127 C 
ENDROOT
BRANCH   1   2
ATOM      2  C   UNL     1       8.303  -1.991  -2.865  1.00  0.00     0.303 C 
ATOM      3  O   UNL     1       9.404  -2.532  -2.985  1.00  0.00    -0.252 OA
BRANCH   2   4
ATOM      4  O   UNL     1       7.235  -2.549  -3.585  1.00  0.00    -0.481 OA
ATOM      5  H   UNL     1       7.003  -3.506  -3.367  1.00  0.00     0.296 HD
ENDBRANCH   2   4
ENDBRANCH   1   2
BRANCH   1   6
ATOM      6  C   UNL     1       6.978  -1.054  -1.018  1.00  0.00     0.047 C 
BRANCH   6   7
ATOM      7  C   UNL     1       6.693   0.040  -0.087  1.00  0.00    -0.043 A 
ATOM      8  C   UNL     1       5.965  -0.168   1.075  1.00  0.00     0.008 A 
ATOM      9  C   UNL     1       7.107   1.317  -0.358  1.00  0.00     0.054 A 
ATOM     10  C   UNL     1       5.666   0.866   1.934  1.00  0.00     0.051 A 
ATOM     11  C   UNL     1       6.819   2.370   0.489  1.00  0.00     0.166 A 
ATOM     12  C   UNL     1       6.098   2.149   1.637  1.00  0.00     0.165 A 
ATOM     13  O   UNL     1       7.129   3.717   0.419  1.00  0.00    -0.454 OA
ATOM     14  O   UNL     1       5.968   3.383   2.276  1.00  0.00    -0.454 OA
ATOM     15  C   UNL     1       6.328   4.414   1.385  1.00  0.00     0.468 C 
ENDBRANCH   6   7
ENDBRANCH   1   6
TORSDOF 4
ENDMDL
