@<TRIPOS>MOLECULE
/home/cewinharhar/GITHUB/reincatalyze/data/processed/docking_pred/2023-May-17-1006_maxeplen10_maxtrainstep1000_seadep16_gamma099_lrac9e-4_lrcr1e-3_sub6/9e6208548f5309b91e7f4e881f40d3475c8e3dc2_ligand_6.pdbqt
 15 16 0 0 0
SMALL
GASTEIGER

@<TRIPOS>ATOM
      1  C          8.0180   -0.8250   -2.0440 C.3     1  UNL1        0.1270
      2  C          8.3030   -1.9910   -2.8650 C.2     1  UNL1        0.3030
      3  O          9.4040   -2.5320   -2.9850 O.2     1  UNL1       -0.2520
      4  O          7.2350   -2.5490   -3.5850 O.3     1  UNL1       -0.4810
      5  H          7.0030   -3.5060   -3.3670 H       1  UNL1        0.2960
      6  C          6.9780   -1.0540   -1.0180 C.3     1  UNL1        0.0470
      7  C          6.6930    0.0400   -0.0870 C.2     1  UNL1       -0.0430
      8  C          5.9650   -0.1680    1.0750 C.2     1  UNL1        0.0080
      9  C          7.1070    1.3170   -0.3580 C.2     1  UNL1        0.0540
     10  C          5.6660    0.8660    1.9340 C.2     1  UNL1        0.0510
     11  C          6.8190    2.3700    0.4890 C.2     1  UNL1        0.1660
     12  C          6.0980    2.1490    1.6370 C.2     1  UNL1        0.1650
     13  O          7.1290    3.7170    0.4190 O.2     1  UNL1       -0.4540
     14  O          5.9680    3.3830    2.2760 O.2     1  UNL1       -0.4540
     15  C          6.3280    4.4140    1.3850 C.3     1  UNL1        0.4680
@<TRIPOS>BOND
     1     4     5    1
     2     4     2    1
     3     3     2    2
     4     2     1    1
     5     1     6    1
     6     6     7    1
     7     9     7    2
     8     9    11    1
     9     7     8    1
    10    13    11    1
    11    13    15    1
    12    11    12    2
    13     8    10    2
    14    15    14    1
    15    12    10    1
    16    12    14    1
