@<TRIPOS>MOLECULE
/home/cewinharhar/GITHUB/reincatalyze/data/processed/docking_pred/2023-May-17-1006_maxeplen10_maxtrainstep1000_seadep16_gamma099_lrac9e-4_lrcr1e-3_sub6/9e6208548f5309b91e7f4e881f40d3475c8e3dc2_ligand_6.pdbqt
 15 16 0 0 0
SMALL
GASTEIGER

@<TRIPOS>ATOM
      1  C          8.8030   -0.6310   -2.4100 C.3     1  UNL1        0.1270
      2  C          8.8110   -1.9570   -3.0080 C.2     1  UNL1        0.3030
      3  O          9.8150   -2.6330   -3.2390 O.2     1  UNL1       -0.2520
      4  O          7.5700   -2.5160   -3.3510 O.3     1  UNL1       -0.4810
      5  H          6.8970   -2.5980   -2.6050 H       1  UNL1        0.2960
      6  C          7.4610   -0.0140   -2.3350 C.3     1  UNL1        0.0470
      7  C          6.8070    0.0280   -1.0250 C.2     1  UNL1       -0.0430
      8  C          6.9180   -1.0220   -0.1260 C.2     1  UNL1        0.0080
      9  C          6.0310    1.0960   -0.6650 C.2     1  UNL1        0.0540
     10  C          6.2740   -0.9990    1.0910 C.2     1  UNL1        0.0510
     11  C          5.3760    1.1410    0.5520 C.2     1  UNL1        0.1660
     12  C          5.4950    0.0940    1.4340 C.2     1  UNL1        0.1650
     13  O          4.5540    2.1000    1.1180 O.2     1  UNL1       -0.4540
     14  O          4.7320    0.4230    2.5550 O.2     1  UNL1       -0.4540
     15  C          3.8940    1.5140    2.2500 C.3     1  UNL1        0.4680
@<TRIPOS>BOND
     1     4     2    1
     2     4     5    1
     3     3     2    2
     4     2     1    1
     5     1     6    1
     6     6     7    1
     7     7     9    2
     8     7     8    1
     9     9    11    1
    10     8    10    2
    11    11    13    1
    12    11    12    2
    13    10    12    1
    14    13    15    1
    15    12    14    1
    16    15    14    1
