@<TRIPOS>MOLECULE
/home/cewinharhar/GITHUB/reincatalyze/data/processed/docking_pred/2023-May-17-1006_maxeplen10_maxtrainstep1000_seadep16_gamma099_lrac9e-4_lrcr1e-3_sub6/9e6208548f5309b91e7f4e881f40d3475c8e3dc2_ligand_6.pdbqt
 15 16 0 0 0
SMALL
GASTEIGER

@<TRIPOS>ATOM
      1  C          5.2770    2.1770    1.3530 C.3     1  UNL1        0.1270
      2  C          4.5590    1.1660    2.1120 C.2     1  UNL1        0.3030
      3  O          4.9570    0.0210    2.3380 O.2     1  UNL1       -0.2520
      4  O          3.3050    1.5210    2.6340 O.3     1  UNL1       -0.4810
      5  H          3.2460    1.5990    3.6370 H       1  UNL1        0.2960
      6  C          5.3100    1.9230   -0.1040 C.3     1  UNL1        0.0470
      7  C          6.4480    1.1690   -0.6340 C.2     1  UNL1       -0.0430
      8  C          7.7540    1.5860   -0.4280 C.2     1  UNL1        0.0080
      9  C          6.2510    0.0420   -1.3880 C.2     1  UNL1        0.0540
     10  C          8.8230    0.8980   -0.9570 C.2     1  UNL1        0.0510
     11  C          7.3090   -0.6640   -1.9280 C.2     1  UNL1        0.1660
     12  C          8.5980   -0.2390   -1.7150 C.2     1  UNL1        0.1650
     13  O          7.3470   -1.8080   -2.7060 O.2     1  UNL1       -0.4540
     14  O          9.4340   -1.1410   -2.3750 O.2     1  UNL1       -0.4540
     15  C          8.6690   -1.9360   -3.2510 C.3     1  UNL1        0.4680
@<TRIPOS>BOND
     1    15    13    1
     2    15    14    1
     3    13    11    1
     4    14    12    1
     5    11    12    2
     6    11     9    1
     7    12    10    1
     8     9     7    2
     9    10     8    2
    10     7     8    1
    11     7     6    1
    12     6     1    1
    13     1     2    1
    14     2     3    2
    15     2     4    1
    16     4     5    1
