@<TRIPOS>MOLECULE
/home/cewinharhar/GITHUB/reincatalyze/data/processed/docking_pred/2023-May-17-1006_maxeplen10_maxtrainstep1000_seadep16_gamma099_lrac9e-4_lrcr1e-3_sub6/9fad910e57fbde25b93c61ef9d3287f531a6e420_ligand_6.pdbqt
 15 16 0 0 0
SMALL
GASTEIGER

@<TRIPOS>ATOM
      1  C          5.4650    2.7970   -0.0610 C.3     1  UNL1        0.1270
      2  C          6.1560    3.7160    0.8300 C.2     1  UNL1        0.3030
      3  O          6.1740    3.6450    2.0600 O.2     1  UNL1       -0.2520
      4  O          6.8650    4.7740    0.2400 O.3     1  UNL1       -0.4810
      5  H          7.5930    5.1890    0.8010 H       1  UNL1        0.2960
      6  C          5.3140    1.4310    0.4850 C.3     1  UNL1        0.0470
      7  C          6.1890    0.3870   -0.0520 C.2     1  UNL1       -0.0430
      8  C          6.5210    0.3400   -1.3970 C.2     1  UNL1        0.0080
      9  C          6.6760   -0.6030    0.7600 C.2     1  UNL1        0.0540
     10  C          7.3150   -0.6620   -1.9090 C.2     1  UNL1        0.0510
     11  C          7.4750   -1.6180    0.2680 C.2     1  UNL1        0.1660
     12  C          7.7970   -1.6510   -1.0670 C.2     1  UNL1        0.1650
     13  O          8.0700   -2.7020    0.8890 O.2     1  UNL1       -0.4540
     14  O          8.6010   -2.7750   -1.2600 O.2     1  UNL1       -0.4540
     15  C          8.5250   -3.6090   -0.1270 C.3     1  UNL1        0.4680
@<TRIPOS>BOND
     1    10     8    1
     2    10    12    2
     3     8     7    2
     4    14    12    1
     5    14    15    1
     6    12    11    1
     7    15    13    1
     8     1     6    1
     9     1     2    1
    10     7     6    1
    11     7     9    1
    12     4     5    1
    13     4     2    1
    14    11     9    2
    15    11    13    1
    16     2     3    2
