@<TRIPOS>MOLECULE
/home/cewinharhar/GITHUB/reincatalyze/data/processed/docking_pred/2023-May-17-1006_maxeplen10_maxtrainstep1000_seadep16_gamma099_lrac9e-4_lrcr1e-3_sub6/9fad910e57fbde25b93c61ef9d3287f531a6e420_ligand_6.pdbqt
 15 16 0 0 0
SMALL
GASTEIGER

@<TRIPOS>ATOM
      1  C          5.4040    2.8690    0.1250 C.3     1  UNL1        0.1270
      2  C          6.2340    3.8500    0.8070 C.2     1  UNL1        0.3030
      3  O          6.8510    4.7690    0.2650 O.2     1  UNL1       -0.2520
      4  O          6.3420    3.7430    2.2030 O.3     1  UNL1       -0.4810
      5  H          7.2770    3.6530    2.5710 H       1  UNL1        0.2960
      6  C          5.3350    1.5610    0.8110 C.3     1  UNL1        0.0470
      7  C          6.1180    0.4590    0.2480 C.2     1  UNL1       -0.0430
      8  C          6.5920   -0.5740    1.0430 C.2     1  UNL1        0.0080
      9  C          6.4390    0.4360   -1.0830 C.2     1  UNL1        0.0540
     10  C          7.3580   -1.5920    0.5220 C.2     1  UNL1        0.0510
     11  C          7.2070   -0.5750   -1.6290 C.2     1  UNL1        0.1660
     12  C          7.6680   -1.5930   -0.8290 C.2     1  UNL1        0.1650
     13  O          7.6470   -0.8000   -2.9210 O.2     1  UNL1       -0.4540
     14  O          8.4020   -2.4500   -1.6510 O.2     1  UNL1       -0.4540
     15  C          8.6620   -1.8140   -2.8810 C.3     1  UNL1        0.4680
@<TRIPOS>BOND
     1    13    15    1
     2    13    11    1
     3    15    14    1
     4    14    12    1
     5    11     9    1
     6    11    12    2
     7     9     7    2
     8    12    10    1
     9     1     2    1
    10     1     6    1
    11     7     6    1
    12     7     8    1
    13     3     2    2
    14    10     8    2
    15     2     4    1
    16     4     5    1
