@<TRIPOS>MOLECULE
/home/cewinharhar/GITHUB/reincatalyze/data/processed/docking_pred/2023-May-17-1006_maxeplen10_maxtrainstep1000_seadep16_gamma099_lrac9e-4_lrcr1e-3_sub6/9fad910e57fbde25b93c61ef9d3287f531a6e420_ligand_6.pdbqt
 15 16 0 0 0
SMALL
GASTEIGER

@<TRIPOS>ATOM
      1  C          6.3960    1.3570    0.5460 C.3     1  UNL1        0.1270
      2  C          5.2160    1.3300    1.3960 C.2     1  UNL1        0.3030
      3  O          4.2700    2.1180    1.3350 O.2     1  UNL1       -0.2520
      4  O          5.1460    0.3220    2.3710 O.3     1  UNL1       -0.4810
      5  H          5.0690   -0.6230    2.0290 H       1  UNL1        0.2960
      6  C          6.1780    0.7910   -0.8020 C.3     1  UNL1        0.0470
      7  C          6.9570   -0.3920   -1.1740 C.2     1  UNL1       -0.0430
      8  C          7.2830   -0.6590   -2.4950 C.2     1  UNL1        0.0080
      9  C          7.3560   -1.2950   -0.2250 C.2     1  UNL1        0.0540
     10  C          7.9850   -1.7890   -2.8510 C.2     1  UNL1        0.0510
     11  C          8.0620   -2.4350   -0.5580 C.2     1  UNL1        0.1660
     12  C          8.3790   -2.6870   -1.8710 C.2     1  UNL1        0.1650
     13  O          8.5600   -3.4680    0.2180 O.2     1  UNL1       -0.4540
     14  O          9.0810   -3.8930   -1.8930 O.2     1  UNL1       -0.4540
     15  C          8.9320   -4.5460   -0.6530 C.3     1  UNL1        0.4680
@<TRIPOS>BOND
     1    10     8    1
     2    10    12    2
     3     8     7    2
     4    14    12    1
     5    14    15    1
     6    12    11    1
     7     7     6    1
     8     7     9    1
     9     6     1    1
    10    15    13    1
    11    11     9    2
    12    11    13    1
    13     1     2    1
    14     3     2    2
    15     2     4    1
    16     5     4    1
