@<TRIPOS>MOLECULE
/home/cewinharhar/GITHUB/reincatalyze/data/processed/docking_pred/2023-May-17-1006_maxeplen10_maxtrainstep1000_seadep16_gamma099_lrac9e-4_lrcr1e-3_sub6/9fad910e57fbde25b93c61ef9d3287f531a6e420_ligand_6.pdbqt
 15 16 0 0 0
SMALL
GASTEIGER

@<TRIPOS>ATOM
      1  C          8.3120   -0.3180   -2.8380 C.3     1  UNL1        0.1270
      2  C          8.4700   -1.7460   -3.0630 C.2     1  UNL1        0.3030
      3  O          9.5360   -2.3640   -3.0300 O.2     1  UNL1       -0.2520
      4  O          7.3100   -2.4860   -3.3430 O.3     1  UNL1       -0.4810
      5  H          6.4590   -1.9560   -3.4510 H       1  UNL1        0.2960
      6  C          8.7650    0.1330   -1.5050 C.3     1  UNL1        0.0470
      7  C          7.7920    0.0970   -0.4110 C.2     1  UNL1       -0.0430
      8  C          7.7390   -0.9680    0.4760 C.2     1  UNL1        0.0080
      9  C          6.8750    1.1020   -0.2550 C.2     1  UNL1        0.0540
     10  C          6.8010   -1.0210    1.4830 C.2     1  UNL1        0.0510
     11  C          5.9250    1.0700    0.7480 C.2     1  UNL1        0.1660
     12  C          5.8850    0.0100    1.6210 C.2     1  UNL1        0.1650
     13  O          4.9190    1.9570    1.0890 O.2     1  UNL1       -0.4540
     14  O          4.8350    0.2570    2.5070 O.2     1  UNL1       -0.4540
     15  C          4.0310    1.2980    2.0050 C.3     1  UNL1        0.4680
@<TRIPOS>BOND
     1     5     4    1
     2     4     2    1
     3     2     3    2
     4     2     1    1
     5     1     6    1
     6     6     7    1
     7     7     9    2
     8     7     8    1
     9     9    11    1
    10     8    10    2
    11    11    13    1
    12    11    12    2
    13    13    15    1
    14    10    12    1
    15    12    14    1
    16    15    14    1
