@<TRIPOS>MOLECULE
/home/cewinharhar/GITHUB/reincatalyze/data/processed/docking_pred/2023-May-17-1006_maxeplen10_maxtrainstep1000_seadep16_gamma099_lrac9e-4_lrcr1e-3_sub6/9fad910e57fbde25b93c61ef9d3287f531a6e420_ligand_6.pdbqt
 15 16 0 0 0
SMALL
GASTEIGER

@<TRIPOS>ATOM
      1  C          4.7060    1.8710    0.7020 C.3     1  UNL1        0.1270
      2  C          4.4080    1.1430    1.9250 C.2     1  UNL1        0.3030
      3  O          5.1400    0.3070    2.4590 O.2     1  UNL1       -0.2520
      4  O          3.1820    1.4130    2.5530 O.3     1  UNL1       -0.4810
      5  H          2.5430    2.0050    2.0460 H       1  UNL1        0.2960
      6  C          6.1320    2.2300    0.5500 C.3     1  UNL1        0.0470
      7  C          6.9800    1.3240   -0.2280 C.2     1  UNL1       -0.0430
      8  C          8.3420    1.5440   -0.3650 C.2     1  UNL1        0.0080
      9  C          6.4400    0.2460   -0.8790 C.2     1  UNL1        0.0540
     10  C          9.1340    0.7130   -1.1250 C.2     1  UNL1        0.0510
     11  C          7.2160   -0.6010   -1.6470 C.2     1  UNL1        0.1660
     12  C          8.5650   -0.3710   -1.7720 C.2     1  UNL1        0.1650
     13  O          6.8940   -1.7300   -2.3790 O.2     1  UNL1       -0.4540
     14  O          9.0700   -1.3780   -2.5960 O.2     1  UNL1       -0.4540
     15  C          8.0050   -2.0440   -3.2330 C.3     1  UNL1        0.4680
@<TRIPOS>BOND
     1    15    14    1
     2    15    13    1
     3    14    12    1
     4    13    11    1
     5    12    11    2
     6    12    10    1
     7    11     9    1
     8    10     8    2
     9     9     7    2
    10     8     7    1
    11     7     6    1
    12     6     1    1
    13     1     2    1
    14     2     3    2
    15     2     4    1
    16     5     4    1
