@<TRIPOS>MOLECULE
/home/cewinharhar/GITHUB/reincatalyze/data/processed/docking_pred/2023-May-17-1006_maxeplen10_maxtrainstep1000_seadep16_gamma099_lrac9e-4_lrcr1e-3_sub6/a1c3c4a97d6bd518e48ffa0772dda1f342f6565e_ligand_6.pdbqt
 15 16 0 0 0
SMALL
GASTEIGER

@<TRIPOS>ATOM
      1  C          6.4240    1.3340    0.6750 C.3     1  UNL1        0.1270
      2  C          5.1820    1.3410    1.4310 C.2     1  UNL1        0.3030
      3  O          4.2670    2.1560    1.2990 O.2     1  UNL1       -0.2520
      4  O          5.0080    0.3350    2.3940 O.3     1  UNL1       -0.4810
      5  H          4.9430    0.6430    3.3530 H       1  UNL1        0.2960
      6  C          6.2710    0.8870   -0.7270 C.3     1  UNL1        0.0470
      7  C          7.0050   -0.3110   -1.1400 C.2     1  UNL1       -0.0430
      8  C          7.2800   -0.5680   -2.4740 C.2     1  UNL1        0.0080
      9  C          7.4090   -1.2380   -0.2160 C.2     1  UNL1        0.0540
     10  C          7.9380   -1.7120   -2.8670 C.2     1  UNL1        0.0510
     11  C          8.0710   -2.3920   -0.5870 C.2     1  UNL1        0.1660
     12  C          8.3380   -2.6340   -1.9130 C.2     1  UNL1        0.1650
     13  O          8.5650   -3.4490    0.1590 O.2     1  UNL1       -0.4540
     14  O          9.0050   -3.8580   -1.9740 O.2     1  UNL1       -0.4540
     15  C          8.8780   -4.5240   -0.7390 C.3     1  UNL1        0.4680
@<TRIPOS>BOND
     1    10     8    1
     2    10    12    2
     3     8     7    2
     4    14    12    1
     5    14    15    1
     6    12    11    1
     7     7     6    1
     8     7     9    1
     9    15    13    1
    10     6     1    1
    11    11     9    2
    12    11    13    1
    13     1     2    1
    14     3     2    2
    15     2     4    1
    16     4     5    1
