@<TRIPOS>MOLECULE
/home/cewinharhar/GITHUB/reincatalyze/data/processed/docking_pred/2023-May-17-1006_maxeplen10_maxtrainstep1000_seadep16_gamma099_lrac9e-4_lrcr1e-3_sub6/a1c3c4a97d6bd518e48ffa0772dda1f342f6565e_ligand_6.pdbqt
 15 16 0 0 0
SMALL
GASTEIGER

@<TRIPOS>ATOM
      1  C          4.6980    1.8890    0.6710 C.3     1  UNL1        0.1270
      2  C          4.3910    1.1850    1.9070 C.2     1  UNL1        0.3030
      3  O          5.1150    0.3540    2.4580 O.2     1  UNL1       -0.2520
      4  O          3.1650    1.4750    2.5260 O.3     1  UNL1       -0.4810
      5  H          3.1730    1.5130    3.5330 H       1  UNL1        0.2960
      6  C          6.1240    2.2530    0.5270 C.3     1  UNL1        0.0470
      7  C          6.9780    1.3500   -0.2480 C.2     1  UNL1       -0.0430
      8  C          8.3350    1.5890   -0.3990 C.2     1  UNL1        0.0080
      9  C          6.4490    0.2580   -0.8830 C.2     1  UNL1        0.0540
     10  C          9.1330    0.7610   -1.1580 C.2     1  UNL1        0.0510
     11  C          7.2300   -0.5860   -1.6490 C.2     1  UNL1        0.1660
     12  C          8.5740   -0.3380   -1.7890 C.2     1  UNL1        0.1650
     13  O          6.9170   -1.7280   -2.3670 O.2     1  UNL1       -0.4540
     14  O          9.0870   -1.3470   -2.6070 O.2     1  UNL1       -0.4540
     15  C          8.0250   -2.0350   -3.2270 C.3     1  UNL1        0.4680
@<TRIPOS>BOND
     1    15    14    1
     2    15    13    1
     3    14    12    1
     4    13    11    1
     5    12    11    2
     6    12    10    1
     7    11     9    1
     8    10     8    2
     9     9     7    2
    10     8     7    1
    11     7     6    1
    12     6     1    1
    13     1     2    1
    14     2     3    2
    15     2     4    1
    16     4     5    1
