@<TRIPOS>MOLECULE
/home/cewinharhar/GITHUB/reincatalyze/data/processed/docking_pred/2023-May-17-1006_maxeplen10_maxtrainstep1000_seadep16_gamma099_lrac9e-4_lrcr1e-3_sub6/a1c3c4a97d6bd518e48ffa0772dda1f342f6565e_ligand_6.pdbqt
 15 16 0 0 0
SMALL
GASTEIGER

@<TRIPOS>ATOM
      1  C          5.3980    2.8270    0.0680 C.3     1  UNL1        0.1270
      2  C          6.1400    3.8180    0.8310 C.2     1  UNL1        0.3030
      3  O          6.1840    3.8900    2.0610 O.2     1  UNL1       -0.2520
      4  O          6.8690    4.7750    0.1080 O.3     1  UNL1       -0.4810
      5  H          6.4360    5.6800    0.0050 H       1  UNL1        0.2960
      6  C          5.3690    1.4870    0.6920 C.3     1  UNL1        0.0470
      7  C          6.2080    0.4440    0.0980 C.2     1  UNL1       -0.0430
      8  C          6.5010    0.4350   -1.2570 C.2     1  UNL1        0.0080
      9  C          6.7000   -0.5800    0.8630 C.2     1  UNL1        0.0540
     10  C          7.2600   -0.5650   -1.8240 C.2     1  UNL1        0.0510
     11  C          7.4640   -1.5930    0.3160 C.2     1  UNL1        0.1660
     12  C          7.7470   -1.5890   -1.0290 C.2     1  UNL1        0.1650
     13  O          8.0560   -2.7070    0.8850 O.2     1  UNL1       -0.4540
     14  O          8.5240   -2.7210   -1.2800 O.2     1  UNL1       -0.4540
     15  C          8.4630   -3.5890   -0.1720 C.3     1  UNL1        0.4680
@<TRIPOS>BOND
     1    10     8    1
     2    10    12    2
     3    14    12    1
     4    14    15    1
     5     8     7    2
     6    12    11    1
     7    15    13    1
     8     5     4    1
     9     1     6    1
    10     1     2    1
    11     7     6    1
    12     7     9    1
    13     4     2    1
    14    11     9    2
    15    11    13    1
    16     2     3    2
