MODEL 1
REMARK VINA RESULT:      -7.7      0.000      0.000
REMARK SMILES O=C(O)CCc1ccc2c(c1)OCO2
REMARK SMILES IDX 4 1 2 2 1 3 3 4 5 6 6 7 7 8 11 9 8 10 10 11 9 12 12 13 14 14
REMARK SMILES IDX 13 15
REMARK H PARENT 3 5
REMARK Flexibility Score: inf
ROOT
ATOM      1  C   UNL     1       5.401   2.882   0.102  1.00  0.00     0.127 C 
ENDROOT
BRANCH   1   2
ATOM      2  C   UNL     1       6.217   3.866   0.795  1.00  0.00     0.303 C 
ATOM      3  O   UNL     1       6.870   4.763   0.259  1.00  0.00    -0.252 OA
BRANCH   2   4
ATOM      4  O   UNL     1       6.267   3.790   2.196  1.00  0.00    -0.481 OA
ATOM      5  H   UNL     1       7.187   3.781   2.609  1.00  0.00     0.296 HD
ENDBRANCH   2   4
ENDBRANCH   1   2
BRANCH   1   6
ATOM      6  C   UNL     1       5.321   1.576   0.790  1.00  0.00     0.047 C 
BRANCH   6   7
ATOM      7  C   UNL     1       6.096   0.466   0.231  1.00  0.00    -0.043 A 
ATOM      8  C   UNL     1       6.520  -0.592   1.020  1.00  0.00     0.008 A 
ATOM      9  C   UNL     1       6.460   0.462  -1.089  1.00  0.00     0.054 A 
ATOM     10  C   UNL     1       7.279  -1.618   0.503  1.00  0.00     0.051 A 
ATOM     11  C   UNL     1       7.221  -0.557  -1.630  1.00  0.00     0.166 A 
ATOM     12  C   UNL     1       7.633  -1.600  -0.836  1.00  0.00     0.165 A 
ATOM     13  O   UNL     1       7.697  -0.767  -2.912  1.00  0.00    -0.454 OA
ATOM     14  O   UNL     1       8.373  -2.458  -1.651  1.00  0.00    -0.454 OA
ATOM     15  C   UNL     1       8.687  -1.806  -2.859  1.00  0.00     0.468 C 
ENDBRANCH   6   7
ENDBRANCH   1   6
TORSDOF 4
ENDMDL
MODEL 2
REMARK VINA RESULT:      -7.6      2.127      2.528
REMARK SMILES O=C(O)CCc1ccc2c(c1)OCO2
REMARK SMILES IDX 4 1 2 2 1 3 3 4 5 6 6 7 7 8 11 9 8 10 10 11 9 12 12 13 14 14
REMARK SMILES IDX 13 15
REMARK H PARENT 3 5
REMARK Flexibility Score: inf
ROOT
ATOM      1  C   UNL     1       4.698   1.889   0.671  1.00  0.00     0.127 C 
ENDROOT
BRANCH   1   2
ATOM      2  C   UNL     1       4.391   1.185   1.907  1.00  0.00     0.303 C 
ATOM      3  O   UNL     1       5.115   0.354   2.458  1.00  0.00    -0.252 OA
BRANCH   2   4
ATOM      4  O   UNL     1       3.165   1.475   2.526  1.00  0.00    -0.481 OA
ATOM      5  H   UNL     1       3.173   1.513   3.533  1.00  0.00     0.296 HD
ENDBRANCH   2   4
ENDBRANCH   1   2
BRANCH   1   6
ATOM      6  C   UNL     1       6.124   2.253   0.527  1.00  0.00     0.047 C 
BRANCH   6   7
ATOM      7  C   UNL     1       6.978   1.350  -0.248  1.00  0.00    -0.043 A 
ATOM      8  C   UNL     1       8.335   1.589  -0.399  1.00  0.00     0.008 A 
ATOM      9  C   UNL     1       6.449   0.258  -0.883  1.00  0.00     0.054 A 
ATOM     10  C   UNL     1       9.133   0.761  -1.158  1.00  0.00     0.051 A 
ATOM     11  C   UNL     1       7.230  -0.586  -1.649  1.00  0.00     0.166 A 
ATOM     12  C   UNL     1       8.574  -0.338  -1.789  1.00  0.00     0.165 A 
ATOM     13  O   UNL     1       6.917  -1.728  -2.367  1.00  0.00    -0.454 OA
ATOM     14  O   UNL     1       9.087  -1.347  -2.607  1.00  0.00    -0.454 OA
ATOM     15  C   UNL     1       8.025  -2.035  -3.227  1.00  0.00     0.468 C 
ENDBRANCH   6   7
ENDBRANCH   1   6
TORSDOF 4
ENDMDL
MODEL 3
REMARK VINA RESULT:      -7.5      1.960      2.874
REMARK SMILES O=C(O)CCc1ccc2c(c1)OCO2
REMARK SMILES IDX 4 1 2 2 1 3 3 4 5 6 6 7 7 8 11 9 8 10 10 11 9 12 12 13 14 14
REMARK SMILES IDX 13 15
REMARK H PARENT 3 5
REMARK Flexibility Score: inf
ROOT
ATOM      1  C   UNL     1       6.424   1.334   0.675  1.00  0.00     0.127 C 
ENDROOT
BRANCH   1   2
ATOM      2  C   UNL     1       5.182   1.341   1.431  1.00  0.00     0.303 C 
ATOM      3  O   UNL     1       4.267   2.156   1.299  1.00  0.00    -0.252 OA
BRANCH   2   4
ATOM      4  O   UNL     1       5.008   0.335   2.394  1.00  0.00    -0.481 OA
ATOM      5  H   UNL     1       4.943   0.643   3.353  1.00  0.00     0.296 HD
ENDBRANCH   2   4
ENDBRANCH   1   2
BRANCH   1   6
ATOM      6  C   UNL     1       6.271   0.887  -0.727  1.00  0.00     0.047 C 
BRANCH   6   7
ATOM      7  C   UNL     1       7.005  -0.311  -1.140  1.00  0.00    -0.043 A 
ATOM      8  C   UNL     1       7.280  -0.568  -2.474  1.00  0.00     0.008 A 
ATOM      9  C   UNL     1       7.409  -1.238  -0.216  1.00  0.00     0.054 A 
ATOM     10  C   UNL     1       7.938  -1.712  -2.867  1.00  0.00     0.051 A 
ATOM     11  C   UNL     1       8.071  -2.392  -0.587  1.00  0.00     0.166 A 
ATOM     12  C   UNL     1       8.338  -2.634  -1.913  1.00  0.00     0.165 A 
ATOM     13  O   UNL     1       8.565  -3.449   0.159  1.00  0.00    -0.454 OA
ATOM     14  O   UNL     1       9.005  -3.858  -1.974  1.00  0.00    -0.454 OA
ATOM     15  C   UNL     1       8.878  -4.524  -0.739  1.00  0.00     0.468 C 
ENDBRANCH   6   7
ENDBRANCH   1   6
TORSDOF 4
ENDMDL
MODEL 4
REMARK VINA RESULT:      -7.5      1.812      5.284
REMARK SMILES O=C(O)CCc1ccc2c(c1)OCO2
REMARK SMILES IDX 4 1 2 2 1 3 3 4 5 6 6 7 7 8 11 9 8 10 10 11 9 12 12 13 14 14
REMARK SMILES IDX 13 15
REMARK H PARENT 3 5
REMARK Flexibility Score: inf
ROOT
ATOM      1  C   UNL     1       8.309  -0.314  -2.827  1.00  0.00     0.127 C 
ENDROOT
BRANCH   1   2
ATOM      2  C   UNL     1       8.474  -1.740  -3.061  1.00  0.00     0.303 C 
ATOM      3  O   UNL     1       9.542  -2.353  -3.031  1.00  0.00    -0.252 OA
BRANCH   2   4
ATOM      4  O   UNL     1       7.318  -2.483  -3.346  1.00  0.00    -0.481 OA
ATOM      5  H   UNL     1       6.976  -2.429  -4.294  1.00  0.00     0.296 HD
ENDBRANCH   2   4
ENDBRANCH   1   2
BRANCH   1   6
ATOM      6  C   UNL     1       8.767   0.132  -1.493  1.00  0.00     0.047 C 
BRANCH   6   7
ATOM      7  C   UNL     1       7.798   0.094  -0.397  1.00  0.00    -0.043 A 
ATOM      8  C   UNL     1       7.760  -0.962   0.501  1.00  0.00     0.008 A 
ATOM      9  C   UNL     1       6.869   1.090  -0.249  1.00  0.00     0.054 A 
ATOM     10  C   UNL     1       6.825  -1.016   1.511  1.00  0.00     0.051 A 
ATOM     11  C   UNL     1       5.922   1.056   0.757  1.00  0.00     0.166 A 
ATOM     12  C   UNL     1       5.897   0.004   1.641  1.00  0.00     0.165 A 
ATOM     13  O   UNL     1       4.905   1.934   1.092  1.00  0.00    -0.454 OA
ATOM     14  O   UNL     1       4.846   0.247   2.527  1.00  0.00    -0.454 OA
ATOM     15  C   UNL     1       4.027   1.274   2.016  1.00  0.00     0.468 C 
ENDBRANCH   6   7
ENDBRANCH   1   6
TORSDOF 4
ENDMDL
MODEL 5
REMARK VINA RESULT:      -6.2      0.936      2.103
REMARK SMILES O=C(O)CCc1ccc2c(c1)OCO2
REMARK SMILES IDX 4 1 2 2 1 3 3 4 5 6 6 7 7 8 11 9 8 10 10 11 9 12 12 13 14 14
REMARK SMILES IDX 13 15
REMARK H PARENT 3 5
REMARK Flexibility Score: inf
ROOT
ATOM      1  C   UNL     1       5.398   2.827   0.068  1.00  0.00     0.127 C 
ENDROOT
BRANCH   1   2
ATOM      2  C   UNL     1       6.140   3.818   0.831  1.00  0.00     0.303 C 
ATOM      3  O   UNL     1       6.184   3.890   2.061  1.00  0.00    -0.252 OA
BRANCH   2   4
ATOM      4  O   UNL     1       6.869   4.775   0.108  1.00  0.00    -0.481 OA
ATOM      5  H   UNL     1       6.436   5.680   0.005  1.00  0.00     0.296 HD
ENDBRANCH   2   4
ENDBRANCH   1   2
BRANCH   1   6
ATOM      6  C   UNL     1       5.369   1.487   0.692  1.00  0.00     0.047 C 
BRANCH   6   7
ATOM      7  C   UNL     1       6.208   0.444   0.098  1.00  0.00    -0.043 A 
ATOM      8  C   UNL     1       6.501   0.435  -1.257  1.00  0.00     0.008 A 
ATOM      9  C   UNL     1       6.700  -0.580   0.863  1.00  0.00     0.054 A 
ATOM     10  C   UNL     1       7.260  -0.565  -1.824  1.00  0.00     0.051 A 
ATOM     11  C   UNL     1       7.464  -1.593   0.316  1.00  0.00     0.166 A 
ATOM     12  C   UNL     1       7.747  -1.589  -1.029  1.00  0.00     0.165 A 
ATOM     13  O   UNL     1       8.056  -2.707   0.885  1.00  0.00    -0.454 OA
ATOM     14  O   UNL     1       8.524  -2.721  -1.280  1.00  0.00    -0.454 OA
ATOM     15  C   UNL     1       8.463  -3.589  -0.172  1.00  0.00     0.468 C 
ENDBRANCH   6   7
ENDBRANCH   1   6
TORSDOF 4
ENDMDL
