@<TRIPOS>MOLECULE
/home/cewinharhar/GITHUB/reincatalyze/data/processed/docking_pred/2023-May-17-1006_maxeplen10_maxtrainstep1000_seadep16_gamma099_lrac9e-4_lrcr1e-3_sub6/a1c3c4a97d6bd518e48ffa0772dda1f342f6565e_ligand_6.pdbqt
 15 16 0 0 0
SMALL
GASTEIGER

@<TRIPOS>ATOM
      1  C          5.4010    2.8820    0.1020 C.3     1  UNL1        0.1270
      2  C          6.2170    3.8660    0.7950 C.2     1  UNL1        0.3030
      3  O          6.8700    4.7630    0.2590 O.2     1  UNL1       -0.2520
      4  O          6.2670    3.7900    2.1960 O.3     1  UNL1       -0.4810
      5  H          7.1870    3.7810    2.6090 H       1  UNL1        0.2960
      6  C          5.3210    1.5760    0.7900 C.3     1  UNL1        0.0470
      7  C          6.0960    0.4660    0.2310 C.2     1  UNL1       -0.0430
      8  C          6.5200   -0.5920    1.0200 C.2     1  UNL1        0.0080
      9  C          6.4600    0.4620   -1.0890 C.2     1  UNL1        0.0540
     10  C          7.2790   -1.6180    0.5030 C.2     1  UNL1        0.0510
     11  C          7.2210   -0.5570   -1.6300 C.2     1  UNL1        0.1660
     12  C          7.6330   -1.6000   -0.8360 C.2     1  UNL1        0.1650
     13  O          7.6970   -0.7670   -2.9120 O.2     1  UNL1       -0.4540
     14  O          8.3730   -2.4580   -1.6510 O.2     1  UNL1       -0.4540
     15  C          8.6870   -1.8060   -2.8590 C.3     1  UNL1        0.4680
@<TRIPOS>BOND
     1    13    15    1
     2    13    11    1
     3    15    14    1
     4    14    12    1
     5    11     9    1
     6    11    12    2
     7     9     7    2
     8    12    10    1
     9     1     6    1
    10     1     2    1
    11     7     6    1
    12     7     8    1
    13     3     2    2
    14    10     8    2
    15     2     4    1
    16     4     5    1
