@<TRIPOS>MOLECULE
/home/cewinharhar/GITHUB/reincatalyze/data/processed/docking_pred/2023-May-17-1006_maxeplen10_maxtrainstep1000_seadep16_gamma099_lrac9e-4_lrcr1e-3_sub6/a1c3c4a97d6bd518e48ffa0772dda1f342f6565e_ligand_6.pdbqt
 15 16 0 0 0
SMALL
GASTEIGER

@<TRIPOS>ATOM
      1  C          8.3090   -0.3140   -2.8270 C.3     1  UNL1        0.1270
      2  C          8.4740   -1.7400   -3.0610 C.2     1  UNL1        0.3030
      3  O          9.5420   -2.3530   -3.0310 O.2     1  UNL1       -0.2520
      4  O          7.3180   -2.4830   -3.3460 O.3     1  UNL1       -0.4810
      5  H          6.9760   -2.4290   -4.2940 H       1  UNL1        0.2960
      6  C          8.7670    0.1320   -1.4930 C.3     1  UNL1        0.0470
      7  C          7.7980    0.0940   -0.3970 C.2     1  UNL1       -0.0430
      8  C          7.7600   -0.9620    0.5010 C.2     1  UNL1        0.0080
      9  C          6.8690    1.0900   -0.2490 C.2     1  UNL1        0.0540
     10  C          6.8250   -1.0160    1.5110 C.2     1  UNL1        0.0510
     11  C          5.9220    1.0560    0.7570 C.2     1  UNL1        0.1660
     12  C          5.8970    0.0040    1.6410 C.2     1  UNL1        0.1650
     13  O          4.9050    1.9340    1.0920 O.2     1  UNL1       -0.4540
     14  O          4.8460    0.2470    2.5270 O.2     1  UNL1       -0.4540
     15  C          4.0270    1.2740    2.0160 C.3     1  UNL1        0.4680
@<TRIPOS>BOND
     1     5     4    1
     2     4     2    1
     3     2     3    2
     4     2     1    1
     5     1     6    1
     6     6     7    1
     7     7     9    2
     8     7     8    1
     9     9    11    1
    10     8    10    2
    11    11    13    1
    12    11    12    2
    13    13    15    1
    14    10    12    1
    15    12    14    1
    16    15    14    1
