MODEL 1
REMARK VINA RESULT:      -7.6      0.000      0.000
REMARK SMILES O=C(O)CCc1ccc2c(c1)OCO2
REMARK SMILES IDX 4 1 2 2 1 3 3 4 5 6 6 7 7 8 11 9 8 10 10 11 9 12 12 13 14 14
REMARK SMILES IDX 13 15
REMARK H PARENT 3 5
REMARK Flexibility Score: inf
ROOT
ATOM      1  C   UNL     1       5.473   2.844   0.121  1.00  0.00     0.127 C 
ENDROOT
BRANCH   1   2
ATOM      2  C   UNL     1       6.291   3.815   0.831  1.00  0.00     0.303 C 
ATOM      3  O   UNL     1       6.871   4.775   0.319  1.00  0.00    -0.252 OA
BRANCH   2   4
ATOM      4  O   UNL     1       6.433   3.648   2.217  1.00  0.00    -0.481 OA
ATOM      5  H   UNL     1       6.024   2.814   2.609  1.00  0.00     0.296 HD
ENDBRANCH   2   4
ENDBRANCH   1   2
BRANCH   1   6
ATOM      6  C   UNL     1       5.384   1.530   0.793  1.00  0.00     0.047 C 
BRANCH   6   7
ATOM      7  C   UNL     1       6.153   0.423   0.221  1.00  0.00    -0.043 A 
ATOM      8  C   UNL     1       6.600  -0.630   1.004  1.00  0.00     0.008 A 
ATOM      9  C   UNL     1       6.488   0.416  -1.107  1.00  0.00     0.054 A 
ATOM     10  C   UNL     1       7.355  -1.653   0.474  1.00  0.00     0.051 A 
ATOM     11  C   UNL     1       7.243  -0.600  -1.661  1.00  0.00     0.166 A 
ATOM     12  C   UNL     1       7.679  -1.638  -0.873  1.00  0.00     0.165 A 
ATOM     13  O   UNL     1       7.692  -0.812  -2.953  1.00  0.00    -0.454 OA
ATOM     14  O   UNL     1       8.406  -2.495  -1.701  1.00  0.00    -0.454 OA
ATOM     15  C   UNL     1       8.689  -1.845  -2.918  1.00  0.00     0.468 C 
ENDBRANCH   6   7
ENDBRANCH   1   6
TORSDOF 4
ENDMDL
MODEL 2
REMARK VINA RESULT:      -7.6      2.112      2.523
REMARK SMILES O=C(O)CCc1ccc2c(c1)OCO2
REMARK SMILES IDX 4 1 2 2 1 3 3 4 5 6 6 7 7 8 11 9 8 10 10 11 9 12 12 13 14 14
REMARK SMILES IDX 13 15
REMARK H PARENT 3 5
REMARK Flexibility Score: inf
ROOT
ATOM      1  C   UNL     1       4.738   1.886   0.710  1.00  0.00     0.127 C 
ENDROOT
BRANCH   1   2
ATOM      2  C   UNL     1       4.420   1.156   1.927  1.00  0.00     0.303 C 
ATOM      3  O   UNL     1       5.141   0.316   2.469  1.00  0.00    -0.252 OA
BRANCH   2   4
ATOM      4  O   UNL     1       3.187   1.430   2.539  1.00  0.00    -0.481 OA
ATOM      5  H   UNL     1       2.419   1.636   1.919  1.00  0.00     0.296 HD
ENDBRANCH   2   4
ENDBRANCH   1   2
BRANCH   1   6
ATOM      6  C   UNL     1       6.170   2.229   0.573  1.00  0.00     0.047 C 
BRANCH   6   7
ATOM      7  C   UNL     1       7.011   1.324  -0.214  1.00  0.00    -0.043 A 
ATOM      8  C   UNL     1       8.369   1.552  -0.373  1.00  0.00     0.008 A 
ATOM      9  C   UNL     1       6.468   0.240  -0.851  1.00  0.00     0.054 A 
ATOM     10  C   UNL     1       9.155   0.723  -1.142  1.00  0.00     0.051 A 
ATOM     11  C   UNL     1       7.237  -0.607  -1.627  1.00  0.00     0.166 A 
ATOM     12  C   UNL     1       8.582  -0.369  -1.775  1.00  0.00     0.165 A 
ATOM     13  O   UNL     1       6.910  -1.741  -2.349  1.00  0.00    -0.454 OA
ATOM     14  O   UNL     1       9.081  -1.376  -2.602  1.00  0.00    -0.454 OA
ATOM     15  C   UNL     1       8.009  -2.052  -3.219  1.00  0.00     0.468 C 
ENDBRANCH   6   7
ENDBRANCH   1   6
TORSDOF 4
ENDMDL
MODEL 3
REMARK VINA RESULT:      -7.5      1.812      5.265
REMARK SMILES O=C(O)CCc1ccc2c(c1)OCO2
REMARK SMILES IDX 4 1 2 2 1 3 3 4 5 6 6 7 7 8 11 9 8 10 10 11 9 12 12 13 14 14
REMARK SMILES IDX 13 15
REMARK H PARENT 3 5
REMARK Flexibility Score: inf
ROOT
ATOM      1  C   UNL     1       8.212  -0.218  -2.857  1.00  0.00     0.127 C 
ENDROOT
BRANCH   1   2
ATOM      2  C   UNL     1       8.465  -1.636  -3.053  1.00  0.00     0.303 C 
ATOM      3  O   UNL     1       9.557  -2.194  -2.926  1.00  0.00    -0.252 OA
BRANCH   2   4
ATOM      4  O   UNL     1       7.375  -2.441  -3.418  1.00  0.00    -0.481 OA
ATOM      5  H   UNL     1       6.609  -1.972  -3.877  1.00  0.00     0.296 HD
ENDBRANCH   2   4
ENDBRANCH   1   2
BRANCH   1   6
ATOM      6  C   UNL     1       8.667   0.298  -1.548  1.00  0.00     0.047 C 
BRANCH   6   7
ATOM      7  C   UNL     1       7.722   0.239  -0.431  1.00  0.00    -0.043 A 
ATOM      8  C   UNL     1       7.767  -0.786   0.502  1.00  0.00     0.008 A 
ATOM      9  C   UNL     1       6.735   1.179  -0.298  1.00  0.00     0.054 A 
ATOM     10  C   UNL     1       6.856  -0.863   1.532  1.00  0.00     0.051 A 
ATOM     11  C   UNL     1       5.811   1.122   0.728  1.00  0.00     0.166 A 
ATOM     12  C   UNL     1       5.868   0.102   1.647  1.00  0.00     0.165 A 
ATOM     13  O   UNL     1       4.748   1.946   1.054  1.00  0.00    -0.454 OA
ATOM     14  O   UNL     1       4.821   0.310   2.546  1.00  0.00    -0.454 OA
ATOM     15  C   UNL     1       3.930   1.265   2.018  1.00  0.00     0.468 C 
ENDBRANCH   6   7
ENDBRANCH   1   6
TORSDOF 4
ENDMDL
MODEL 4
REMARK VINA RESULT:      -7.5      1.973      2.951
REMARK SMILES O=C(O)CCc1ccc2c(c1)OCO2
REMARK SMILES IDX 4 1 2 2 1 3 3 4 5 6 6 7 7 8 11 9 8 10 10 11 9 12 12 13 14 14
REMARK SMILES IDX 13 15
REMARK H PARENT 3 5
REMARK Flexibility Score: inf
ROOT
ATOM      1  C   UNL     1       6.469   1.289   0.774  1.00  0.00     0.127 C 
ENDROOT
BRANCH   1   2
ATOM      2  C   UNL     1       5.260   1.179   1.576  1.00  0.00     0.303 C 
ATOM      3  O   UNL     1       5.056   0.337   2.453  1.00  0.00    -0.252 OA
BRANCH   2   4
ATOM      4  O   UNL     1       4.238   2.109   1.333  1.00  0.00    -0.481 OA
ATOM      5  H   UNL     1       3.444   1.772   0.810  1.00  0.00     0.296 HD
ENDBRANCH   2   4
ENDBRANCH   1   2
BRANCH   1   6
ATOM      6  C   UNL     1       6.296   0.866  -0.632  1.00  0.00     0.047 C 
BRANCH   6   7
ATOM      7  C   UNL     1       7.022  -0.326  -1.075  1.00  0.00    -0.043 A 
ATOM      8  C   UNL     1       7.289  -0.555  -2.416  1.00  0.00     0.008 A 
ATOM      9  C   UNL     1       7.428  -1.274  -0.174  1.00  0.00     0.054 A 
ATOM     10  C   UNL     1       7.940  -1.693  -2.838  1.00  0.00     0.051 A 
ATOM     11  C   UNL     1       8.083  -2.423  -0.574  1.00  0.00     0.166 A 
ATOM     12  C   UNL     1       8.342  -2.637  -1.906  1.00  0.00     0.165 A 
ATOM     13  O   UNL     1       8.577  -3.497   0.146  1.00  0.00    -0.454 OA
ATOM     14  O   UNL     1       9.004  -3.862  -1.997  1.00  0.00    -0.454 OA
ATOM     15  C   UNL     1       8.881  -4.555  -0.776  1.00  0.00     0.468 C 
ENDBRANCH   6   7
ENDBRANCH   1   6
TORSDOF 4
ENDMDL
