@<TRIPOS>MOLECULE
/home/cewinharhar/GITHUB/reincatalyze/data/processed/docking_pred/2023-May-17-1006_maxeplen10_maxtrainstep1000_seadep16_gamma099_lrac9e-4_lrcr1e-3_sub6/a450f47ca4f24610d4ad642e19216dd37a68a7e2_ligand_6.pdbqt
 15 16 0 0 0
SMALL
GASTEIGER

@<TRIPOS>ATOM
      1  C          8.2120   -0.2180   -2.8570 C.3     1  UNL1        0.1270
      2  C          8.4650   -1.6360   -3.0530 C.2     1  UNL1        0.3030
      3  O          9.5570   -2.1940   -2.9260 O.2     1  UNL1       -0.2520
      4  O          7.3750   -2.4410   -3.4180 O.3     1  UNL1       -0.4810
      5  H          6.6090   -1.9720   -3.8770 H       1  UNL1        0.2960
      6  C          8.6670    0.2980   -1.5480 C.3     1  UNL1        0.0470
      7  C          7.7220    0.2390   -0.4310 C.2     1  UNL1       -0.0430
      8  C          7.7670   -0.7860    0.5020 C.2     1  UNL1        0.0080
      9  C          6.7350    1.1790   -0.2980 C.2     1  UNL1        0.0540
     10  C          6.8560   -0.8630    1.5320 C.2     1  UNL1        0.0510
     11  C          5.8110    1.1220    0.7280 C.2     1  UNL1        0.1660
     12  C          5.8680    0.1020    1.6470 C.2     1  UNL1        0.1650
     13  O          4.7480    1.9460    1.0540 O.2     1  UNL1       -0.4540
     14  O          4.8210    0.3100    2.5460 O.2     1  UNL1       -0.4540
     15  C          3.9300    1.2650    2.0180 C.3     1  UNL1        0.4680
@<TRIPOS>BOND
     1     5     4    1
     2     4     2    1
     3     2     3    2
     4     2     1    1
     5     1     6    1
     6     6     7    1
     7     7     9    2
     8     7     8    1
     9     9    11    1
    10     8    10    2
    11    11    13    1
    12    11    12    2
    13    13    15    1
    14    10    12    1
    15    12    14    1
    16    15    14    1
