@<TRIPOS>MOLECULE
/home/cewinharhar/GITHUB/reincatalyze/data/processed/docking_pred/2023-May-17-1006_maxeplen10_maxtrainstep1000_seadep16_gamma099_lrac9e-4_lrcr1e-3_sub6/a450f47ca4f24610d4ad642e19216dd37a68a7e2_ligand_6.pdbqt
 15 16 0 0 0
SMALL
GASTEIGER

@<TRIPOS>ATOM
      1  C          6.4690    1.2890    0.7740 C.3     1  UNL1        0.1270
      2  C          5.2600    1.1790    1.5760 C.2     1  UNL1        0.3030
      3  O          5.0560    0.3370    2.4530 O.2     1  UNL1       -0.2520
      4  O          4.2380    2.1090    1.3330 O.3     1  UNL1       -0.4810
      5  H          3.4440    1.7720    0.8100 H       1  UNL1        0.2960
      6  C          6.2960    0.8660   -0.6320 C.3     1  UNL1        0.0470
      7  C          7.0220   -0.3260   -1.0750 C.2     1  UNL1       -0.0430
      8  C          7.2890   -0.5550   -2.4160 C.2     1  UNL1        0.0080
      9  C          7.4280   -1.2740   -0.1740 C.2     1  UNL1        0.0540
     10  C          7.9400   -1.6930   -2.8380 C.2     1  UNL1        0.0510
     11  C          8.0830   -2.4230   -0.5740 C.2     1  UNL1        0.1660
     12  C          8.3420   -2.6370   -1.9060 C.2     1  UNL1        0.1650
     13  O          8.5770   -3.4970    0.1460 O.2     1  UNL1       -0.4540
     14  O          9.0040   -3.8620   -1.9970 O.2     1  UNL1       -0.4540
     15  C          8.8810   -4.5550   -0.7760 C.3     1  UNL1        0.4680
@<TRIPOS>BOND
     1    10     8    1
     2    10    12    2
     3     8     7    2
     4    14    12    1
     5    14    15    1
     6    12    11    1
     7     7     6    1
     8     7     9    1
     9    15    13    1
    10     6     1    1
    11    11     9    2
    12    11    13    1
    13     1     2    1
    14     5     4    1
    15     4     2    1
    16     2     3    2
