@<TRIPOS>MOLECULE
/home/cewinharhar/GITHUB/reincatalyze/data/processed/docking_pred/2023-May-17-1006_maxeplen10_maxtrainstep1000_seadep16_gamma099_lrac9e-4_lrcr1e-3_sub6/a450f47ca4f24610d4ad642e19216dd37a68a7e2_ligand_6.pdbqt
 15 16 0 0 0
SMALL
GASTEIGER

@<TRIPOS>ATOM
      1  C          5.4730    2.8440    0.1210 C.3     1  UNL1        0.1270
      2  C          6.2910    3.8150    0.8310 C.2     1  UNL1        0.3030
      3  O          6.8710    4.7750    0.3190 O.2     1  UNL1       -0.2520
      4  O          6.4330    3.6480    2.2170 O.3     1  UNL1       -0.4810
      5  H          6.0240    2.8140    2.6090 H       1  UNL1        0.2960
      6  C          5.3840    1.5300    0.7930 C.3     1  UNL1        0.0470
      7  C          6.1530    0.4230    0.2210 C.2     1  UNL1       -0.0430
      8  C          6.6000   -0.6300    1.0040 C.2     1  UNL1        0.0080
      9  C          6.4880    0.4160   -1.1070 C.2     1  UNL1        0.0540
     10  C          7.3550   -1.6530    0.4740 C.2     1  UNL1        0.0510
     11  C          7.2430   -0.6000   -1.6610 C.2     1  UNL1        0.1660
     12  C          7.6790   -1.6380   -0.8730 C.2     1  UNL1        0.1650
     13  O          7.6920   -0.8120   -2.9530 O.2     1  UNL1       -0.4540
     14  O          8.4060   -2.4950   -1.7010 O.2     1  UNL1       -0.4540
     15  C          8.6890   -1.8450   -2.9180 C.3     1  UNL1        0.4680
@<TRIPOS>BOND
     1    13    15    1
     2    13    11    1
     3    15    14    1
     4    14    12    1
     5    11     9    1
     6    11    12    2
     7     9     7    2
     8    12    10    1
     9     1     6    1
    10     1     2    1
    11     7     6    1
    12     7     8    1
    13     3     2    2
    14    10     8    2
    15     2     4    1
    16     4     5    1
