@<TRIPOS>MOLECULE
/home/cewinharhar/GITHUB/reincatalyze/data/processed/docking_pred/2023-May-17-1006_maxeplen10_maxtrainstep1000_seadep16_gamma099_lrac9e-4_lrcr1e-3_sub6/a450f47ca4f24610d4ad642e19216dd37a68a7e2_ligand_6.pdbqt
 15 16 0 0 0
SMALL
GASTEIGER

@<TRIPOS>ATOM
      1  C          5.3400    2.8740    0.1840 C.3     1  UNL1        0.1270
      2  C          6.1170    3.8850    0.8840 C.2     1  UNL1        0.3030
      3  O          6.1710    4.0280    2.1060 O.2     1  UNL1       -0.2520
      4  O          6.8690    4.7750    0.1020 O.3     1  UNL1       -0.4810
      5  H          7.0820    4.4730   -0.8370 H       1  UNL1        0.2960
      6  C          5.3750    1.5410    0.8230 C.3     1  UNL1        0.0470
      7  C          6.2030    0.5090    0.1940 C.2     1  UNL1       -0.0430
      8  C          6.4840    0.5340   -1.1630 C.2     1  UNL1        0.0080
      9  C          6.6940   -0.5380    0.9270 C.2     1  UNL1        0.0540
     10  C          7.2320   -0.4550   -1.7630 C.2     1  UNL1        0.0510
     11  C          7.4480   -1.5410    0.3480 C.2     1  UNL1        0.1660
     12  C          7.7190   -1.5030   -0.9990 C.2     1  UNL1        0.1650
     13  O          8.0370   -2.6730    0.8820 O.2     1  UNL1       -0.4540
     14  O          8.4870   -2.6320   -1.2870 O.2     1  UNL1       -0.4540
     15  C          8.4310   -3.5290   -0.2010 C.3     1  UNL1        0.4680
@<TRIPOS>BOND
     1    10     8    1
     2    10    12    2
     3    14    12    1
     4    14    15    1
     5     8     7    2
     6    12    11    1
     7     5     4    1
     8    15    13    1
     9     4     2    1
    10     1     6    1
    11     1     2    1
    12     7     6    1
    13     7     9    1
    14    11    13    1
    15    11     9    2
    16     2     3    2
