@<TRIPOS>MOLECULE
/home/cewinharhar/GITHUB/reincatalyze/data/processed/docking_pred/2023-May-17-1006_maxeplen10_maxtrainstep1000_seadep16_gamma099_lrac9e-4_lrcr1e-3_sub6/a5b16c92fd7591d551db5a31bdb9c28d24e6a5b8_ligand_6.pdbqt
 15 16 0 0 0
SMALL
GASTEIGER

@<TRIPOS>ATOM
      1  C          5.4200    2.8710    0.1400 C.3     1  UNL1        0.1270
      2  C          6.2680    3.8260    0.8360 C.2     1  UNL1        0.3030
      3  O          6.8570    4.7750    0.3150 O.2     1  UNL1       -0.2520
      4  O          6.4320    3.6540    2.2190 O.3     1  UNL1       -0.4810
      5  H          7.0940    4.2680    2.6690 H       1  UNL1        0.2960
      6  C          5.3230    1.5560    0.8090 C.3     1  UNL1        0.0470
      7  C          6.0990    0.4500    0.2450 C.2     1  UNL1       -0.0430
      8  C          6.5270   -0.6100    1.0300 C.2     1  UNL1        0.0080
      9  C          6.4610    0.4510   -1.0760 C.2     1  UNL1        0.0540
     10  C          7.2880   -1.6330    0.5080 C.2     1  UNL1        0.0510
     11  C          7.2240   -0.5650   -1.6210 C.2     1  UNL1        0.1660
     12  C          7.6390   -1.6100   -0.8320 C.2     1  UNL1        0.1650
     13  O          7.6990   -0.7700   -2.9050 O.2     1  UNL1       -0.4540
     14  O          8.3800   -2.4640   -1.6500 O.2     1  UNL1       -0.4540
     15  C          8.6910   -1.8060   -2.8570 C.3     1  UNL1        0.4680
@<TRIPOS>BOND
     1    13    15    1
     2    13    11    1
     3    15    14    1
     4    14    12    1
     5    11     9    1
     6    11    12    2
     7     9     7    2
     8    12    10    1
     9     1     6    1
    10     1     2    1
    11     7     6    1
    12     7     8    1
    13     3     2    2
    14    10     8    2
    15     2     4    1
    16     4     5    1
