@<TRIPOS>MOLECULE
/home/cewinharhar/GITHUB/reincatalyze/data/processed/docking_pred/2023-May-17-1006_maxeplen10_maxtrainstep1000_seadep16_gamma099_lrac9e-4_lrcr1e-3_sub6/a5b16c92fd7591d551db5a31bdb9c28d24e6a5b8_ligand_6.pdbqt
 15 16 0 0 0
SMALL
GASTEIGER

@<TRIPOS>ATOM
      1  C          4.7100    1.8800    0.6920 C.3     1  UNL1        0.1270
      2  C          4.4010    1.1640    1.9200 C.2     1  UNL1        0.3030
      3  O          5.1260    0.3310    2.4660 O.2     1  UNL1       -0.2520
      4  O          3.1730    1.4470    2.5390 O.3     1  UNL1       -0.4810
      5  H          3.2080    2.0580    3.3400 H       1  UNL1        0.2960
      6  C          6.1370    2.2370    0.5480 C.3     1  UNL1        0.0470
      7  C          6.9880    1.3310   -0.2270 C.2     1  UNL1       -0.0430
      8  C          8.3480    1.5600   -0.3710 C.2     1  UNL1        0.0080
      9  C          6.4530    0.2450   -0.8680 C.2     1  UNL1        0.0540
     10  C          9.1420    0.7290   -1.1290 C.2     1  UNL1        0.0510
     11  C          7.2310   -0.6020   -1.6330 C.2     1  UNL1        0.1660
     12  C          8.5780   -0.3640   -1.7660 C.2     1  UNL1        0.1650
     13  O          6.9130   -1.7390   -2.3560 O.2     1  UNL1       -0.4540
     14  O          9.0860   -1.3730   -2.5860 O.2     1  UNL1       -0.4540
     15  C          8.0220   -2.0510   -3.2130 C.3     1  UNL1        0.4680
@<TRIPOS>BOND
     1    15    14    1
     2    15    13    1
     3    14    12    1
     4    13    11    1
     5    12    11    2
     6    12    10    1
     7    11     9    1
     8    10     8    2
     9     9     7    2
    10     8     7    1
    11     7     6    1
    12     6     1    1
    13     1     2    1
    14     2     3    2
    15     2     4    1
    16     4     5    1
