@<TRIPOS>MOLECULE
/home/cewinharhar/GITHUB/reincatalyze/data/processed/docking_pred/2023-May-17-1006_maxeplen10_maxtrainstep1000_seadep16_gamma099_lrac9e-4_lrcr1e-3_sub6/a5b16c92fd7591d551db5a31bdb9c28d24e6a5b8_ligand_6.pdbqt
 15 16 0 0 0
SMALL
GASTEIGER

@<TRIPOS>ATOM
      1  C          5.4080    2.6900    0.1170 C.3     1  UNL1        0.1270
      2  C          6.1040    3.7170    0.8760 C.2     1  UNL1        0.3030
      3  O          6.1490    3.7940    2.1050 O.2     1  UNL1       -0.2520
      4  O          6.7840    4.7060    0.1490 O.3     1  UNL1       -0.4810
      5  H          7.7340    4.8920    0.4300 H       1  UNL1        0.2960
      6  C          5.4280    1.3560    0.7540 C.3     1  UNL1        0.0470
      7  C          6.2610    0.3220    0.1360 C.2     1  UNL1       -0.0430
      8  C          6.5200    0.3180   -1.2260 C.2     1  UNL1        0.0080
      9  C          6.7810   -0.6990    0.8870 C.2     1  UNL1        0.0540
     10  C          7.2730   -0.6740   -1.8130 C.2     1  UNL1        0.0510
     11  C          7.5400   -1.7050    0.3190 C.2     1  UNL1        0.1660
     12  C          7.7890   -1.6960   -1.0330 C.2     1  UNL1        0.1650
     13  O          8.1560   -2.8140    0.8700 O.2     1  UNL1       -0.4540
     14  O          8.5700   -2.8200   -1.3060 O.2     1  UNL1       -0.4540
     15  C          8.5450   -3.6900   -0.1980 C.3     1  UNL1        0.4680
@<TRIPOS>BOND
     1    10     8    1
     2    10    12    2
     3    14    12    1
     4    14    15    1
     5     8     7    2
     6    12    11    1
     7    15    13    1
     8     1     6    1
     9     1     2    1
    10     7     6    1
    11     7     9    1
    12     4     5    1
    13     4     2    1
    14    11    13    1
    15    11     9    2
    16     2     3    2
