@<TRIPOS>MOLECULE
/home/cewinharhar/GITHUB/reincatalyze/data/processed/docking_pred/2023-May-17-1006_maxeplen10_maxtrainstep1000_seadep16_gamma099_lrac9e-4_lrcr1e-3_sub6/a5b16c92fd7591d551db5a31bdb9c28d24e6a5b8_ligand_6.pdbqt
 15 16 0 0 0
SMALL
GASTEIGER

@<TRIPOS>ATOM
      1  C          6.4300    1.2820    0.7470 C.3     1  UNL1        0.1270
      2  C          5.2480    1.1500    1.5840 C.2     1  UNL1        0.3030
      3  O          5.0740    0.2910    2.4500 O.2     1  UNL1       -0.2520
      4  O          4.2130    2.0790    1.3890 O.3     1  UNL1       -0.4810
      5  H          4.1140    2.7890    2.0970 H       1  UNL1        0.2960
      6  C          6.2340    0.8270   -0.6460 C.3     1  UNL1        0.0470
      7  C          6.9830   -0.3520   -1.0850 C.2     1  UNL1       -0.0430
      8  C          7.2710   -0.5710   -2.4230 C.2     1  UNL1        0.0080
      9  C          7.3900   -1.2990   -0.1820 C.2     1  UNL1        0.0540
     10  C          7.9440   -1.6980   -2.8410 C.2     1  UNL1        0.0510
     11  C          8.0670   -2.4370   -0.5790 C.2     1  UNL1        0.1660
     12  C          8.3460   -2.6400   -1.9090 C.2     1  UNL1        0.1650
     13  O          8.5650   -3.5080    0.1430 O.2     1  UNL1       -0.4540
     14  O          9.0260   -3.8560   -1.9960 O.2     1  UNL1       -0.4540
     15  C          8.8970   -4.5560   -0.7800 C.3     1  UNL1        0.4680
@<TRIPOS>BOND
     1    10     8    1
     2    10    12    2
     3     8     7    2
     4    14    12    1
     5    14    15    1
     6    12    11    1
     7     7     6    1
     8     7     9    1
     9    15    13    1
    10     6     1    1
    11    11     9    2
    12    11    13    1
    13     1     2    1
    14     4     2    1
    15     4     5    1
    16     2     3    2
