@<TRIPOS>MOLECULE
/home/cewinharhar/GITHUB/reincatalyze/data/processed/docking_pred/2023-May-17-1006_maxeplen10_maxtrainstep1000_seadep16_gamma099_lrac9e-4_lrcr1e-3_sub6/a5b16c92fd7591d551db5a31bdb9c28d24e6a5b8_ligand_6.pdbqt
 15 16 0 0 0
SMALL
GASTEIGER

@<TRIPOS>ATOM
      1  C          8.3160   -0.3210   -2.8400 C.3     1  UNL1        0.1270
      2  C          8.4730   -1.7500   -3.0660 C.2     1  UNL1        0.3030
      3  O          9.5380   -2.3680   -3.0340 O.2     1  UNL1       -0.2520
      4  O          7.3130   -2.4890   -3.3440 O.3     1  UNL1       -0.4810
      5  H          7.2630   -3.4100   -2.9360 H       1  UNL1        0.2960
      6  C          8.7670    0.1280   -1.5060 C.3     1  UNL1        0.0470
      7  C          7.7920    0.0920   -0.4130 C.2     1  UNL1       -0.0430
      8  C          7.7330   -0.9740    0.4710 C.2     1  UNL1        0.0080
      9  C          6.8790    1.1010   -0.2570 C.2     1  UNL1        0.0540
     10  C          6.7940   -1.0260    1.4760 C.2     1  UNL1        0.0510
     11  C          5.9270    1.0700    0.7450 C.2     1  UNL1        0.1660
     12  C          5.8810    0.0070    1.6150 C.2     1  UNL1        0.1650
     13  O          4.9240    1.9600    1.0870 O.2     1  UNL1       -0.4540
     14  O          4.8310    0.2560    2.5000 O.2     1  UNL1       -0.4540
     15  C          4.0310    1.3020    2.0000 C.3     1  UNL1        0.4680
@<TRIPOS>BOND
     1     4     2    1
     2     4     5    1
     3     2     3    2
     4     2     1    1
     5     1     6    1
     6     6     7    1
     7     7     9    2
     8     7     8    1
     9     9    11    1
    10     8    10    2
    11    11    13    1
    12    11    12    2
    13    13    15    1
    14    10    12    1
    15    12    14    1
    16    15    14    1
