@<TRIPOS>MOLECULE
/home/cewinharhar/GITHUB/reincatalyze/data/processed/docking_pred/2023-May-17-1006_maxeplen10_maxtrainstep1000_seadep16_gamma099_lrac9e-4_lrcr1e-3_sub6/a614218f6e6a1b7d791f470f20b1a009abdeaae3_ligand_6.pdbqt
 15 16 0 0 0
SMALL
GASTEIGER

@<TRIPOS>ATOM
      1  C          5.5790    2.5600   -0.0310 C.3     1  UNL1        0.1270
      2  C          6.1530    3.6020    0.8060 C.2     1  UNL1        0.3030
      3  O          6.1580    3.6100    2.0390 O.2     1  UNL1       -0.2520
      4  O          6.7530    4.6920    0.1580 O.3     1  UNL1       -0.4810
      5  H          6.3100    5.5880    0.2900 H       1  UNL1        0.2960
      6  C          5.5680    1.2220    0.5980 C.3     1  UNL1        0.0470
      7  C          6.3690    0.1710   -0.0330 C.2     1  UNL1       -0.0430
      8  C          6.5250    0.1060   -1.4090 C.2     1  UNL1        0.0080
      9  C          6.9600   -0.8080    0.7210 C.2     1  UNL1        0.0540
     10  C          7.2470   -0.9030   -2.0070 C.2     1  UNL1        0.0510
     11  C          7.6900   -1.8290    0.1440 C.2     1  UNL1        0.1660
     12  C          7.8370   -1.8800   -1.2210 C.2     1  UNL1        0.1650
     13  O          8.3630   -2.9040    0.6980 O.2     1  UNL1       -0.4540
     14  O          8.6120   -3.0070   -1.5010 O.2     1  UNL1       -0.4540
     15  C          8.6840   -3.8240   -0.3570 C.3     1  UNL1        0.4680
@<TRIPOS>BOND
     1    10     8    1
     2    10    12    2
     3    14    12    1
     4    14    15    1
     5     8     7    2
     6    12    11    1
     7    15    13    1
     8     7     6    1
     9     7     9    1
    10     1     6    1
    11     1     2    1
    12    11    13    1
    13    11     9    2
    14     4     5    1
    15     4     2    1
    16     2     3    2
