@<TRIPOS>MOLECULE
/home/cewinharhar/GITHUB/reincatalyze/data/processed/docking_pred/2023-May-17-1006_maxeplen10_maxtrainstep1000_seadep16_gamma099_lrac9e-4_lrcr1e-3_sub6/a614218f6e6a1b7d791f470f20b1a009abdeaae3_ligand_6.pdbqt
 15 16 0 0 0
SMALL
GASTEIGER

@<TRIPOS>ATOM
      1  C          5.4140    2.8720    0.1210 C.3     1  UNL1        0.1270
      2  C          6.2400    3.8550    0.8050 C.2     1  UNL1        0.3030
      3  O          6.8640    4.7690    0.2630 O.2     1  UNL1       -0.2520
      4  O          6.3350    3.7570    2.2020 O.3     1  UNL1       -0.4810
      5  H          5.4650    3.7850    2.7110 H       1  UNL1        0.2960
      6  C          5.3490    1.5630    0.8050 C.3     1  UNL1        0.0470
      7  C          6.1340    0.4630    0.2390 C.2     1  UNL1       -0.0430
      8  C          6.6050   -0.5740    1.0300 C.2     1  UNL1        0.0080
      9  C          6.4610    0.4490   -1.0910 C.2     1  UNL1        0.0540
     10  C          7.3730   -1.5890    0.5060 C.2     1  UNL1        0.0510
     11  C          7.2310   -0.5600   -1.6390 C.2     1  UNL1        0.1660
     12  C          7.6890   -1.5820   -0.8430 C.2     1  UNL1        0.1650
     13  O          7.6760   -0.7770   -2.9310 O.2     1  UNL1       -0.4540
     14  O          8.4260   -2.4350   -1.6670 O.2     1  UNL1       -0.4540
     15  C          8.6910   -1.7920   -2.8920 C.3     1  UNL1        0.4680
@<TRIPOS>BOND
     1    13    15    1
     2    13    11    1
     3    15    14    1
     4    14    12    1
     5    11     9    1
     6    11    12    2
     7     9     7    2
     8    12    10    1
     9     1     2    1
    10     1     6    1
    11     7     6    1
    12     7     8    1
    13     3     2    2
    14    10     8    2
    15     2     4    1
    16     4     5    1
