@<TRIPOS>MOLECULE
/home/cewinharhar/GITHUB/reincatalyze/data/processed/docking_pred/2023-May-17-1006_maxeplen10_maxtrainstep1000_seadep16_gamma099_lrac9e-4_lrcr1e-3_sub6/a614218f6e6a1b7d791f470f20b1a009abdeaae3_ligand_6.pdbqt
 15 16 0 0 0
SMALL
GASTEIGER

@<TRIPOS>ATOM
      1  C          8.3100   -0.3210   -2.8660 C.3     1  UNL1        0.1270
      2  C          8.4740   -1.7510   -3.0750 C.2     1  UNL1        0.3030
      3  O          9.5420   -2.3640   -3.0340 O.2     1  UNL1       -0.2520
      4  O          7.3180   -2.4990   -3.3470 O.3     1  UNL1       -0.4810
      5  H          6.6440   -2.5640   -2.6000 H       1  UNL1        0.2960
      6  C          8.7590    0.1470   -1.5370 C.3     1  UNL1        0.0470
      7  C          7.7900    0.1040   -0.4410 C.2     1  UNL1       -0.0430
      8  C          7.7360   -0.9680    0.4370 C.2     1  UNL1        0.0080
      9  C          6.8770    1.1110   -0.2730 C.2     1  UNL1        0.0540
     10  C          6.8010   -1.0280    1.4460 C.2     1  UNL1        0.0510
     11  C          5.9300    1.0730    0.7330 C.2     1  UNL1        0.1660
     12  C          5.8890    0.0040    1.5960 C.2     1  UNL1        0.1650
     13  O          4.9280    1.9600    1.0860 O.2     1  UNL1       -0.4540
     14  O          4.8430    0.2470    2.4890 O.2     1  UNL1       -0.4540
     15  C          4.0400    1.2960    1.9980 C.3     1  UNL1        0.4680
@<TRIPOS>BOND
     1     4     2    1
     2     4     5    1
     3     2     3    2
     4     2     1    1
     5     1     6    1
     6     6     7    1
     7     7     9    2
     8     7     8    1
     9     9    11    1
    10     8    10    2
    11    11    13    1
    12    11    12    2
    13    13    15    1
    14    10    12    1
    15    12    14    1
    16    15    14    1
