@<TRIPOS>MOLECULE
/home/cewinharhar/GITHUB/reincatalyze/data/processed/docking_pred/2023-May-17-1006_maxeplen10_maxtrainstep1000_seadep16_gamma099_lrac9e-4_lrcr1e-3_sub6/a614218f6e6a1b7d791f470f20b1a009abdeaae3_ligand_6.pdbqt
 15 16 0 0 0
SMALL
GASTEIGER

@<TRIPOS>ATOM
      1  C          6.4170    1.3500    0.6310 C.3     1  UNL1        0.1270
      2  C          5.2040    1.3600    1.4330 C.2     1  UNL1        0.3030
      3  O          4.2720    2.1570    1.3130 O.2     1  UNL1       -0.2520
      4  O          5.0820    0.3790    2.4300 O.3     1  UNL1       -0.4810
      5  H          5.9430    0.0560    2.8440 H       1  UNL1        0.2960
      6  C          6.2140    0.8840   -0.7580 C.3     1  UNL1        0.0470
      7  C          6.9750   -0.2880   -1.1960 C.2     1  UNL1       -0.0430
      8  C          7.2700   -0.5020   -2.5340 C.2     1  UNL1        0.0080
      9  C          7.3860   -1.2340   -0.2940 C.2     1  UNL1        0.0540
     10  C          7.9540   -1.6220   -2.9510 C.2     1  UNL1        0.0510
     11  C          8.0740   -2.3650   -0.6900 C.2     1  UNL1        0.1660
     12  C          8.3600   -2.5630   -2.0190 C.2     1  UNL1        0.1650
     13  O          8.5780   -3.4330    0.0310 O.2     1  UNL1       -0.4540
     14  O          9.0510   -3.7730   -2.1070 O.2     1  UNL1       -0.4540
     15  C          8.9220   -4.4770   -0.8930 C.3     1  UNL1        0.4680
@<TRIPOS>BOND
     1    10     8    1
     2    10    12    2
     3     8     7    2
     4    14    12    1
     5    14    15    1
     6    12    11    1
     7     7     6    1
     8     7     9    1
     9    15    13    1
    10     6     1    1
    11    11     9    2
    12    11    13    1
    13     1     2    1
    14     3     2    2
    15     2     4    1
    16     4     5    1
