@<TRIPOS>MOLECULE
/home/cewinharhar/GITHUB/reincatalyze/data/processed/docking_pred/2023-May-17-1006_maxeplen10_maxtrainstep1000_seadep16_gamma099_lrac9e-4_lrcr1e-3_sub6/a614218f6e6a1b7d791f470f20b1a009abdeaae3_ligand_6.pdbqt
 15 16 0 0 0
SMALL
GASTEIGER

@<TRIPOS>ATOM
      1  C          4.6990    1.8710    0.6780 C.3     1  UNL1        0.1270
      2  C          4.4100    1.1600    1.9130 C.2     1  UNL1        0.3030
      3  O          5.1500    0.3400    2.4590 O.2     1  UNL1       -0.2520
      4  O          3.1830    1.4300    2.5400 O.3     1  UNL1       -0.4810
      5  H          2.5090    0.6800    2.5420 H       1  UNL1        0.2960
      6  C          6.1210    2.2420    0.5170 C.3     1  UNL1        0.0470
      7  C          6.9760    1.3330   -0.2490 C.2     1  UNL1       -0.0430
      8  C          8.3390    1.5540   -0.3750 C.2     1  UNL1        0.0080
      9  C          6.4430    0.2520   -0.8990 C.2     1  UNL1        0.0540
     10  C          9.1380    0.7200   -1.1250 C.2     1  UNL1        0.0510
     11  C          7.2260   -0.5990   -1.6570 C.2     1  UNL1        0.1660
     12  C          8.5750   -0.3680   -1.7720 C.2     1  UNL1        0.1650
     13  O          6.9100   -1.7310   -2.3870 O.2     1  UNL1       -0.4540
     14  O          9.0880   -1.3790   -2.5870 O.2     1  UNL1       -0.4540
     15  C          8.0280   -2.0480   -3.2300 C.3     1  UNL1        0.4680
@<TRIPOS>BOND
     1    15    14    1
     2    15    13    1
     3    14    12    1
     4    13    11    1
     5    12    11    2
     6    12    10    1
     7    11     9    1
     8    10     8    2
     9     9     7    2
    10     8     7    1
    11     7     6    1
    12     6     1    1
    13     1     2    1
    14     2     3    2
    15     2     4    1
    16     4     5    1
