MODEL 1
REMARK VINA RESULT:      -7.7      0.000      0.000
REMARK SMILES O=C(O)CCc1ccc2c(c1)OCO2
REMARK SMILES IDX 4 1 2 2 1 3 3 4 5 6 6 7 7 8 11 9 8 10 10 11 9 12 12 13 14 14
REMARK SMILES IDX 13 15
REMARK H PARENT 3 5
REMARK Flexibility Score: inf
ROOT
ATOM      1  C   UNL     1       5.414   2.872   0.121  1.00  0.00     0.127 C 
ENDROOT
BRANCH   1   2
ATOM      2  C   UNL     1       6.240   3.855   0.805  1.00  0.00     0.303 C 
ATOM      3  O   UNL     1       6.864   4.769   0.263  1.00  0.00    -0.252 OA
BRANCH   2   4
ATOM      4  O   UNL     1       6.335   3.757   2.202  1.00  0.00    -0.481 OA
ATOM      5  H   UNL     1       5.465   3.785   2.711  1.00  0.00     0.296 HD
ENDBRANCH   2   4
ENDBRANCH   1   2
BRANCH   1   6
ATOM      6  C   UNL     1       5.349   1.563   0.805  1.00  0.00     0.047 C 
BRANCH   6   7
ATOM      7  C   UNL     1       6.134   0.463   0.239  1.00  0.00    -0.043 A 
ATOM      8  C   UNL     1       6.605  -0.574   1.030  1.00  0.00     0.008 A 
ATOM      9  C   UNL     1       6.461   0.449  -1.091  1.00  0.00     0.054 A 
ATOM     10  C   UNL     1       7.373  -1.589   0.506  1.00  0.00     0.051 A 
ATOM     11  C   UNL     1       7.231  -0.560  -1.639  1.00  0.00     0.166 A 
ATOM     12  C   UNL     1       7.689  -1.582  -0.843  1.00  0.00     0.165 A 
ATOM     13  O   UNL     1       7.676  -0.777  -2.931  1.00  0.00    -0.454 OA
ATOM     14  O   UNL     1       8.426  -2.435  -1.667  1.00  0.00    -0.454 OA
ATOM     15  C   UNL     1       8.691  -1.792  -2.892  1.00  0.00     0.468 C 
ENDBRANCH   6   7
ENDBRANCH   1   6
TORSDOF 4
ENDMDL
MODEL 2
REMARK VINA RESULT:      -7.6      2.123      2.507
REMARK SMILES O=C(O)CCc1ccc2c(c1)OCO2
REMARK SMILES IDX 4 1 2 2 1 3 3 4 5 6 6 7 7 8 11 9 8 10 10 11 9 12 12 13 14 14
REMARK SMILES IDX 13 15
REMARK H PARENT 3 5
REMARK Flexibility Score: inf
ROOT
ATOM      1  C   UNL     1       4.699   1.871   0.678  1.00  0.00     0.127 C 
ENDROOT
BRANCH   1   2
ATOM      2  C   UNL     1       4.410   1.160   1.913  1.00  0.00     0.303 C 
ATOM      3  O   UNL     1       5.150   0.340   2.459  1.00  0.00    -0.252 OA
BRANCH   2   4
ATOM      4  O   UNL     1       3.183   1.430   2.540  1.00  0.00    -0.481 OA
ATOM      5  H   UNL     1       2.509   0.680   2.542  1.00  0.00     0.296 HD
ENDBRANCH   2   4
ENDBRANCH   1   2
BRANCH   1   6
ATOM      6  C   UNL     1       6.121   2.242   0.517  1.00  0.00     0.047 C 
BRANCH   6   7
ATOM      7  C   UNL     1       6.976   1.333  -0.249  1.00  0.00    -0.043 A 
ATOM      8  C   UNL     1       8.339   1.554  -0.375  1.00  0.00     0.008 A 
ATOM      9  C   UNL     1       6.443   0.252  -0.899  1.00  0.00     0.054 A 
ATOM     10  C   UNL     1       9.138   0.720  -1.125  1.00  0.00     0.051 A 
ATOM     11  C   UNL     1       7.226  -0.599  -1.657  1.00  0.00     0.166 A 
ATOM     12  C   UNL     1       8.575  -0.368  -1.772  1.00  0.00     0.165 A 
ATOM     13  O   UNL     1       6.910  -1.731  -2.387  1.00  0.00    -0.454 OA
ATOM     14  O   UNL     1       9.088  -1.379  -2.587  1.00  0.00    -0.454 OA
ATOM     15  C   UNL     1       8.028  -2.048  -3.230  1.00  0.00     0.468 C 
ENDBRANCH   6   7
ENDBRANCH   1   6
TORSDOF 4
ENDMDL
MODEL 3
REMARK VINA RESULT:      -7.4      1.785      5.285
REMARK SMILES O=C(O)CCc1ccc2c(c1)OCO2
REMARK SMILES IDX 4 1 2 2 1 3 3 4 5 6 6 7 7 8 11 9 8 10 10 11 9 12 12 13 14 14
REMARK SMILES IDX 13 15
REMARK H PARENT 3 5
REMARK Flexibility Score: inf
ROOT
ATOM      1  C   UNL     1       8.310  -0.321  -2.866  1.00  0.00     0.127 C 
ENDROOT
BRANCH   1   2
ATOM      2  C   UNL     1       8.474  -1.751  -3.075  1.00  0.00     0.303 C 
ATOM      3  O   UNL     1       9.542  -2.364  -3.034  1.00  0.00    -0.252 OA
BRANCH   2   4
ATOM      4  O   UNL     1       7.318  -2.499  -3.347  1.00  0.00    -0.481 OA
ATOM      5  H   UNL     1       6.644  -2.564  -2.600  1.00  0.00     0.296 HD
ENDBRANCH   2   4
ENDBRANCH   1   2
BRANCH   1   6
ATOM      6  C   UNL     1       8.759   0.147  -1.537  1.00  0.00     0.047 C 
BRANCH   6   7
ATOM      7  C   UNL     1       7.790   0.104  -0.441  1.00  0.00    -0.043 A 
ATOM      8  C   UNL     1       7.736  -0.968   0.437  1.00  0.00     0.008 A 
ATOM      9  C   UNL     1       6.877   1.111  -0.273  1.00  0.00     0.054 A 
ATOM     10  C   UNL     1       6.801  -1.028   1.446  1.00  0.00     0.051 A 
ATOM     11  C   UNL     1       5.930   1.073   0.733  1.00  0.00     0.166 A 
ATOM     12  C   UNL     1       5.889   0.004   1.596  1.00  0.00     0.165 A 
ATOM     13  O   UNL     1       4.928   1.960   1.086  1.00  0.00    -0.454 OA
ATOM     14  O   UNL     1       4.843   0.247   2.489  1.00  0.00    -0.454 OA
ATOM     15  C   UNL     1       4.040   1.296   1.998  1.00  0.00     0.468 C 
ENDBRANCH   6   7
ENDBRANCH   1   6
TORSDOF 4
ENDMDL
MODEL 4
REMARK VINA RESULT:      -7.4      1.944      2.849
REMARK SMILES O=C(O)CCc1ccc2c(c1)OCO2
REMARK SMILES IDX 4 1 2 2 1 3 3 4 5 6 6 7 7 8 11 9 8 10 10 11 9 12 12 13 14 14
REMARK SMILES IDX 13 15
REMARK H PARENT 3 5
REMARK Flexibility Score: inf
ROOT
ATOM      1  C   UNL     1       6.417   1.350   0.631  1.00  0.00     0.127 C 
ENDROOT
BRANCH   1   2
ATOM      2  C   UNL     1       5.204   1.360   1.433  1.00  0.00     0.303 C 
ATOM      3  O   UNL     1       4.272   2.157   1.313  1.00  0.00    -0.252 OA
BRANCH   2   4
ATOM      4  O   UNL     1       5.082   0.379   2.430  1.00  0.00    -0.481 OA
ATOM      5  H   UNL     1       5.943   0.056   2.844  1.00  0.00     0.296 HD
ENDBRANCH   2   4
ENDBRANCH   1   2
BRANCH   1   6
ATOM      6  C   UNL     1       6.214   0.884  -0.758  1.00  0.00     0.047 C 
BRANCH   6   7
ATOM      7  C   UNL     1       6.975  -0.288  -1.196  1.00  0.00    -0.043 A 
ATOM      8  C   UNL     1       7.270  -0.502  -2.534  1.00  0.00     0.008 A 
ATOM      9  C   UNL     1       7.386  -1.234  -0.294  1.00  0.00     0.054 A 
ATOM     10  C   UNL     1       7.954  -1.622  -2.951  1.00  0.00     0.051 A 
ATOM     11  C   UNL     1       8.074  -2.365  -0.690  1.00  0.00     0.166 A 
ATOM     12  C   UNL     1       8.360  -2.563  -2.019  1.00  0.00     0.165 A 
ATOM     13  O   UNL     1       8.578  -3.433   0.031  1.00  0.00    -0.454 OA
ATOM     14  O   UNL     1       9.051  -3.773  -2.107  1.00  0.00    -0.454 OA
ATOM     15  C   UNL     1       8.922  -4.477  -0.893  1.00  0.00     0.468 C 
ENDBRANCH   6   7
ENDBRANCH   1   6
TORSDOF 4
ENDMDL
MODEL 5
REMARK VINA RESULT:      -7.4      1.018      2.131
REMARK SMILES O=C(O)CCc1ccc2c(c1)OCO2
REMARK SMILES IDX 4 1 2 2 1 3 3 4 5 6 6 7 7 8 11 9 8 10 10 11 9 12 12 13 14 14
REMARK SMILES IDX 13 15
REMARK H PARENT 3 5
REMARK Flexibility Score: inf
ROOT
ATOM      1  C   UNL     1       5.579   2.560  -0.031  1.00  0.00     0.127 C 
ENDROOT
BRANCH   1   2
ATOM      2  C   UNL     1       6.153   3.602   0.806  1.00  0.00     0.303 C 
ATOM      3  O   UNL     1       6.158   3.610   2.039  1.00  0.00    -0.252 OA
BRANCH   2   4
ATOM      4  O   UNL     1       6.753   4.692   0.158  1.00  0.00    -0.481 OA
ATOM      5  H   UNL     1       6.310   5.588   0.290  1.00  0.00     0.296 HD
ENDBRANCH   2   4
ENDBRANCH   1   2
BRANCH   1   6
ATOM      6  C   UNL     1       5.568   1.222   0.598  1.00  0.00     0.047 C 
BRANCH   6   7
ATOM      7  C   UNL     1       6.369   0.171  -0.033  1.00  0.00    -0.043 A 
ATOM      8  C   UNL     1       6.525   0.106  -1.409  1.00  0.00     0.008 A 
ATOM      9  C   UNL     1       6.960  -0.808   0.721  1.00  0.00     0.054 A 
ATOM     10  C   UNL     1       7.247  -0.903  -2.007  1.00  0.00     0.051 A 
ATOM     11  C   UNL     1       7.690  -1.829   0.144  1.00  0.00     0.166 A 
ATOM     12  C   UNL     1       7.837  -1.880  -1.221  1.00  0.00     0.165 A 
ATOM     13  O   UNL     1       8.363  -2.904   0.698  1.00  0.00    -0.454 OA
ATOM     14  O   UNL     1       8.612  -3.007  -1.501  1.00  0.00    -0.454 OA
ATOM     15  C   UNL     1       8.684  -3.824  -0.357  1.00  0.00     0.468 C 
ENDBRANCH   6   7
ENDBRANCH   1   6
TORSDOF 4
ENDMDL
