@<TRIPOS>MOLECULE
/home/cewinharhar/GITHUB/reincatalyze/data/processed/docking_pred/2023-May-17-1006_maxeplen10_maxtrainstep1000_seadep16_gamma099_lrac9e-4_lrcr1e-3_sub6/a6201df4fd59712db5137144eee8a96fed35f0a9_ligand_6.pdbqt
 15 16 0 0 0
SMALL
GASTEIGER

@<TRIPOS>ATOM
      1  C          8.3090   -0.3220   -2.8470 C.3     1  UNL1        0.1270
      2  C          8.4740   -1.7500   -3.0700 C.2     1  UNL1        0.3030
      3  O          9.5440   -2.3620   -3.0360 O.2     1  UNL1       -0.2520
      4  O          7.3190   -2.4970   -3.3480 O.3     1  UNL1       -0.4810
      5  H          6.4970   -1.9690   -3.5970 H       1  UNL1        0.2960
      6  C          8.7630    0.1330   -1.5150 C.3     1  UNL1        0.0470
      7  C          7.7920    0.0960   -0.4190 C.2     1  UNL1       -0.0430
      8  C          7.7410   -0.9680    0.4680 C.2     1  UNL1        0.0080
      9  C          6.8740    1.1010   -0.2620 C.2     1  UNL1        0.0540
     10  C          6.8060   -1.0220    1.4770 C.2     1  UNL1        0.0510
     11  C          5.9270    1.0680    0.7430 C.2     1  UNL1        0.1660
     12  C          5.8890    0.0080    1.6160 C.2     1  UNL1        0.1650
     13  O          4.9210    1.9540    1.0870 O.2     1  UNL1       -0.4540
     14  O          4.8410    0.2540    2.5050 O.2     1  UNL1       -0.4540
     15  C          4.0350    1.2950    2.0040 C.3     1  UNL1        0.4680
@<TRIPOS>BOND
     1     5     4    1
     2     4     2    1
     3     2     3    2
     4     2     1    1
     5     1     6    1
     6     6     7    1
     7     7     9    2
     8     7     8    1
     9     9    11    1
    10     8    10    2
    11    11    13    1
    12    11    12    2
    13    13    15    1
    14    10    12    1
    15    12    14    1
    16    15    14    1
