@<TRIPOS>MOLECULE
/home/cewinharhar/GITHUB/reincatalyze/data/processed/docking_pred/2023-May-17-1006_maxeplen10_maxtrainstep1000_seadep16_gamma099_lrac9e-4_lrcr1e-3_sub6/a6201df4fd59712db5137144eee8a96fed35f0a9_ligand_6.pdbqt
 15 16 0 0 0
SMALL
GASTEIGER

@<TRIPOS>ATOM
      1  C          5.3880    2.7910    0.1240 C.3     1  UNL1        0.1270
      2  C          6.1280    3.7730    0.9020 C.2     1  UNL1        0.3030
      3  O          6.1490    3.8450    2.1320 O.2     1  UNL1       -0.2520
      4  O          6.8840    4.7200    0.1930 O.3     1  UNL1       -0.4810
      5  H          7.3480    5.4240    0.7460 H       1  UNL1        0.2960
      6  C          5.3580    1.4430    0.7310 C.3     1  UNL1        0.0470
      7  C          6.2050    0.4110    0.1300 C.2     1  UNL1       -0.0430
      8  C          6.4880    0.4050   -1.2270 C.2     1  UNL1        0.0080
      9  C          6.7150   -0.6070    0.8910 C.2     1  UNL1        0.0540
     10  C          7.2540   -0.5860   -1.8000 C.2     1  UNL1        0.0510
     11  C          7.4870   -1.6110    0.3390 C.2     1  UNL1        0.1660
     12  C          7.7600   -1.6040   -1.0080 C.2     1  UNL1        0.1650
     13  O          8.0960   -2.7180    0.9030 O.2     1  UNL1       -0.4540
     14  O          8.5480   -2.7270   -1.2650 O.2     1  UNL1       -0.4540
     15  C          8.5070   -3.5950   -0.1570 C.3     1  UNL1        0.4680
@<TRIPOS>BOND
     1    10     8    1
     2    10    12    2
     3    14    12    1
     4    14    15    1
     5     8     7    2
     6    12    11    1
     7    15    13    1
     8     1     6    1
     9     1     2    1
    10     7     6    1
    11     7     9    1
    12     4     5    1
    13     4     2    1
    14    11     9    2
    15    11    13    1
    16     2     3    2
