@<TRIPOS>MOLECULE
/home/cewinharhar/GITHUB/reincatalyze/data/processed/docking_pred/2023-May-17-1006_maxeplen10_maxtrainstep1000_seadep16_gamma099_lrac9e-4_lrcr1e-3_sub6/a6201df4fd59712db5137144eee8a96fed35f0a9_ligand_6.pdbqt
 15 16 0 0 0
SMALL
GASTEIGER

@<TRIPOS>ATOM
      1  C          6.4870    1.3020    0.7760 C.3     1  UNL1        0.1270
      2  C          5.2680    1.2050    1.5640 C.2     1  UNL1        0.3030
      3  O          5.0410    0.3610    2.4330 O.2     1  UNL1       -0.2520
      4  O          4.2630    2.1520    1.3140 O.3     1  UNL1       -0.4810
      5  H          3.8000    2.0850    0.4210 H       1  UNL1        0.2960
      6  C          6.3190    0.9130   -0.6410 C.3     1  UNL1        0.0470
      7  C          7.0400   -0.2720   -1.1080 C.2     1  UNL1       -0.0430
      8  C          7.2910   -0.4830   -2.4550 C.2     1  UNL1        0.0080
      9  C          7.4560   -1.2320   -0.2240 C.2     1  UNL1        0.0540
     10  C          7.9380   -1.6150   -2.8990 C.2     1  UNL1        0.0510
     11  C          8.1070   -2.3760   -0.6470 C.2     1  UNL1        0.1660
     12  C          8.3500   -2.5710   -1.9860 C.2     1  UNL1        0.1650
     13  O          8.6090   -3.4590    0.0520 O.2     1  UNL1       -0.4540
     14  O          9.0110   -3.7950   -2.1000 O.2     1  UNL1       -0.4540
     15  C          8.9030   -4.5040   -0.8880 C.3     1  UNL1        0.4680
@<TRIPOS>BOND
     1    10     8    1
     2    10    12    2
     3     8     7    2
     4    14    12    1
     5    14    15    1
     6    12    11    1
     7     7     6    1
     8     7     9    1
     9    15    13    1
    10    11     9    2
    11    11    13    1
    12     6     1    1
    13     5     4    1
    14     1     2    1
    15     4     2    1
    16     2     3    2
