@<TRIPOS>MOLECULE
/home/cewinharhar/GITHUB/reincatalyze/data/processed/docking_pred/2023-May-17-1006_maxeplen10_maxtrainstep1000_seadep16_gamma099_lrac9e-4_lrcr1e-3_sub6/a6201df4fd59712db5137144eee8a96fed35f0a9_ligand_6.pdbqt
 15 16 0 0 0
SMALL
GASTEIGER

@<TRIPOS>ATOM
      1  C          5.4340    2.8750    0.1030 C.3     1  UNL1        0.1270
      2  C          6.2620    3.8530    0.7920 C.2     1  UNL1        0.3030
      3  O          6.8940    4.7640    0.2530 O.2     1  UNL1       -0.2520
      4  O          6.3490    3.7540    2.1890 O.3     1  UNL1       -0.4810
      5  H          5.6510    4.2570    2.7160 H       1  UNL1        0.2960
      6  C          5.3600    1.5660    0.7850 C.3     1  UNL1        0.0470
      7  C          6.1370    0.4620    0.2180 C.2     1  UNL1       -0.0430
      8  C          6.5940   -0.5830    1.0070 C.2     1  UNL1        0.0080
      9  C          6.4700    0.4500   -1.1100 C.2     1  UNL1        0.0540
     10  C          7.3550   -1.6030    0.4820 C.2     1  UNL1        0.0510
     11  C          7.2330   -0.5640   -1.6590 C.2     1  UNL1        0.1660
     12  C          7.6780   -1.5940   -0.8650 C.2     1  UNL1        0.1650
     13  O          7.6830   -0.7790   -2.9500 O.2     1  UNL1       -0.4540
     14  O          8.4110   -2.4490   -1.6890 O.2     1  UNL1       -0.4540
     15  C          8.6880   -1.8040   -2.9100 C.3     1  UNL1        0.4680
@<TRIPOS>BOND
     1    13    15    1
     2    13    11    1
     3    15    14    1
     4    14    12    1
     5    11     9    1
     6    11    12    2
     7     9     7    2
     8    12    10    1
     9     1     6    1
    10     1     2    1
    11     7     6    1
    12     7     8    1
    13     3     2    2
    14    10     8    2
    15     2     4    1
    16     4     5    1
