@<TRIPOS>MOLECULE
/home/cewinharhar/GITHUB/reincatalyze/data/processed/docking_pred/2023-May-17-1006_maxeplen10_maxtrainstep1000_seadep16_gamma099_lrac9e-4_lrcr1e-3_sub6/a6201df4fd59712db5137144eee8a96fed35f0a9_ligand_6.pdbqt
 15 16 0 0 0
SMALL
GASTEIGER

@<TRIPOS>ATOM
      1  C          4.6850    1.8760    0.6670 C.3     1  UNL1        0.1270
      2  C          4.3930    1.1800    1.9100 C.2     1  UNL1        0.3030
      3  O          5.1300    0.3610    2.4630 O.2     1  UNL1       -0.2520
      4  O          3.1690    1.4620    2.5360 O.3     1  UNL1       -0.4810
      5  H          3.2070    1.6480    3.5260 H       1  UNL1        0.2960
      6  C          6.1050    2.2550    0.5100 C.3     1  UNL1        0.0470
      7  C          6.9660    1.3520   -0.2580 C.2     1  UNL1       -0.0430
      8  C          8.3230    1.5930   -0.4010 C.2     1  UNL1        0.0080
      9  C          6.4420    0.2580   -0.8940 C.2     1  UNL1        0.0540
     10  C          9.1270    0.7650   -1.1530 C.2     1  UNL1        0.0510
     11  C          7.2290   -0.5870   -1.6530 C.2     1  UNL1        0.1660
     12  C          8.5740   -0.3370   -1.7850 C.2     1  UNL1        0.1650
     13  O          6.9230   -1.7300   -2.3710 O.2     1  UNL1       -0.4540
     14  O          9.0930   -1.3460   -2.5980 O.2     1  UNL1       -0.4540
     15  C          8.0370   -2.0370   -3.2230 C.3     1  UNL1        0.4680
@<TRIPOS>BOND
     1    15    14    1
     2    15    13    1
     3    14    12    1
     4    13    11    1
     5    12    11    2
     6    12    10    1
     7    11     9    1
     8    10     8    2
     9     9     7    2
    10     8     7    1
    11     7     6    1
    12     6     1    1
    13     1     2    1
    14     2     3    2
    15     2     4    1
    16     4     5    1
