@<TRIPOS>MOLECULE
/home/cewinharhar/GITHUB/reincatalyze/data/processed/docking_pred/2023-May-17-1006_maxeplen10_maxtrainstep1000_seadep16_gamma099_lrac9e-4_lrcr1e-3_sub6/a7c8c9f10e55c2841f25afbe7e611a3f864293db_ligand_6.pdbqt
 15 16 0 0 0
SMALL
GASTEIGER

@<TRIPOS>ATOM
      1  C          8.3180   -0.3250   -2.8490 C.3     1  UNL1        0.1270
      2  C          8.4750   -1.7530   -3.0740 C.2     1  UNL1        0.3030
      3  O          9.5400   -2.3720   -3.0420 O.2     1  UNL1       -0.2520
      4  O          7.3140   -2.4930   -3.3500 O.3     1  UNL1       -0.4810
      5  H          6.5400   -1.9780   -3.7400 H       1  UNL1        0.2960
      6  C          8.7680    0.1260   -1.5150 C.3     1  UNL1        0.0470
      7  C          7.7930    0.0890   -0.4230 C.2     1  UNL1       -0.0430
      8  C          7.7270   -0.9830    0.4540 C.2     1  UNL1        0.0080
      9  C          6.8850    1.1020   -0.2600 C.2     1  UNL1        0.0540
     10  C          6.7870   -1.0350    1.4590 C.2     1  UNL1        0.0510
     11  C          5.9330    1.0710    0.7410 C.2     1  UNL1        0.1660
     12  C          5.8810    0.0030    1.6040 C.2     1  UNL1        0.1650
     13  O          4.9350    1.9640    1.0880 O.2     1  UNL1       -0.4540
     14  O          4.8320    0.2520    2.4910 O.2     1  UNL1       -0.4540
     15  C          4.0390    1.3060    1.9960 C.3     1  UNL1        0.4680
@<TRIPOS>BOND
     1     5     4    1
     2     4     2    1
     3     2     3    2
     4     2     1    1
     5     1     6    1
     6     6     7    1
     7     7     9    2
     8     7     8    1
     9     9    11    1
    10     8    10    2
    11    11    13    1
    12    11    12    2
    13    13    15    1
    14    10    12    1
    15    12    14    1
    16    15    14    1
