MODEL 1
REMARK VINA RESULT:      -7.6      0.000      0.000
REMARK SMILES O=C(O)CCc1ccc2c(c1)OCO2
REMARK SMILES IDX 4 1 2 2 1 3 3 4 5 6 6 7 7 8 11 9 8 10 10 11 9 12 12 13 14 14
REMARK SMILES IDX 13 15
REMARK H PARENT 3 5
REMARK Flexibility Score: inf
ROOT
ATOM      1  C   UNL     1       5.421   2.874   0.108  1.00  0.00     0.127 C 
ENDROOT
BRANCH   1   2
ATOM      2  C   UNL     1       6.246   3.858   0.793  1.00  0.00     0.303 C 
ATOM      3  O   UNL     1       6.912   4.739   0.247  1.00  0.00    -0.252 OA
BRANCH   2   4
ATOM      4  O   UNL     1       6.287   3.800   2.195  1.00  0.00    -0.481 OA
ATOM      5  H   UNL     1       5.849   4.565   2.685  1.00  0.00     0.296 HD
ENDBRANCH   2   4
ENDBRANCH   1   2
BRANCH   1   6
ATOM      6  C   UNL     1       5.350   1.568   0.797  1.00  0.00     0.047 C 
BRANCH   6   7
ATOM      7  C   UNL     1       6.127   0.462   0.233  1.00  0.00    -0.043 A 
ATOM      8  C   UNL     1       6.554  -0.598   1.019  1.00  0.00     0.008 A 
ATOM      9  C   UNL     1       6.490   0.462  -1.088  1.00  0.00     0.054 A 
ATOM     10  C   UNL     1       7.316  -1.620   0.498  1.00  0.00     0.051 A 
ATOM     11  C   UNL     1       7.253  -0.553  -1.632  1.00  0.00     0.166 A 
ATOM     12  C   UNL     1       7.668  -1.598  -0.842  1.00  0.00     0.165 A 
ATOM     13  O   UNL     1       7.729  -0.758  -2.915  1.00  0.00    -0.454 OA
ATOM     14  O   UNL     1       8.410  -2.452  -1.659  1.00  0.00    -0.454 OA
ATOM     15  C   UNL     1       8.721  -1.795  -2.866  1.00  0.00     0.468 C 
ENDBRANCH   6   7
ENDBRANCH   1   6
TORSDOF 4
ENDMDL
MODEL 2
REMARK VINA RESULT:      -7.6      2.134      2.527
REMARK SMILES O=C(O)CCc1ccc2c(c1)OCO2
REMARK SMILES IDX 4 1 2 2 1 3 3 4 5 6 6 7 7 8 11 9 8 10 10 11 9 12 12 13 14 14
REMARK SMILES IDX 13 15
REMARK H PARENT 3 5
REMARK Flexibility Score: inf
ROOT
ATOM      1  C   UNL     1       4.724   1.879   0.706  1.00  0.00     0.127 C 
ENDROOT
BRANCH   1   2
ATOM      2  C   UNL     1       4.415   1.151   1.927  1.00  0.00     0.303 C 
ATOM      3  O   UNL     1       5.141   0.314   2.467  1.00  0.00    -0.252 OA
BRANCH   2   4
ATOM      4  O   UNL     1       3.184   1.423   2.546  1.00  0.00    -0.481 OA
ATOM      5  H   UNL     1       2.604   0.625   2.754  1.00  0.00     0.296 HD
ENDBRANCH   2   4
ENDBRANCH   1   2
BRANCH   1   6
ATOM      6  C   UNL     1       6.153   2.230   0.562  1.00  0.00     0.047 C 
BRANCH   6   7
ATOM      7  C   UNL     1       6.998   1.324  -0.219  1.00  0.00    -0.043 A 
ATOM      8  C   UNL     1       8.357   1.549  -0.369  1.00  0.00     0.008 A 
ATOM      9  C   UNL     1       6.457   0.241  -0.861  1.00  0.00     0.054 A 
ATOM     10  C   UNL     1       9.146   0.718  -1.133  1.00  0.00     0.051 A 
ATOM     11  C   UNL     1       7.229  -0.606  -1.632  1.00  0.00     0.166 A 
ATOM     12  C   UNL     1       8.576  -0.371  -1.771  1.00  0.00     0.165 A 
ATOM     13  O   UNL     1       6.905  -1.740  -2.357  1.00  0.00    -0.454 OA
ATOM     14  O   UNL     1       9.078  -1.379  -2.595  1.00  0.00    -0.454 OA
ATOM     15  C   UNL     1       8.009  -2.052  -3.220  1.00  0.00     0.468 C 
ENDBRANCH   6   7
ENDBRANCH   1   6
TORSDOF 4
ENDMDL
MODEL 3
REMARK VINA RESULT:      -7.5      1.979      2.903
REMARK SMILES O=C(O)CCc1ccc2c(c1)OCO2
REMARK SMILES IDX 4 1 2 2 1 3 3 4 5 6 6 7 7 8 11 9 8 10 10 11 9 12 12 13 14 14
REMARK SMILES IDX 13 15
REMARK H PARENT 3 5
REMARK Flexibility Score: inf
ROOT
ATOM      1  C   UNL     1       6.396   1.276   0.635  1.00  0.00     0.127 C 
ENDROOT
BRANCH   1   2
ATOM      2  C   UNL     1       5.186   1.287   1.442  1.00  0.00     0.303 C 
ATOM      3  O   UNL     1       4.271   2.107   1.352  1.00  0.00    -0.252 OA
BRANCH   2   4
ATOM      4  O   UNL     1       5.046   0.278   2.408  1.00  0.00    -0.481 OA
ATOM      5  H   UNL     1       4.704  -0.611   2.077  1.00  0.00     0.296 HD
ENDBRANCH   2   4
ENDBRANCH   1   2
BRANCH   1   6
ATOM      6  C   UNL     1       6.194   0.778  -0.742  1.00  0.00     0.047 C 
BRANCH   6   7
ATOM      7  C   UNL     1       6.964  -0.397  -1.157  1.00  0.00    -0.043 A 
ATOM      8  C   UNL     1       7.276  -0.626  -2.488  1.00  0.00     0.008 A 
ATOM      9  C   UNL     1       7.367  -1.330  -0.239  1.00  0.00     0.054 A 
ATOM     10  C   UNL     1       7.968  -1.748  -2.884  1.00  0.00     0.051 A 
ATOM     11  C   UNL     1       8.063  -2.464  -0.613  1.00  0.00     0.166 A 
ATOM     12  C   UNL     1       8.366  -2.677  -1.936  1.00  0.00     0.165 A 
ATOM     13  O   UNL     1       8.562  -3.521   0.127  1.00  0.00    -0.454 OA
ATOM     14  O   UNL     1       9.062  -3.885  -2.000  1.00  0.00    -0.454 OA
ATOM     15  C   UNL     1       8.921  -4.575  -0.779  1.00  0.00     0.468 C 
ENDBRANCH   6   7
ENDBRANCH   1   6
TORSDOF 4
ENDMDL
MODEL 4
REMARK VINA RESULT:      -7.4      1.792      5.285
REMARK SMILES O=C(O)CCc1ccc2c(c1)OCO2
REMARK SMILES IDX 4 1 2 2 1 3 3 4 5 6 6 7 7 8 11 9 8 10 10 11 9 12 12 13 14 14
REMARK SMILES IDX 13 15
REMARK H PARENT 3 5
REMARK Flexibility Score: inf
ROOT
ATOM      1  C   UNL     1       8.318  -0.325  -2.849  1.00  0.00     0.127 C 
ENDROOT
BRANCH   1   2
ATOM      2  C   UNL     1       8.475  -1.753  -3.074  1.00  0.00     0.303 C 
ATOM      3  O   UNL     1       9.540  -2.372  -3.042  1.00  0.00    -0.252 OA
BRANCH   2   4
ATOM      4  O   UNL     1       7.314  -2.493  -3.350  1.00  0.00    -0.481 OA
ATOM      5  H   UNL     1       6.540  -1.978  -3.740  1.00  0.00     0.296 HD
ENDBRANCH   2   4
ENDBRANCH   1   2
BRANCH   1   6
ATOM      6  C   UNL     1       8.768   0.126  -1.515  1.00  0.00     0.047 C 
BRANCH   6   7
ATOM      7  C   UNL     1       7.793   0.089  -0.423  1.00  0.00    -0.043 A 
ATOM      8  C   UNL     1       7.727  -0.983   0.454  1.00  0.00     0.008 A 
ATOM      9  C   UNL     1       6.885   1.102  -0.260  1.00  0.00     0.054 A 
ATOM     10  C   UNL     1       6.787  -1.035   1.459  1.00  0.00     0.051 A 
ATOM     11  C   UNL     1       5.933   1.071   0.741  1.00  0.00     0.166 A 
ATOM     12  C   UNL     1       5.881   0.003   1.604  1.00  0.00     0.165 A 
ATOM     13  O   UNL     1       4.935   1.964   1.088  1.00  0.00    -0.454 OA
ATOM     14  O   UNL     1       4.832   0.252   2.491  1.00  0.00    -0.454 OA
ATOM     15  C   UNL     1       4.039   1.306   1.996  1.00  0.00     0.468 C 
ENDBRANCH   6   7
ENDBRANCH   1   6
TORSDOF 4
ENDMDL
MODEL 5
REMARK VINA RESULT:      -7.4      0.941      2.075
REMARK SMILES O=C(O)CCc1ccc2c(c1)OCO2
REMARK SMILES IDX 4 1 2 2 1 3 3 4 5 6 6 7 7 8 11 9 8 10 10 11 9 12 12 13 14 14
REMARK SMILES IDX 13 15
REMARK H PARENT 3 5
REMARK Flexibility Score: inf
ROOT
ATOM      1  C   UNL     1       5.459   2.646   0.057  1.00  0.00     0.127 C 
ENDROOT
BRANCH   1   2
ATOM      2  C   UNL     1       6.121   3.681   0.835  1.00  0.00     0.303 C 
ATOM      3  O   UNL     1       6.148   3.748   2.065  1.00  0.00    -0.252 OA
BRANCH   2   4
ATOM      4  O   UNL     1       6.788   4.692   0.125  1.00  0.00    -0.481 OA
ATOM      5  H   UNL     1       6.729   5.621   0.513  1.00  0.00     0.296 HD
ENDBRANCH   2   4
ENDBRANCH   1   2
BRANCH   1   6
ATOM      6  C   UNL     1       5.512   1.304   0.675  1.00  0.00     0.047 C 
BRANCH   6   7
ATOM      7  C   UNL     1       6.317   0.281   0.005  1.00  0.00    -0.043 A 
ATOM      8  C   UNL     1       6.464   0.263  -1.374  1.00  0.00     0.008 A 
ATOM      9  C   UNL     1       6.921  -0.717   0.723  1.00  0.00     0.054 A 
ATOM     10  C   UNL     1       7.191  -0.719  -2.009  1.00  0.00     0.051 A 
ATOM     11  C   UNL     1       7.656  -1.713   0.107  1.00  0.00     0.166 A 
ATOM     12  C   UNL     1       7.794  -1.717  -1.260  1.00  0.00     0.165 A 
ATOM     13  O   UNL     1       8.341  -2.800   0.620  1.00  0.00    -0.454 OA
ATOM     14  O   UNL     1       8.576  -2.827  -1.582  1.00  0.00    -0.454 OA
ATOM     15  C   UNL     1       8.663  -3.682  -0.466  1.00  0.00     0.468 C 
ENDBRANCH   6   7
ENDBRANCH   1   6
TORSDOF 4
ENDMDL
