@<TRIPOS>MOLECULE
/home/cewinharhar/GITHUB/reincatalyze/data/processed/docking_pred/2023-May-17-1006_maxeplen10_maxtrainstep1000_seadep16_gamma099_lrac9e-4_lrcr1e-3_sub6/a7c8c9f10e55c2841f25afbe7e611a3f864293db_ligand_6.pdbqt
 15 16 0 0 0
SMALL
GASTEIGER

@<TRIPOS>ATOM
      1  C          6.3960    1.2760    0.6350 C.3     1  UNL1        0.1270
      2  C          5.1860    1.2870    1.4420 C.2     1  UNL1        0.3030
      3  O          4.2710    2.1070    1.3520 O.2     1  UNL1       -0.2520
      4  O          5.0460    0.2780    2.4080 O.3     1  UNL1       -0.4810
      5  H          4.7040   -0.6110    2.0770 H       1  UNL1        0.2960
      6  C          6.1940    0.7780   -0.7420 C.3     1  UNL1        0.0470
      7  C          6.9640   -0.3970   -1.1570 C.2     1  UNL1       -0.0430
      8  C          7.2760   -0.6260   -2.4880 C.2     1  UNL1        0.0080
      9  C          7.3670   -1.3300   -0.2390 C.2     1  UNL1        0.0540
     10  C          7.9680   -1.7480   -2.8840 C.2     1  UNL1        0.0510
     11  C          8.0630   -2.4640   -0.6130 C.2     1  UNL1        0.1660
     12  C          8.3660   -2.6770   -1.9360 C.2     1  UNL1        0.1650
     13  O          8.5620   -3.5210    0.1270 O.2     1  UNL1       -0.4540
     14  O          9.0620   -3.8850   -2.0000 O.2     1  UNL1       -0.4540
     15  C          8.9210   -4.5750   -0.7790 C.3     1  UNL1        0.4680
@<TRIPOS>BOND
     1    10     8    1
     2    10    12    2
     3     8     7    2
     4    14    12    1
     5    14    15    1
     6    12    11    1
     7     7     6    1
     8     7     9    1
     9    15    13    1
    10     6     1    1
    11    11     9    2
    12    11    13    1
    13     1     2    1
    14     3     2    2
    15     2     4    1
    16     5     4    1
