@<TRIPOS>MOLECULE
/home/cewinharhar/GITHUB/reincatalyze/data/processed/docking_pred/2023-May-17-1006_maxeplen10_maxtrainstep1000_seadep16_gamma099_lrac9e-4_lrcr1e-3_sub6/a7c8c9f10e55c2841f25afbe7e611a3f864293db_ligand_6.pdbqt
 15 16 0 0 0
SMALL
GASTEIGER

@<TRIPOS>ATOM
      1  C          5.4590    2.6460    0.0570 C.3     1  UNL1        0.1270
      2  C          6.1210    3.6810    0.8350 C.2     1  UNL1        0.3030
      3  O          6.1480    3.7480    2.0650 O.2     1  UNL1       -0.2520
      4  O          6.7880    4.6920    0.1250 O.3     1  UNL1       -0.4810
      5  H          6.7290    5.6210    0.5130 H       1  UNL1        0.2960
      6  C          5.5120    1.3040    0.6750 C.3     1  UNL1        0.0470
      7  C          6.3170    0.2810    0.0050 C.2     1  UNL1       -0.0430
      8  C          6.4640    0.2630   -1.3740 C.2     1  UNL1        0.0080
      9  C          6.9210   -0.7170    0.7230 C.2     1  UNL1        0.0540
     10  C          7.1910   -0.7190   -2.0090 C.2     1  UNL1        0.0510
     11  C          7.6560   -1.7130    0.1070 C.2     1  UNL1        0.1660
     12  C          7.7940   -1.7170   -1.2600 C.2     1  UNL1        0.1650
     13  O          8.3410   -2.8000    0.6200 O.2     1  UNL1       -0.4540
     14  O          8.5760   -2.8270   -1.5820 O.2     1  UNL1       -0.4540
     15  C          8.6630   -3.6820   -0.4660 C.3     1  UNL1        0.4680
@<TRIPOS>BOND
     1    10     8    1
     2    10    12    2
     3    14    12    1
     4    14    15    1
     5     8     7    2
     6    12    11    1
     7    15    13    1
     8     7     6    1
     9     7     9    1
    10     1     6    1
    11     1     2    1
    12    11    13    1
    13    11     9    2
    14     4     5    1
    15     4     2    1
    16     2     3    2
