@<TRIPOS>MOLECULE
/home/cewinharhar/GITHUB/reincatalyze/data/processed/docking_pred/2023-May-17-1006_maxeplen10_maxtrainstep1000_seadep16_gamma099_lrac9e-4_lrcr1e-3_sub6/a8cbf1bb962d04eb60783bb2dc55df042853f03a_ligand_6.pdbqt
 15 16 0 0 0
SMALL
GASTEIGER

@<TRIPOS>ATOM
      1  C          5.5610    2.6560    0.1860 C.3     1  UNL1        0.1270
      2  C          6.2240    3.6940    0.9600 C.2     1  UNL1        0.3030
      3  O          6.3120    3.7260    2.1890 O.2     1  UNL1       -0.2520
      4  O          6.8130    4.7510    0.2490 O.3     1  UNL1       -0.4810
      5  H          7.3320    4.4970   -0.5780 H       1  UNL1        0.2960
      6  C          5.5920    1.3210    0.8210 C.3     1  UNL1        0.0470
      7  C          6.3680    0.2730    0.1550 C.2     1  UNL1       -0.0430
      8  C          6.4840    0.2220   -1.2250 C.2     1  UNL1        0.0080
      9  C          6.9750   -0.7170    0.8820 C.2     1  UNL1        0.0540
     10  C          7.1830   -0.7840   -1.8540 C.2     1  UNL1        0.0510
     11  C          7.6820   -1.7360    0.2730 C.2     1  UNL1        0.1660
     12  C          7.7890   -1.7730   -1.0970 C.2     1  UNL1        0.1650
     13  O          8.3640   -2.8210    0.7950 O.2     1  UNL1       -0.4540
     14  O          8.5490   -2.9010   -1.4110 O.2     1  UNL1       -0.4540
     15  C          8.6500   -3.7310   -0.2780 C.3     1  UNL1        0.4680
@<TRIPOS>BOND
     1    10     8    1
     2    10    12    2
     3    14    12    1
     4    14    15    1
     5     8     7    2
     6    12    11    1
     7     5     4    1
     8    15    13    1
     9     7     6    1
    10     7     9    1
    11     1     6    1
    12     1     2    1
    13     4     2    1
    14    11    13    1
    15    11     9    2
    16     2     3    2
