@<TRIPOS>MOLECULE
/home/cewinharhar/GITHUB/reincatalyze/data/processed/docking_pred/2023-May-17-1006_maxeplen10_maxtrainstep1000_seadep16_gamma099_lrac9e-4_lrcr1e-3_sub6/a8cbf1bb962d04eb60783bb2dc55df042853f03a_ligand_6.pdbqt
 15 16 0 0 0
SMALL
GASTEIGER

@<TRIPOS>ATOM
      1  C          8.3080   -0.3180   -2.8650 C.3     1  UNL1        0.1270
      2  C          8.4720   -1.7470   -3.0760 C.2     1  UNL1        0.3030
      3  O          9.5400   -2.3610   -3.0350 O.2     1  UNL1       -0.2520
      4  O          7.3160   -2.4950   -3.3510 O.3     1  UNL1       -0.4810
      5  H          6.9760   -3.0800   -2.6040 H       1  UNL1        0.2960
      6  C          8.7590    0.1480   -1.5370 C.3     1  UNL1        0.0470
      7  C          7.7900    0.1050   -0.4390 C.2     1  UNL1       -0.0430
      8  C          7.7350   -0.9680    0.4370 C.2     1  UNL1        0.0080
      9  C          6.8780    1.1130   -0.2700 C.2     1  UNL1        0.0540
     10  C          6.8000   -1.0270    1.4470 C.2     1  UNL1        0.0510
     11  C          5.9320    1.0760    0.7370 C.2     1  UNL1        0.1660
     12  C          5.8900    0.0070    1.5990 C.2     1  UNL1        0.1650
     13  O          4.9310    1.9640    1.0910 O.2     1  UNL1       -0.4540
     14  O          4.8450    0.2500    2.4910 O.2     1  UNL1       -0.4540
     15  C          4.0430    1.3000    2.0030 C.3     1  UNL1        0.4680
@<TRIPOS>BOND
     1     4     2    1
     2     4     5    1
     3     2     3    2
     4     2     1    1
     5     1     6    1
     6     6     7    1
     7     7     9    2
     8     7     8    1
     9     9    11    1
    10     8    10    2
    11    11    13    1
    12    11    12    2
    13    13    15    1
    14    10    12    1
    15    12    14    1
    16    15    14    1
