MODEL 1
REMARK VINA RESULT:      -7.7      0.000      0.000
REMARK SMILES O=C(O)CCc1ccc2c(c1)OCO2
REMARK SMILES IDX 4 1 2 2 1 3 3 4 5 6 6 7 7 8 11 9 8 10 10 11 9 12 12 13 14 14
REMARK SMILES IDX 13 15
REMARK H PARENT 3 5
REMARK Flexibility Score: inf
ROOT
ATOM      1  C   UNL     1       5.412   2.871   0.128  1.00  0.00     0.127 C 
ENDROOT
BRANCH   1   2
ATOM      2  C   UNL     1       6.240   3.852   0.812  1.00  0.00     0.303 C 
ATOM      3  O   UNL     1       6.867   4.764   0.271  1.00  0.00    -0.252 OA
BRANCH   2   4
ATOM      4  O   UNL     1       6.335   3.754   2.209  1.00  0.00    -0.481 OA
ATOM      5  H   UNL     1       5.903   4.496   2.738  1.00  0.00     0.296 HD
ENDBRANCH   2   4
ENDBRANCH   1   2
BRANCH   1   6
ATOM      6  C   UNL     1       5.348   1.561   0.809  1.00  0.00     0.047 C 
BRANCH   6   7
ATOM      7  C   UNL     1       6.130   0.462   0.239  1.00  0.00    -0.043 A 
ATOM      8  C   UNL     1       6.600  -0.578   1.027  1.00  0.00     0.008 A 
ATOM      9  C   UNL     1       6.455   0.451  -1.091  1.00  0.00     0.054 A 
ATOM     10  C   UNL     1       7.367  -1.593   0.498  1.00  0.00     0.051 A 
ATOM     11  C   UNL     1       7.222  -0.558  -1.643  1.00  0.00     0.166 A 
ATOM     12  C   UNL     1       7.681  -1.583  -0.851  1.00  0.00     0.165 A 
ATOM     13  O   UNL     1       7.665  -0.772  -2.937  1.00  0.00    -0.454 OA
ATOM     14  O   UNL     1       8.415  -2.434  -1.678  1.00  0.00    -0.454 OA
ATOM     15  C   UNL     1       8.679  -1.788  -2.902  1.00  0.00     0.468 C 
ENDBRANCH   6   7
ENDBRANCH   1   6
TORSDOF 4
ENDMDL
MODEL 2
REMARK VINA RESULT:      -7.6      2.123      2.510
REMARK SMILES O=C(O)CCc1ccc2c(c1)OCO2
REMARK SMILES IDX 4 1 2 2 1 3 3 4 5 6 6 7 7 8 11 9 8 10 10 11 9 12 12 13 14 14
REMARK SMILES IDX 13 15
REMARK H PARENT 3 5
REMARK Flexibility Score: inf
ROOT
ATOM      1  C   UNL     1       4.707   1.882   0.683  1.00  0.00     0.127 C 
ENDROOT
BRANCH   1   2
ATOM      2  C   UNL     1       4.393   1.173   1.914  1.00  0.00     0.303 C 
ATOM      3  O   UNL     1       5.111   0.336   2.462  1.00  0.00    -0.252 OA
BRANCH   2   4
ATOM      4  O   UNL     1       3.166   1.467   2.531  1.00  0.00    -0.481 OA
ATOM      5  H   UNL     1       2.350   1.036   2.125  1.00  0.00     0.296 HD
ENDBRANCH   2   4
ENDBRANCH   1   2
BRANCH   1   6
ATOM      6  C   UNL     1       6.135   2.239   0.544  1.00  0.00     0.047 C 
BRANCH   6   7
ATOM      7  C   UNL     1       6.986   1.334  -0.232  1.00  0.00    -0.043 A 
ATOM      8  C   UNL     1       8.347   1.561  -0.372  1.00  0.00     0.008 A 
ATOM      9  C   UNL     1       6.451   0.252  -0.879  1.00  0.00     0.054 A 
ATOM     10  C   UNL     1       9.142   0.732  -1.131  1.00  0.00     0.051 A 
ATOM     11  C   UNL     1       7.230  -0.594  -1.645  1.00  0.00     0.166 A 
ATOM     12  C   UNL     1       8.578  -0.358  -1.774  1.00  0.00     0.165 A 
ATOM     13  O   UNL     1       6.913  -1.727  -2.374  1.00  0.00    -0.454 OA
ATOM     14  O   UNL     1       9.087  -1.365  -2.595  1.00  0.00    -0.454 OA
ATOM     15  C   UNL     1       8.024  -2.038  -3.229  1.00  0.00     0.468 C 
ENDBRANCH   6   7
ENDBRANCH   1   6
TORSDOF 4
ENDMDL
MODEL 3
REMARK VINA RESULT:      -7.5      1.981      2.906
REMARK SMILES O=C(O)CCc1ccc2c(c1)OCO2
REMARK SMILES IDX 4 1 2 2 1 3 3 4 5 6 6 7 7 8 11 9 8 10 10 11 9 12 12 13 14 14
REMARK SMILES IDX 13 15
REMARK H PARENT 3 5
REMARK Flexibility Score: inf
ROOT
ATOM      1  C   UNL     1       6.393   1.261   0.665  1.00  0.00     0.127 C 
ENDROOT
BRANCH   1   2
ATOM      2  C   UNL     1       5.176   1.277   1.460  1.00  0.00     0.303 C 
ATOM      3  O   UNL     1       4.266   2.103   1.363  1.00  0.00    -0.252 OA
BRANCH   2   4
ATOM      4  O   UNL     1       5.020   0.266   2.421  1.00  0.00    -0.481 OA
ATOM      5  H   UNL     1       4.748  -0.641   2.074  1.00  0.00     0.296 HD
ENDBRANCH   2   4
ENDBRANCH   1   2
BRANCH   1   6
ATOM      6  C   UNL     1       6.200   0.779  -0.719  1.00  0.00     0.047 C 
BRANCH   6   7
ATOM      7  C   UNL     1       6.966  -0.396  -1.140  1.00  0.00    -0.043 A 
ATOM      8  C   UNL     1       7.271  -0.623  -2.473  1.00  0.00     0.008 A 
ATOM      9  C   UNL     1       7.373  -1.331  -0.226  1.00  0.00     0.054 A 
ATOM     10  C   UNL     1       7.961  -1.745  -2.875  1.00  0.00     0.051 A 
ATOM     11  C   UNL     1       8.066  -2.465  -0.605  1.00  0.00     0.166 A 
ATOM     12  C   UNL     1       8.362  -2.676  -1.930  1.00  0.00     0.165 A 
ATOM     13  O   UNL     1       8.568  -3.524   0.130  1.00  0.00    -0.454 OA
ATOM     14  O   UNL     1       9.056  -3.885  -2.000  1.00  0.00    -0.454 OA
ATOM     15  C   UNL     1       8.921  -4.577  -0.780  1.00  0.00     0.468 C 
ENDBRANCH   6   7
ENDBRANCH   1   6
TORSDOF 4
ENDMDL
MODEL 4
REMARK VINA RESULT:      -7.4      1.784      5.286
REMARK SMILES O=C(O)CCc1ccc2c(c1)OCO2
REMARK SMILES IDX 4 1 2 2 1 3 3 4 5 6 6 7 7 8 11 9 8 10 10 11 9 12 12 13 14 14
REMARK SMILES IDX 13 15
REMARK H PARENT 3 5
REMARK Flexibility Score: inf
ROOT
ATOM      1  C   UNL     1       8.308  -0.318  -2.865  1.00  0.00     0.127 C 
ENDROOT
BRANCH   1   2
ATOM      2  C   UNL     1       8.472  -1.747  -3.076  1.00  0.00     0.303 C 
ATOM      3  O   UNL     1       9.540  -2.361  -3.035  1.00  0.00    -0.252 OA
BRANCH   2   4
ATOM      4  O   UNL     1       7.316  -2.495  -3.351  1.00  0.00    -0.481 OA
ATOM      5  H   UNL     1       6.976  -3.080  -2.604  1.00  0.00     0.296 HD
ENDBRANCH   2   4
ENDBRANCH   1   2
BRANCH   1   6
ATOM      6  C   UNL     1       8.759   0.148  -1.537  1.00  0.00     0.047 C 
BRANCH   6   7
ATOM      7  C   UNL     1       7.790   0.105  -0.439  1.00  0.00    -0.043 A 
ATOM      8  C   UNL     1       7.735  -0.968   0.437  1.00  0.00     0.008 A 
ATOM      9  C   UNL     1       6.878   1.113  -0.270  1.00  0.00     0.054 A 
ATOM     10  C   UNL     1       6.800  -1.027   1.447  1.00  0.00     0.051 A 
ATOM     11  C   UNL     1       5.932   1.076   0.737  1.00  0.00     0.166 A 
ATOM     12  C   UNL     1       5.890   0.007   1.599  1.00  0.00     0.165 A 
ATOM     13  O   UNL     1       4.931   1.964   1.091  1.00  0.00    -0.454 OA
ATOM     14  O   UNL     1       4.845   0.250   2.491  1.00  0.00    -0.454 OA
ATOM     15  C   UNL     1       4.043   1.300   2.003  1.00  0.00     0.468 C 
ENDBRANCH   6   7
ENDBRANCH   1   6
TORSDOF 4
ENDMDL
MODEL 5
REMARK VINA RESULT:      -7.4      0.979      2.120
REMARK SMILES O=C(O)CCc1ccc2c(c1)OCO2
REMARK SMILES IDX 4 1 2 2 1 3 3 4 5 6 6 7 7 8 11 9 8 10 10 11 9 12 12 13 14 14
REMARK SMILES IDX 13 15
REMARK H PARENT 3 5
REMARK Flexibility Score: inf
ROOT
ATOM      1  C   UNL     1       5.561   2.656   0.186  1.00  0.00     0.127 C 
ENDROOT
BRANCH   1   2
ATOM      2  C   UNL     1       6.224   3.694   0.960  1.00  0.00     0.303 C 
ATOM      3  O   UNL     1       6.312   3.726   2.189  1.00  0.00    -0.252 OA
BRANCH   2   4
ATOM      4  O   UNL     1       6.813   4.751   0.249  1.00  0.00    -0.481 OA
ATOM      5  H   UNL     1       7.332   4.497  -0.578  1.00  0.00     0.296 HD
ENDBRANCH   2   4
ENDBRANCH   1   2
BRANCH   1   6
ATOM      6  C   UNL     1       5.592   1.321   0.821  1.00  0.00     0.047 C 
BRANCH   6   7
ATOM      7  C   UNL     1       6.368   0.273   0.155  1.00  0.00    -0.043 A 
ATOM      8  C   UNL     1       6.484   0.222  -1.225  1.00  0.00     0.008 A 
ATOM      9  C   UNL     1       6.975  -0.717   0.882  1.00  0.00     0.054 A 
ATOM     10  C   UNL     1       7.183  -0.784  -1.854  1.00  0.00     0.051 A 
ATOM     11  C   UNL     1       7.682  -1.736   0.273  1.00  0.00     0.166 A 
ATOM     12  C   UNL     1       7.789  -1.773  -1.097  1.00  0.00     0.165 A 
ATOM     13  O   UNL     1       8.364  -2.821   0.795  1.00  0.00    -0.454 OA
ATOM     14  O   UNL     1       8.549  -2.901  -1.411  1.00  0.00    -0.454 OA
ATOM     15  C   UNL     1       8.650  -3.731  -0.278  1.00  0.00     0.468 C 
ENDBRANCH   6   7
ENDBRANCH   1   6
TORSDOF 4
ENDMDL
