@<TRIPOS>MOLECULE
/home/cewinharhar/GITHUB/reincatalyze/data/processed/docking_pred/2023-May-17-1006_maxeplen10_maxtrainstep1000_seadep16_gamma099_lrac9e-4_lrcr1e-3_sub6/a8cbf1bb962d04eb60783bb2dc55df042853f03a_ligand_6.pdbqt
 15 16 0 0 0
SMALL
GASTEIGER

@<TRIPOS>ATOM
      1  C          5.4120    2.8710    0.1280 C.3     1  UNL1        0.1270
      2  C          6.2400    3.8520    0.8120 C.2     1  UNL1        0.3030
      3  O          6.8670    4.7640    0.2710 O.2     1  UNL1       -0.2520
      4  O          6.3350    3.7540    2.2090 O.3     1  UNL1       -0.4810
      5  H          5.9030    4.4960    2.7380 H       1  UNL1        0.2960
      6  C          5.3480    1.5610    0.8090 C.3     1  UNL1        0.0470
      7  C          6.1300    0.4620    0.2390 C.2     1  UNL1       -0.0430
      8  C          6.6000   -0.5780    1.0270 C.2     1  UNL1        0.0080
      9  C          6.4550    0.4510   -1.0910 C.2     1  UNL1        0.0540
     10  C          7.3670   -1.5930    0.4980 C.2     1  UNL1        0.0510
     11  C          7.2220   -0.5580   -1.6430 C.2     1  UNL1        0.1660
     12  C          7.6810   -1.5830   -0.8510 C.2     1  UNL1        0.1650
     13  O          7.6650   -0.7720   -2.9370 O.2     1  UNL1       -0.4540
     14  O          8.4150   -2.4340   -1.6780 O.2     1  UNL1       -0.4540
     15  C          8.6790   -1.7880   -2.9020 C.3     1  UNL1        0.4680
@<TRIPOS>BOND
     1    13    15    1
     2    13    11    1
     3    15    14    1
     4    14    12    1
     5    11     9    1
     6    11    12    2
     7     9     7    2
     8    12    10    1
     9     1     6    1
    10     1     2    1
    11     7     6    1
    12     7     8    1
    13     3     2    2
    14    10     8    2
    15     2     4    1
    16     4     5    1
