@<TRIPOS>MOLECULE
/home/cewinharhar/GITHUB/reincatalyze/data/processed/docking_pred/2023-May-17-1006_maxeplen10_maxtrainstep1000_seadep16_gamma099_lrac9e-4_lrcr1e-3_sub6/a8cbf1bb962d04eb60783bb2dc55df042853f03a_ligand_6.pdbqt
 15 16 0 0 0
SMALL
GASTEIGER

@<TRIPOS>ATOM
      1  C          6.3930    1.2610    0.6650 C.3     1  UNL1        0.1270
      2  C          5.1760    1.2770    1.4600 C.2     1  UNL1        0.3030
      3  O          4.2660    2.1030    1.3630 O.2     1  UNL1       -0.2520
      4  O          5.0200    0.2660    2.4210 O.3     1  UNL1       -0.4810
      5  H          4.7480   -0.6410    2.0740 H       1  UNL1        0.2960
      6  C          6.2000    0.7790   -0.7190 C.3     1  UNL1        0.0470
      7  C          6.9660   -0.3960   -1.1400 C.2     1  UNL1       -0.0430
      8  C          7.2710   -0.6230   -2.4730 C.2     1  UNL1        0.0080
      9  C          7.3730   -1.3310   -0.2260 C.2     1  UNL1        0.0540
     10  C          7.9610   -1.7450   -2.8750 C.2     1  UNL1        0.0510
     11  C          8.0660   -2.4650   -0.6050 C.2     1  UNL1        0.1660
     12  C          8.3620   -2.6760   -1.9300 C.2     1  UNL1        0.1650
     13  O          8.5680   -3.5240    0.1300 O.2     1  UNL1       -0.4540
     14  O          9.0560   -3.8850   -2.0000 O.2     1  UNL1       -0.4540
     15  C          8.9210   -4.5770   -0.7800 C.3     1  UNL1        0.4680
@<TRIPOS>BOND
     1    10     8    1
     2    10    12    2
     3     8     7    2
     4    14    12    1
     5    14    15    1
     6    12    11    1
     7     7     6    1
     8     7     9    1
     9    15    13    1
    10     6     1    1
    11    11     9    2
    12    11    13    1
    13     1     2    1
    14     3     2    2
    15     2     4    1
    16     5     4    1
