@<TRIPOS>MOLECULE
/home/cewinharhar/GITHUB/reincatalyze/data/processed/docking_pred/2023-May-17-1006_maxeplen10_maxtrainstep1000_seadep16_gamma099_lrac9e-4_lrcr1e-3_sub6/a8cbf1bb962d04eb60783bb2dc55df042853f03a_ligand_6.pdbqt
 15 16 0 0 0
SMALL
GASTEIGER

@<TRIPOS>ATOM
      1  C          4.7070    1.8820    0.6830 C.3     1  UNL1        0.1270
      2  C          4.3930    1.1730    1.9140 C.2     1  UNL1        0.3030
      3  O          5.1110    0.3360    2.4620 O.2     1  UNL1       -0.2520
      4  O          3.1660    1.4670    2.5310 O.3     1  UNL1       -0.4810
      5  H          2.3500    1.0360    2.1250 H       1  UNL1        0.2960
      6  C          6.1350    2.2390    0.5440 C.3     1  UNL1        0.0470
      7  C          6.9860    1.3340   -0.2320 C.2     1  UNL1       -0.0430
      8  C          8.3470    1.5610   -0.3720 C.2     1  UNL1        0.0080
      9  C          6.4510    0.2520   -0.8790 C.2     1  UNL1        0.0540
     10  C          9.1420    0.7320   -1.1310 C.2     1  UNL1        0.0510
     11  C          7.2300   -0.5940   -1.6450 C.2     1  UNL1        0.1660
     12  C          8.5780   -0.3580   -1.7740 C.2     1  UNL1        0.1650
     13  O          6.9130   -1.7270   -2.3740 O.2     1  UNL1       -0.4540
     14  O          9.0870   -1.3650   -2.5950 O.2     1  UNL1       -0.4540
     15  C          8.0240   -2.0380   -3.2290 C.3     1  UNL1        0.4680
@<TRIPOS>BOND
     1    15    14    1
     2    15    13    1
     3    14    12    1
     4    13    11    1
     5    12    11    2
     6    12    10    1
     7    11     9    1
     8    10     8    2
     9     9     7    2
    10     8     7    1
    11     7     6    1
    12     6     1    1
    13     1     2    1
    14     2     3    2
    15     2     4    1
    16     5     4    1
