@<TRIPOS>MOLECULE
/home/cewinharhar/GITHUB/reincatalyze/data/processed/docking_pred/2023-May-17-1006_maxeplen10_maxtrainstep1000_seadep16_gamma099_lrac9e-4_lrcr1e-3_sub6/a991e05863b38587be5f018959c733685726fb49_ligand_6.pdbqt
 15 16 0 0 0
SMALL
GASTEIGER

@<TRIPOS>ATOM
      1  C          6.4640    1.3420    0.7190 C.3     1  UNL1        0.1270
      2  C          5.2190    1.3320    1.4710 C.2     1  UNL1        0.3030
      3  O          4.2890    2.1280    1.3290 O.2     1  UNL1       -0.2520
      4  O          5.0600    0.3300    2.4410 O.3     1  UNL1       -0.4810
      5  H          5.8600   -0.2610    2.6060 H       1  UNL1        0.2960
      6  C          6.3140    0.9450   -0.6970 C.3     1  UNL1        0.0470
      7  C          7.0340   -0.2490   -1.1450 C.2     1  UNL1       -0.0430
      8  C          7.3030   -0.4720   -2.4870 C.2     1  UNL1        0.0080
      9  C          7.4310   -1.2050   -0.2490 C.2     1  UNL1        0.0540
     10  C          7.9480   -1.6110   -2.9140 C.2     1  UNL1        0.0510
     11  C          8.0810   -2.3560   -0.6540 C.2     1  UNL1        0.1660
     12  C          8.3420   -2.5630   -1.9870 C.2     1  UNL1        0.1650
     13  O          8.5660   -3.4370    0.0610 O.2     1  UNL1       -0.4540
     14  O          8.9960   -3.7920   -2.0830 O.2     1  UNL1       -0.4540
     15  C          8.8660   -4.4910   -0.8670 C.3     1  UNL1        0.4680
@<TRIPOS>BOND
     1    10     8    1
     2    10    12    2
     3     8     7    2
     4    14    12    1
     5    14    15    1
     6    12    11    1
     7     7     6    1
     8     7     9    1
     9    15    13    1
    10     6     1    1
    11    11     9    2
    12    11    13    1
    13     1     2    1
    14     3     2    2
    15     2     4    1
    16     4     5    1
