@<TRIPOS>MOLECULE
/home/cewinharhar/GITHUB/reincatalyze/data/processed/docking_pred/2023-May-17-1006_maxeplen10_maxtrainstep1000_seadep16_gamma099_lrac9e-4_lrcr1e-3_sub6/a991e05863b38587be5f018959c733685726fb49_ligand_6.pdbqt
 15 16 0 0 0
SMALL
GASTEIGER

@<TRIPOS>ATOM
      1  C          5.4200    2.8700    0.1220 C.3     1  UNL1        0.1270
      2  C          6.2520    3.8540    0.7960 C.2     1  UNL1        0.3030
      3  O          6.8960    4.7480    0.2440 O.2     1  UNL1       -0.2520
      4  O          6.3300    3.7820    2.1960 O.3     1  UNL1       -0.4810
      5  H          5.7700    3.0690    2.6370 H       1  UNL1        0.2960
      6  C          5.3540    1.5650    0.8140 C.3     1  UNL1        0.0470
      7  C          6.1310    0.4600    0.2490 C.2     1  UNL1       -0.0430
      8  C          6.5830   -0.5860    1.0390 C.2     1  UNL1        0.0080
      9  C          6.4690    0.4470   -1.0780 C.2     1  UNL1        0.0540
     10  C          7.3450   -1.6070    0.5170 C.2     1  UNL1        0.0510
     11  C          7.2320   -0.5680   -1.6240 C.2     1  UNL1        0.1660
     12  C          7.6720   -1.5980   -0.8290 C.2     1  UNL1        0.1650
     13  O          7.6850   -0.7840   -2.9140 O.2     1  UNL1       -0.4540
     14  O          8.4060   -2.4550   -1.6510 O.2     1  UNL1       -0.4540
     15  C          8.6880   -1.8100   -2.8710 C.3     1  UNL1        0.4680
@<TRIPOS>BOND
     1    13    15    1
     2    13    11    1
     3    15    14    1
     4    14    12    1
     5    11     9    1
     6    11    12    2
     7     9     7    2
     8    12    10    1
     9     1     2    1
    10     1     6    1
    11     3     2    2
    12     7     6    1
    13     7     8    1
    14    10     8    2
    15     2     4    1
    16     4     5    1
