MODEL 1
REMARK VINA RESULT:      -7.7      0.000      0.000
REMARK SMILES O=C(O)CCc1ccc2c(c1)OCO2
REMARK SMILES IDX 4 1 2 2 1 3 3 4 5 6 6 7 7 8 11 9 8 10 10 11 9 12 12 13 14 14
REMARK SMILES IDX 13 15
REMARK H PARENT 3 5
REMARK Flexibility Score: inf
ROOT
ATOM      1  C   UNL     1       5.420   2.870   0.122  1.00  0.00     0.127 C 
ENDROOT
BRANCH   1   2
ATOM      2  C   UNL     1       6.252   3.854   0.796  1.00  0.00     0.303 C 
ATOM      3  O   UNL     1       6.896   4.748   0.244  1.00  0.00    -0.252 OA
BRANCH   2   4
ATOM      4  O   UNL     1       6.330   3.782   2.196  1.00  0.00    -0.481 OA
ATOM      5  H   UNL     1       5.770   3.069   2.637  1.00  0.00     0.296 HD
ENDBRANCH   2   4
ENDBRANCH   1   2
BRANCH   1   6
ATOM      6  C   UNL     1       5.354   1.565   0.814  1.00  0.00     0.047 C 
BRANCH   6   7
ATOM      7  C   UNL     1       6.131   0.460   0.249  1.00  0.00    -0.043 A 
ATOM      8  C   UNL     1       6.583  -0.586   1.039  1.00  0.00     0.008 A 
ATOM      9  C   UNL     1       6.469   0.447  -1.078  1.00  0.00     0.054 A 
ATOM     10  C   UNL     1       7.345  -1.607   0.517  1.00  0.00     0.051 A 
ATOM     11  C   UNL     1       7.232  -0.568  -1.624  1.00  0.00     0.166 A 
ATOM     12  C   UNL     1       7.672  -1.598  -0.829  1.00  0.00     0.165 A 
ATOM     13  O   UNL     1       7.685  -0.784  -2.914  1.00  0.00    -0.454 OA
ATOM     14  O   UNL     1       8.406  -2.455  -1.651  1.00  0.00    -0.454 OA
ATOM     15  C   UNL     1       8.688  -1.810  -2.871  1.00  0.00     0.468 C 
ENDBRANCH   6   7
ENDBRANCH   1   6
TORSDOF 4
ENDMDL
MODEL 2
REMARK VINA RESULT:      -7.6      2.132      2.524
REMARK SMILES O=C(O)CCc1ccc2c(c1)OCO2
REMARK SMILES IDX 4 1 2 2 1 3 3 4 5 6 6 7 7 8 11 9 8 10 10 11 9 12 12 13 14 14
REMARK SMILES IDX 13 15
REMARK H PARENT 3 5
REMARK Flexibility Score: inf
ROOT
ATOM      1  C   UNL     1       4.721   1.876   0.689  1.00  0.00     0.127 C 
ENDROOT
BRANCH   1   2
ATOM      2  C   UNL     1       4.409   1.162   1.918  1.00  0.00     0.303 C 
ATOM      3  O   UNL     1       5.133   0.329   2.466  1.00  0.00    -0.252 OA
BRANCH   2   4
ATOM      4  O   UNL     1       3.179   1.444   2.533  1.00  0.00    -0.481 OA
ATOM      5  H   UNL     1       3.213   2.056   3.334  1.00  0.00     0.296 HD
ENDBRANCH   2   4
ENDBRANCH   1   2
BRANCH   1   6
ATOM      6  C   UNL     1       6.149   2.230   0.547  1.00  0.00     0.047 C 
BRANCH   6   7
ATOM      7  C   UNL     1       6.996   1.325  -0.232  1.00  0.00    -0.043 A 
ATOM      8  C   UNL     1       8.355   1.555  -0.384  1.00  0.00     0.008 A 
ATOM      9  C   UNL     1       6.459   0.238  -0.870  1.00  0.00     0.054 A 
ATOM     10  C   UNL     1       9.146   0.724  -1.146  1.00  0.00     0.051 A 
ATOM     11  C   UNL     1       7.234  -0.610  -1.639  1.00  0.00     0.166 A 
ATOM     12  C   UNL     1       8.579  -0.370  -1.780  1.00  0.00     0.165 A 
ATOM     13  O   UNL     1       6.913  -1.747  -2.360  1.00  0.00    -0.454 OA
ATOM     14  O   UNL     1       9.085  -1.379  -2.601  1.00  0.00    -0.454 OA
ATOM     15  C   UNL     1       8.018  -2.058  -3.222  1.00  0.00     0.468 C 
ENDBRANCH   6   7
ENDBRANCH   1   6
TORSDOF 4
ENDMDL
MODEL 3
REMARK VINA RESULT:      -7.4      1.789      5.281
REMARK SMILES O=C(O)CCc1ccc2c(c1)OCO2
REMARK SMILES IDX 4 1 2 2 1 3 3 4 5 6 6 7 7 8 11 9 8 10 10 11 9 12 12 13 14 14
REMARK SMILES IDX 13 15
REMARK H PARENT 3 5
REMARK Flexibility Score: inf
ROOT
ATOM      1  C   UNL     1       8.309  -0.324  -2.846  1.00  0.00     0.127 C 
ENDROOT
BRANCH   1   2
ATOM      2  C   UNL     1       8.469  -1.752  -3.067  1.00  0.00     0.303 C 
ATOM      3  O   UNL     1       9.535  -2.369  -3.030  1.00  0.00    -0.252 OA
BRANCH   2   4
ATOM      4  O   UNL     1       7.311  -2.494  -3.347  1.00  0.00    -0.481 OA
ATOM      5  H   UNL     1       6.758  -2.773  -2.551  1.00  0.00     0.296 HD
ENDBRANCH   2   4
ENDBRANCH   1   2
BRANCH   1   6
ATOM      6  C   UNL     1       8.761   0.132  -1.514  1.00  0.00     0.047 C 
BRANCH   6   7
ATOM      7  C   UNL     1       7.788   0.097  -0.420  1.00  0.00    -0.043 A 
ATOM      8  C   UNL     1       7.730  -0.968   0.466  1.00  0.00     0.008 A 
ATOM      9  C   UNL     1       6.875   1.106  -0.264  1.00  0.00     0.054 A 
ATOM     10  C   UNL     1       6.792  -1.018   1.473  1.00  0.00     0.051 A 
ATOM     11  C   UNL     1       5.925   1.077   0.740  1.00  0.00     0.166 A 
ATOM     12  C   UNL     1       5.880   0.015   1.611  1.00  0.00     0.165 A 
ATOM     13  O   UNL     1       4.922   1.967   1.082  1.00  0.00    -0.454 OA
ATOM     14  O   UNL     1       4.831   0.266   2.498  1.00  0.00    -0.454 OA
ATOM     15  C   UNL     1       4.031   1.311   1.996  1.00  0.00     0.468 C 
ENDBRANCH   6   7
ENDBRANCH   1   6
TORSDOF 4
ENDMDL
MODEL 4
REMARK VINA RESULT:      -7.4      1.954      2.856
REMARK SMILES O=C(O)CCc1ccc2c(c1)OCO2
REMARK SMILES IDX 4 1 2 2 1 3 3 4 5 6 6 7 7 8 11 9 8 10 10 11 9 12 12 13 14 14
REMARK SMILES IDX 13 15
REMARK H PARENT 3 5
REMARK Flexibility Score: inf
ROOT
ATOM      1  C   UNL     1       6.464   1.342   0.719  1.00  0.00     0.127 C 
ENDROOT
BRANCH   1   2
ATOM      2  C   UNL     1       5.219   1.332   1.471  1.00  0.00     0.303 C 
ATOM      3  O   UNL     1       4.289   2.128   1.329  1.00  0.00    -0.252 OA
BRANCH   2   4
ATOM      4  O   UNL     1       5.060   0.330   2.441  1.00  0.00    -0.481 OA
ATOM      5  H   UNL     1       5.860  -0.261   2.606  1.00  0.00     0.296 HD
ENDBRANCH   2   4
ENDBRANCH   1   2
BRANCH   1   6
ATOM      6  C   UNL     1       6.314   0.945  -0.697  1.00  0.00     0.047 C 
BRANCH   6   7
ATOM      7  C   UNL     1       7.034  -0.249  -1.145  1.00  0.00    -0.043 A 
ATOM      8  C   UNL     1       7.303  -0.472  -2.487  1.00  0.00     0.008 A 
ATOM      9  C   UNL     1       7.431  -1.205  -0.249  1.00  0.00     0.054 A 
ATOM     10  C   UNL     1       7.948  -1.611  -2.914  1.00  0.00     0.051 A 
ATOM     11  C   UNL     1       8.081  -2.356  -0.654  1.00  0.00     0.166 A 
ATOM     12  C   UNL     1       8.342  -2.563  -1.987  1.00  0.00     0.165 A 
ATOM     13  O   UNL     1       8.566  -3.437   0.061  1.00  0.00    -0.454 OA
ATOM     14  O   UNL     1       8.996  -3.792  -2.083  1.00  0.00    -0.454 OA
ATOM     15  C   UNL     1       8.866  -4.491  -0.867  1.00  0.00     0.468 C 
ENDBRANCH   6   7
ENDBRANCH   1   6
TORSDOF 4
ENDMDL
MODEL 5
REMARK VINA RESULT:      -7.4      0.938      2.105
REMARK SMILES O=C(O)CCc1ccc2c(c1)OCO2
REMARK SMILES IDX 4 1 2 2 1 3 3 4 5 6 6 7 7 8 11 9 8 10 10 11 9 12 12 13 14 14
REMARK SMILES IDX 13 15
REMARK H PARENT 3 5
REMARK Flexibility Score: inf
ROOT
ATOM      1  C   UNL     1       5.378   2.839   0.075  1.00  0.00     0.127 C 
ENDROOT
BRANCH   1   2
ATOM      2  C   UNL     1       6.104   3.855   0.821  1.00  0.00     0.303 C 
ATOM      3  O   UNL     1       6.109   3.978   2.047  1.00  0.00    -0.252 OA
BRANCH   2   4
ATOM      4  O   UNL     1       6.865   4.775   0.083  1.00  0.00    -0.481 OA
ATOM      5  H   UNL     1       7.383   4.400  -0.697  1.00  0.00     0.296 HD
ENDBRANCH   2   4
ENDBRANCH   1   2
BRANCH   1   6
ATOM      6  C   UNL     1       5.379   1.507   0.718  1.00  0.00     0.047 C 
BRANCH   6   7
ATOM      7  C   UNL     1       6.227   0.471   0.125  1.00  0.00    -0.043 A 
ATOM      8  C   UNL     1       6.540   0.475  -1.226  1.00  0.00     0.008 A 
ATOM      9  C   UNL     1       6.706  -0.562   0.886  1.00  0.00     0.054 A 
ATOM     10  C   UNL     1       7.307  -0.519  -1.792  1.00  0.00     0.051 A 
ATOM     11  C   UNL     1       7.478  -1.570   0.340  1.00  0.00     0.166 A 
ATOM     12  C   UNL     1       7.781  -1.552  -1.000  1.00  0.00     0.165 A 
ATOM     13  O   UNL     1       8.060  -2.691   0.906  1.00  0.00    -0.454 OA
ATOM     14  O   UNL     1       8.561  -2.682  -1.252  1.00  0.00    -0.454 OA
ATOM     15  C   UNL     1       8.483  -3.562  -0.154  1.00  0.00     0.468 C 
ENDBRANCH   6   7
ENDBRANCH   1   6
TORSDOF 4
ENDMDL
