@<TRIPOS>MOLECULE
/home/cewinharhar/GITHUB/reincatalyze/data/processed/docking_pred/2023-May-17-1006_maxeplen10_maxtrainstep1000_seadep16_gamma099_lrac9e-4_lrcr1e-3_sub6/a991e05863b38587be5f018959c733685726fb49_ligand_6.pdbqt
 15 16 0 0 0
SMALL
GASTEIGER

@<TRIPOS>ATOM
      1  C          8.3090   -0.3240   -2.8460 C.3     1  UNL1        0.1270
      2  C          8.4690   -1.7520   -3.0670 C.2     1  UNL1        0.3030
      3  O          9.5350   -2.3690   -3.0300 O.2     1  UNL1       -0.2520
      4  O          7.3110   -2.4940   -3.3470 O.3     1  UNL1       -0.4810
      5  H          6.7580   -2.7730   -2.5510 H       1  UNL1        0.2960
      6  C          8.7610    0.1320   -1.5140 C.3     1  UNL1        0.0470
      7  C          7.7880    0.0970   -0.4200 C.2     1  UNL1       -0.0430
      8  C          7.7300   -0.9680    0.4660 C.2     1  UNL1        0.0080
      9  C          6.8750    1.1060   -0.2640 C.2     1  UNL1        0.0540
     10  C          6.7920   -1.0180    1.4730 C.2     1  UNL1        0.0510
     11  C          5.9250    1.0770    0.7400 C.2     1  UNL1        0.1660
     12  C          5.8800    0.0150    1.6110 C.2     1  UNL1        0.1650
     13  O          4.9220    1.9670    1.0820 O.2     1  UNL1       -0.4540
     14  O          4.8310    0.2660    2.4980 O.2     1  UNL1       -0.4540
     15  C          4.0310    1.3110    1.9960 C.3     1  UNL1        0.4680
@<TRIPOS>BOND
     1     4     2    1
     2     4     5    1
     3     2     3    2
     4     2     1    1
     5     1     6    1
     6     6     7    1
     7     7     9    2
     8     7     8    1
     9     9    11    1
    10     8    10    2
    11    11    13    1
    12    11    12    2
    13    13    15    1
    14    10    12    1
    15    12    14    1
    16    15    14    1
