@<TRIPOS>MOLECULE
/home/cewinharhar/GITHUB/reincatalyze/data/processed/docking_pred/2023-May-17-1006_maxeplen10_maxtrainstep1000_seadep16_gamma099_lrac9e-4_lrcr1e-3_sub6/a991e05863b38587be5f018959c733685726fb49_ligand_6.pdbqt
 15 16 0 0 0
SMALL
GASTEIGER

@<TRIPOS>ATOM
      1  C          4.7210    1.8760    0.6890 C.3     1  UNL1        0.1270
      2  C          4.4090    1.1620    1.9180 C.2     1  UNL1        0.3030
      3  O          5.1330    0.3290    2.4660 O.2     1  UNL1       -0.2520
      4  O          3.1790    1.4440    2.5330 O.3     1  UNL1       -0.4810
      5  H          3.2130    2.0560    3.3340 H       1  UNL1        0.2960
      6  C          6.1490    2.2300    0.5470 C.3     1  UNL1        0.0470
      7  C          6.9960    1.3250   -0.2320 C.2     1  UNL1       -0.0430
      8  C          8.3550    1.5550   -0.3840 C.2     1  UNL1        0.0080
      9  C          6.4590    0.2380   -0.8700 C.2     1  UNL1        0.0540
     10  C          9.1460    0.7240   -1.1460 C.2     1  UNL1        0.0510
     11  C          7.2340   -0.6100   -1.6390 C.2     1  UNL1        0.1660
     12  C          8.5790   -0.3700   -1.7800 C.2     1  UNL1        0.1650
     13  O          6.9130   -1.7470   -2.3600 O.2     1  UNL1       -0.4540
     14  O          9.0850   -1.3790   -2.6010 O.2     1  UNL1       -0.4540
     15  C          8.0180   -2.0580   -3.2220 C.3     1  UNL1        0.4680
@<TRIPOS>BOND
     1    15    14    1
     2    15    13    1
     3    14    12    1
     4    13    11    1
     5    12    11    2
     6    12    10    1
     7    11     9    1
     8    10     8    2
     9     9     7    2
    10     8     7    1
    11     7     6    1
    12     6     1    1
    13     1     2    1
    14     2     3    2
    15     2     4    1
    16     4     5    1
