@<TRIPOS>MOLECULE
/home/cewinharhar/GITHUB/reincatalyze/data/processed/docking_pred/2023-May-17-1006_maxeplen10_maxtrainstep1000_seadep16_gamma099_lrac9e-4_lrcr1e-3_sub6/a9d08a951453574d65a810177cdd831b7fbb923c_ligand_6.pdbqt
 15 16 0 0 0
SMALL
GASTEIGER

@<TRIPOS>ATOM
      1  C          4.6960    1.8400    0.6820 C.3     1  UNL1        0.1270
      2  C          4.4060    1.1360    1.9220 C.2     1  UNL1        0.3030
      3  O          5.1420    0.3130    2.4680 O.2     1  UNL1       -0.2520
      4  O          3.1830    1.4160    2.5510 O.3     1  UNL1       -0.4810
      5  H          2.9930    2.3880    2.7420 H       1  UNL1        0.2960
      6  C          6.1170    2.2150    0.5240 C.3     1  UNL1        0.0470
      7  C          6.9750    1.3090   -0.2430 C.2     1  UNL1       -0.0430
      8  C          8.3380    1.5320   -0.3650 C.2     1  UNL1        0.0080
      9  C          6.4450    0.2300   -0.8990 C.2     1  UNL1        0.0540
     10  C          9.1400    0.7010   -1.1160 C.2     1  UNL1        0.0510
     11  C          7.2300   -0.6170   -1.6580 C.2     1  UNL1        0.1660
     12  C          8.5800   -0.3850   -1.7680 C.2     1  UNL1        0.1650
     13  O          6.9180   -1.7470   -2.3930 O.2     1  UNL1       -0.4540
     14  O          9.0960   -1.3920   -2.5860 O.2     1  UNL1       -0.4540
     15  C          8.0390   -2.0600   -3.2340 C.3     1  UNL1        0.4680
@<TRIPOS>BOND
     1    15    14    1
     2    15    13    1
     3    14    12    1
     4    13    11    1
     5    12    11    2
     6    12    10    1
     7    11     9    1
     8    10     8    2
     9     9     7    2
    10     8     7    1
    11     7     6    1
    12     6     1    1
    13     1     2    1
    14     2     3    2
    15     2     4    1
    16     4     5    1
