@<TRIPOS>MOLECULE
/home/cewinharhar/GITHUB/reincatalyze/data/processed/docking_pred/2023-May-17-1006_maxeplen10_maxtrainstep1000_seadep16_gamma099_lrac9e-4_lrcr1e-3_sub6/a9d08a951453574d65a810177cdd831b7fbb923c_ligand_6.pdbqt
 15 16 0 0 0
SMALL
GASTEIGER

@<TRIPOS>ATOM
      1  C          5.4130    2.8740    0.1590 C.3     1  UNL1        0.1270
      2  C          6.2680    3.8370    0.8360 C.2     1  UNL1        0.3030
      3  O          6.8590    4.7750    0.2970 O.2     1  UNL1       -0.2520
      4  O          6.4360    3.6880    2.2210 O.3     1  UNL1       -0.4810
      5  H          6.6000    2.7490    2.5510 H       1  UNL1        0.2960
      6  C          5.3340    1.5620    0.8360 C.3     1  UNL1        0.0470
      7  C          6.1110    0.4590    0.2670 C.2     1  UNL1       -0.0430
      8  C          6.5140   -0.6180    1.0410 C.2     1  UNL1        0.0080
      9  C          6.4960    0.4780   -1.0470 C.2     1  UNL1        0.0540
     10  C          7.2750   -1.6390    0.5160 C.2     1  UNL1        0.0510
     11  C          7.2590   -0.5350   -1.5960 C.2     1  UNL1        0.1660
     12  C          7.6510   -1.5970   -0.8170 C.2     1  UNL1        0.1650
     13  O          7.7550   -0.7230   -2.8740 O.2     1  UNL1       -0.4540
     14  O          8.3980   -2.4440   -1.6370 O.2     1  UNL1       -0.4540
     15  C          8.7360   -1.7690   -2.8270 C.3     1  UNL1        0.4680
@<TRIPOS>BOND
     1    13    15    1
     2    13    11    1
     3    15    14    1
     4    14    12    1
     5    11     9    1
     6    11    12    2
     7     9     7    2
     8    12    10    1
     9     1     2    1
    10     1     6    1
    11     7     6    1
    12     7     8    1
    13     3     2    2
    14    10     8    2
    15     2     4    1
    16     4     5    1
