@<TRIPOS>MOLECULE
/home/cewinharhar/GITHUB/reincatalyze/data/processed/docking_pred/2023-May-17-1006_maxeplen10_maxtrainstep1000_seadep16_gamma099_lrac9e-4_lrcr1e-3_sub6/a9d08a951453574d65a810177cdd831b7fbb923c_ligand_6.pdbqt
 15 16 0 0 0
SMALL
GASTEIGER

@<TRIPOS>ATOM
      1  C          5.5600    2.6830    0.2500 C.3     1  UNL1        0.1270
      2  C          6.2250    3.7540    0.9750 C.2     1  UNL1        0.3030
      3  O          6.2530    3.8810    2.2010 O.2     1  UNL1       -0.2520
      4  O          6.8930    4.7280    0.2170 O.3     1  UNL1       -0.4810
      5  H          6.6250    5.6850    0.3860 H       1  UNL1        0.2960
      6  C          5.6700    1.3590    0.9000 C.3     1  UNL1        0.0470
      7  C          6.4040    0.3130    0.1860 C.2     1  UNL1       -0.0430
      8  C          6.4170    0.2520   -1.1990 C.2     1  UNL1        0.0080
      9  C          7.0730   -0.6660    0.8730 C.2     1  UNL1        0.0540
     10  C          7.0770   -0.7530   -1.8710 C.2     1  UNL1        0.0510
     11  C          7.7430   -1.6830    0.2200 C.2     1  UNL1        0.1660
     12  C          7.7480   -1.7300   -1.1540 C.2     1  UNL1        0.1650
     13  O          8.4730   -2.7580    0.6970 O.2     1  UNL1       -0.4540
     14  O          8.4930   -2.8530   -1.5160 O.2     1  UNL1       -0.4540
     15  C          8.6860   -3.6740   -0.3870 C.3     1  UNL1        0.4680
@<TRIPOS>BOND
     1    10     8    1
     2    10    12    2
     3    14    12    1
     4    14    15    1
     5     8     7    2
     6    12    11    1
     7    15    13    1
     8     7     9    1
     9     7     6    1
    10     4     5    1
    11     4     2    1
    12    11    13    1
    13    11     9    2
    14     1     6    1
    15     1     2    1
    16     2     3    2
