MODEL 1
REMARK VINA RESULT:      -7.6      0.000      0.000
REMARK SMILES O=C(O)CCc1ccc2c(c1)OCO2
REMARK SMILES IDX 4 1 2 2 1 3 3 4 5 6 6 7 7 8 11 9 8 10 10 11 9 12 12 13 14 14
REMARK SMILES IDX 13 15
REMARK H PARENT 3 5
REMARK Flexibility Score: inf
ROOT
ATOM      1  C   UNL     1       5.413   2.874   0.159  1.00  0.00     0.127 C 
ENDROOT
BRANCH   1   2
ATOM      2  C   UNL     1       6.268   3.837   0.836  1.00  0.00     0.303 C 
ATOM      3  O   UNL     1       6.859   4.775   0.297  1.00  0.00    -0.252 OA
BRANCH   2   4
ATOM      4  O   UNL     1       6.436   3.688   2.221  1.00  0.00    -0.481 OA
ATOM      5  H   UNL     1       6.600   2.749   2.551  1.00  0.00     0.296 HD
ENDBRANCH   2   4
ENDBRANCH   1   2
BRANCH   1   6
ATOM      6  C   UNL     1       5.334   1.562   0.836  1.00  0.00     0.047 C 
BRANCH   6   7
ATOM      7  C   UNL     1       6.111   0.459   0.267  1.00  0.00    -0.043 A 
ATOM      8  C   UNL     1       6.514  -0.618   1.041  1.00  0.00     0.008 A 
ATOM      9  C   UNL     1       6.496   0.478  -1.047  1.00  0.00     0.054 A 
ATOM     10  C   UNL     1       7.275  -1.639   0.516  1.00  0.00     0.051 A 
ATOM     11  C   UNL     1       7.259  -0.535  -1.596  1.00  0.00     0.166 A 
ATOM     12  C   UNL     1       7.651  -1.597  -0.817  1.00  0.00     0.165 A 
ATOM     13  O   UNL     1       7.755  -0.723  -2.874  1.00  0.00    -0.454 OA
ATOM     14  O   UNL     1       8.398  -2.444  -1.637  1.00  0.00    -0.454 OA
ATOM     15  C   UNL     1       8.736  -1.769  -2.827  1.00  0.00     0.468 C 
ENDBRANCH   6   7
ENDBRANCH   1   6
TORSDOF 4
ENDMDL
MODEL 2
REMARK VINA RESULT:      -7.6      2.137      2.538
REMARK SMILES O=C(O)CCc1ccc2c(c1)OCO2
REMARK SMILES IDX 4 1 2 2 1 3 3 4 5 6 6 7 7 8 11 9 8 10 10 11 9 12 12 13 14 14
REMARK SMILES IDX 13 15
REMARK H PARENT 3 5
REMARK Flexibility Score: inf
ROOT
ATOM      1  C   UNL     1       4.696   1.840   0.682  1.00  0.00     0.127 C 
ENDROOT
BRANCH   1   2
ATOM      2  C   UNL     1       4.406   1.136   1.922  1.00  0.00     0.303 C 
ATOM      3  O   UNL     1       5.142   0.313   2.468  1.00  0.00    -0.252 OA
BRANCH   2   4
ATOM      4  O   UNL     1       3.183   1.416   2.551  1.00  0.00    -0.481 OA
ATOM      5  H   UNL     1       2.993   2.388   2.742  1.00  0.00     0.296 HD
ENDBRANCH   2   4
ENDBRANCH   1   2
BRANCH   1   6
ATOM      6  C   UNL     1       6.117   2.215   0.524  1.00  0.00     0.047 C 
BRANCH   6   7
ATOM      7  C   UNL     1       6.975   1.309  -0.243  1.00  0.00    -0.043 A 
ATOM      8  C   UNL     1       8.338   1.532  -0.365  1.00  0.00     0.008 A 
ATOM      9  C   UNL     1       6.445   0.230  -0.899  1.00  0.00     0.054 A 
ATOM     10  C   UNL     1       9.140   0.701  -1.116  1.00  0.00     0.051 A 
ATOM     11  C   UNL     1       7.230  -0.617  -1.658  1.00  0.00     0.166 A 
ATOM     12  C   UNL     1       8.580  -0.385  -1.768  1.00  0.00     0.165 A 
ATOM     13  O   UNL     1       6.918  -1.747  -2.393  1.00  0.00    -0.454 OA
ATOM     14  O   UNL     1       9.096  -1.392  -2.586  1.00  0.00    -0.454 OA
ATOM     15  C   UNL     1       8.039  -2.060  -3.234  1.00  0.00     0.468 C 
ENDBRANCH   6   7
ENDBRANCH   1   6
TORSDOF 4
ENDMDL
MODEL 3
REMARK VINA RESULT:      -7.5      1.805      5.256
REMARK SMILES O=C(O)CCc1ccc2c(c1)OCO2
REMARK SMILES IDX 4 1 2 2 1 3 3 4 5 6 6 7 7 8 11 9 8 10 10 11 9 12 12 13 14 14
REMARK SMILES IDX 13 15
REMARK H PARENT 3 5
REMARK Flexibility Score: inf
ROOT
ATOM      1  C   UNL     1       8.228  -0.208  -2.849  1.00  0.00     0.127 C 
ENDROOT
BRANCH   1   2
ATOM      2  C   UNL     1       8.471  -1.629  -3.039  1.00  0.00     0.303 C 
ATOM      3  O   UNL     1       9.559  -2.195  -2.909  1.00  0.00    -0.252 OA
BRANCH   2   4
ATOM      4  O   UNL     1       7.376  -2.428  -3.403  1.00  0.00    -0.481 OA
ATOM      5  H   UNL     1       7.425  -2.865  -4.310  1.00  0.00     0.296 HD
ENDBRANCH   2   4
ENDBRANCH   1   2
BRANCH   1   6
ATOM      6  C   UNL     1       8.681   0.308  -1.540  1.00  0.00     0.047 C 
BRANCH   6   7
ATOM      7  C   UNL     1       7.734   0.248  -0.424  1.00  0.00    -0.043 A 
ATOM      8  C   UNL     1       7.766  -0.787   0.498  1.00  0.00     0.008 A 
ATOM      9  C   UNL     1       6.758   1.198  -0.281  1.00  0.00     0.054 A 
ATOM     10  C   UNL     1       6.854  -0.865   1.527  1.00  0.00     0.051 A 
ATOM     11  C   UNL     1       5.833   1.141   0.744  1.00  0.00     0.166 A 
ATOM     12  C   UNL     1       5.877   0.110   1.651  1.00  0.00     0.165 A 
ATOM     13  O   UNL     1       4.780   1.974   1.078  1.00  0.00    -0.454 OA
ATOM     14  O   UNL     1       4.832   0.321   2.552  1.00  0.00    -0.454 OA
ATOM     15  C   UNL     1       3.953   1.292   2.034  1.00  0.00     0.468 C 
ENDBRANCH   6   7
ENDBRANCH   1   6
TORSDOF 4
ENDMDL
MODEL 4
REMARK VINA RESULT:      -7.5      1.947      2.851
REMARK SMILES O=C(O)CCc1ccc2c(c1)OCO2
REMARK SMILES IDX 4 1 2 2 1 3 3 4 5 6 6 7 7 8 11 9 8 10 10 11 9 12 12 13 14 14
REMARK SMILES IDX 13 15
REMARK H PARENT 3 5
REMARK Flexibility Score: inf
ROOT
ATOM      1  C   UNL     1       6.417   1.408   0.571  1.00  0.00     0.127 C 
ENDROOT
BRANCH   1   2
ATOM      2  C   UNL     1       5.226   1.391   1.405  1.00  0.00     0.303 C 
ATOM      3  O   UNL     1       4.268   2.160   1.303  1.00  0.00    -0.252 OA
BRANCH   2   4
ATOM      4  O   UNL     1       5.158   0.416   2.413  1.00  0.00    -0.481 OA
ATOM      5  H   UNL     1       4.905  -0.514   2.117  1.00  0.00     0.296 HD
ENDBRANCH   2   4
ENDBRANCH   1   2
BRANCH   1   6
ATOM      6  C   UNL     1       6.204   0.874  -0.792  1.00  0.00     0.047 C 
BRANCH   6   7
ATOM      7  C   UNL     1       6.965  -0.315  -1.180  1.00  0.00    -0.043 A 
ATOM      8  C   UNL     1       7.283  -0.570  -2.505  1.00  0.00     0.008 A 
ATOM      9  C   UNL     1       7.354  -1.234  -0.243  1.00  0.00     0.054 A 
ATOM     10  C   UNL     1       7.968  -1.706  -2.876  1.00  0.00     0.051 A 
ATOM     11  C   UNL     1       8.043  -2.381  -0.592  1.00  0.00     0.166 A 
ATOM     12  C   UNL     1       8.352  -2.621  -1.909  1.00  0.00     0.165 A 
ATOM     13  O   UNL     1       8.528  -3.429   0.170  1.00  0.00    -0.454 OA
ATOM     14  O   UNL     1       9.037  -3.836  -1.947  1.00  0.00    -0.454 OA
ATOM     15  C   UNL     1       8.883  -4.502  -0.715  1.00  0.00     0.468 C 
ENDBRANCH   6   7
ENDBRANCH   1   6
TORSDOF 4
ENDMDL
MODEL 5
REMARK VINA RESULT:      -7.4      0.956      2.075
REMARK SMILES O=C(O)CCc1ccc2c(c1)OCO2
REMARK SMILES IDX 4 1 2 2 1 3 3 4 5 6 6 7 7 8 11 9 8 10 10 11 9 12 12 13 14 14
REMARK SMILES IDX 13 15
REMARK H PARENT 3 5
REMARK Flexibility Score: inf
ROOT
ATOM      1  C   UNL     1       5.560   2.683   0.250  1.00  0.00     0.127 C 
ENDROOT
BRANCH   1   2
ATOM      2  C   UNL     1       6.225   3.754   0.975  1.00  0.00     0.303 C 
ATOM      3  O   UNL     1       6.253   3.881   2.201  1.00  0.00    -0.252 OA
BRANCH   2   4
ATOM      4  O   UNL     1       6.893   4.728   0.217  1.00  0.00    -0.481 OA
ATOM      5  H   UNL     1       6.625   5.685   0.386  1.00  0.00     0.296 HD
ENDBRANCH   2   4
ENDBRANCH   1   2
BRANCH   1   6
ATOM      6  C   UNL     1       5.670   1.359   0.900  1.00  0.00     0.047 C 
BRANCH   6   7
ATOM      7  C   UNL     1       6.404   0.313   0.186  1.00  0.00    -0.043 A 
ATOM      8  C   UNL     1       6.417   0.252  -1.199  1.00  0.00     0.008 A 
ATOM      9  C   UNL     1       7.073  -0.666   0.873  1.00  0.00     0.054 A 
ATOM     10  C   UNL     1       7.077  -0.753  -1.871  1.00  0.00     0.051 A 
ATOM     11  C   UNL     1       7.743  -1.683   0.220  1.00  0.00     0.166 A 
ATOM     12  C   UNL     1       7.748  -1.730  -1.154  1.00  0.00     0.165 A 
ATOM     13  O   UNL     1       8.473  -2.758   0.697  1.00  0.00    -0.454 OA
ATOM     14  O   UNL     1       8.493  -2.853  -1.516  1.00  0.00    -0.454 OA
ATOM     15  C   UNL     1       8.686  -3.674  -0.387  1.00  0.00     0.468 C 
ENDBRANCH   6   7
ENDBRANCH   1   6
TORSDOF 4
ENDMDL
