@<TRIPOS>MOLECULE
/home/cewinharhar/GITHUB/reincatalyze/data/processed/docking_pred/2023-May-17-1006_maxeplen10_maxtrainstep1000_seadep16_gamma099_lrac9e-4_lrcr1e-3_sub6/a9d08a951453574d65a810177cdd831b7fbb923c_ligand_6.pdbqt
 15 16 0 0 0
SMALL
GASTEIGER

@<TRIPOS>ATOM
      1  C          8.2280   -0.2080   -2.8490 C.3     1  UNL1        0.1270
      2  C          8.4710   -1.6290   -3.0390 C.2     1  UNL1        0.3030
      3  O          9.5590   -2.1950   -2.9090 O.2     1  UNL1       -0.2520
      4  O          7.3760   -2.4280   -3.4030 O.3     1  UNL1       -0.4810
      5  H          7.4250   -2.8650   -4.3100 H       1  UNL1        0.2960
      6  C          8.6810    0.3080   -1.5400 C.3     1  UNL1        0.0470
      7  C          7.7340    0.2480   -0.4240 C.2     1  UNL1       -0.0430
      8  C          7.7660   -0.7870    0.4980 C.2     1  UNL1        0.0080
      9  C          6.7580    1.1980   -0.2810 C.2     1  UNL1        0.0540
     10  C          6.8540   -0.8650    1.5270 C.2     1  UNL1        0.0510
     11  C          5.8330    1.1410    0.7440 C.2     1  UNL1        0.1660
     12  C          5.8770    0.1100    1.6510 C.2     1  UNL1        0.1650
     13  O          4.7800    1.9740    1.0780 O.2     1  UNL1       -0.4540
     14  O          4.8320    0.3210    2.5520 O.2     1  UNL1       -0.4540
     15  C          3.9530    1.2920    2.0340 C.3     1  UNL1        0.4680
@<TRIPOS>BOND
     1     5     4    1
     2     4     2    1
     3     2     3    2
     4     2     1    1
     5     1     6    1
     6     6     7    1
     7     7     9    2
     8     7     8    1
     9     9    11    1
    10     8    10    2
    11    11    13    1
    12    11    12    2
    13    13    15    1
    14    10    12    1
    15    12    14    1
    16    15    14    1
