@<TRIPOS>MOLECULE
/home/cewinharhar/GITHUB/reincatalyze/data/processed/docking_pred/2023-May-17-1006_maxeplen10_maxtrainstep1000_seadep16_gamma099_lrac9e-4_lrcr1e-3_sub6/a9d08a951453574d65a810177cdd831b7fbb923c_ligand_6.pdbqt
 15 16 0 0 0
SMALL
GASTEIGER

@<TRIPOS>ATOM
      1  C          6.4170    1.4080    0.5710 C.3     1  UNL1        0.1270
      2  C          5.2260    1.3910    1.4050 C.2     1  UNL1        0.3030
      3  O          4.2680    2.1600    1.3030 O.2     1  UNL1       -0.2520
      4  O          5.1580    0.4160    2.4130 O.3     1  UNL1       -0.4810
      5  H          4.9050   -0.5140    2.1170 H       1  UNL1        0.2960
      6  C          6.2040    0.8740   -0.7920 C.3     1  UNL1        0.0470
      7  C          6.9650   -0.3150   -1.1800 C.2     1  UNL1       -0.0430
      8  C          7.2830   -0.5700   -2.5050 C.2     1  UNL1        0.0080
      9  C          7.3540   -1.2340   -0.2430 C.2     1  UNL1        0.0540
     10  C          7.9680   -1.7060   -2.8760 C.2     1  UNL1        0.0510
     11  C          8.0430   -2.3810   -0.5920 C.2     1  UNL1        0.1660
     12  C          8.3520   -2.6210   -1.9090 C.2     1  UNL1        0.1650
     13  O          8.5280   -3.4290    0.1700 O.2     1  UNL1       -0.4540
     14  O          9.0370   -3.8360   -1.9470 O.2     1  UNL1       -0.4540
     15  C          8.8830   -4.5020   -0.7150 C.3     1  UNL1        0.4680
@<TRIPOS>BOND
     1    10     8    1
     2    10    12    2
     3     8     7    2
     4    14    12    1
     5    14    15    1
     6    12    11    1
     7     7     6    1
     8     7     9    1
     9     6     1    1
    10    15    13    1
    11    11     9    2
    12    11    13    1
    13     1     2    1
    14     3     2    2
    15     2     4    1
    16     5     4    1
