@<TRIPOS>MOLECULE
/home/cewinharhar/GITHUB/reincatalyze/data/processed/docking_pred/2023-May-17-1006_maxeplen10_maxtrainstep1000_seadep16_gamma099_lrac9e-4_lrcr1e-3_sub6/ab317eb7565d030be4138c7249420e244018cf00_ligand_6.pdbqt
 15 16 0 0 0
SMALL
GASTEIGER

@<TRIPOS>ATOM
      1  C          4.6880    1.8610    0.7000 C.3     1  UNL1        0.1270
      2  C          4.4050    1.1360    1.9290 C.2     1  UNL1        0.3030
      3  O          5.1460    0.3080    2.4600 O.2     1  UNL1       -0.2520
      4  O          3.1820    1.4020    2.5650 O.3     1  UNL1       -0.4810
      5  H          3.1950    2.1200    3.2730 H       1  UNL1        0.2960
      6  C          6.1100    2.2320    0.5360 C.3     1  UNL1        0.0470
      7  C          6.9630    1.3230   -0.2330 C.2     1  UNL1       -0.0430
      8  C          8.3280    1.5380   -0.3540 C.2     1  UNL1        0.0080
      9  C          6.4270    0.2490   -0.8920 C.2     1  UNL1        0.0540
     10  C          9.1250    0.7050   -1.1060 C.2     1  UNL1        0.0510
     11  C          7.2080   -0.6010   -1.6530 C.2     1  UNL1        0.1660
     12  C          8.5590   -0.3760   -1.7620 C.2     1  UNL1        0.1650
     13  O          6.8890   -1.7270   -2.3910 O.2     1  UNL1       -0.4540
     14  O          9.0690   -1.3840   -2.5820 O.2     1  UNL1       -0.4540
     15  C          8.0080   -2.0440   -3.2330 C.3     1  UNL1        0.4680
@<TRIPOS>BOND
     1    15    14    1
     2    15    13    1
     3    14    12    1
     4    13    11    1
     5    12    11    2
     6    12    10    1
     7    11     9    1
     8    10     8    2
     9     9     7    2
    10     8     7    1
    11     7     6    1
    12     6     1    1
    13     1     2    1
    14     2     3    2
    15     2     4    1
    16     4     5    1
