@<TRIPOS>MOLECULE
/home/cewinharhar/GITHUB/reincatalyze/data/processed/docking_pred/2023-May-17-1006_maxeplen10_maxtrainstep1000_seadep16_gamma099_lrac9e-4_lrcr1e-3_sub6/ab317eb7565d030be4138c7249420e244018cf00_ligand_6.pdbqt
 15 16 0 0 0
SMALL
GASTEIGER

@<TRIPOS>ATOM
      1  C          5.7030    2.5510    0.2610 C.3     1  UNL1        0.1270
      2  C          6.2090    3.7290    0.9480 C.2     1  UNL1        0.3030
      3  O          6.1060    3.9550    2.1550 O.2     1  UNL1       -0.2520
      4  O          6.8720    4.6920    0.1720 O.3     1  UNL1       -0.4810
      5  H          7.0050    5.5950    0.6010 H       1  UNL1        0.2960
      6  C          5.9510    1.2830    0.9810 C.3     1  UNL1        0.0470
      7  C          6.6200    0.2070    0.2470 C.2     1  UNL1       -0.0430
      8  C          6.6170    0.1640   -1.1390 C.2     1  UNL1        0.0080
      9  C          7.2400   -0.8150    0.9140 C.2     1  UNL1        0.0540
     10  C          7.2150   -0.8660   -1.8300 C.2     1  UNL1        0.0510
     11  C          7.8470   -1.8590    0.2420 C.2     1  UNL1        0.1660
     12  C          7.8370   -1.8880   -1.1310 C.2     1  UNL1        0.1650
     13  O          8.5210   -2.9780    0.6990 O.2     1  UNL1       -0.4540
     14  O          8.5170   -3.0460   -1.5150 O.2     1  UNL1       -0.4540
     15  C          8.6740   -3.8900   -0.3980 C.3     1  UNL1        0.4680
@<TRIPOS>BOND
     1    10     8    1
     2    10    12    2
     3    14    12    1
     4    14    15    1
     5     8     7    2
     6    12    11    1
     7    15    13    1
     8     4     5    1
     9     4     2    1
    10    11    13    1
    11    11     9    2
    12     7     9    1
    13     7     6    1
    14     1     2    1
    15     1     6    1
    16     2     3    2
