MODEL 1
REMARK VINA RESULT:      -7.7      0.000      0.000
REMARK SMILES O=C(O)CCc1ccc2c(c1)OCO2
REMARK SMILES IDX 4 1 2 2 1 3 3 4 5 6 6 7 7 8 11 9 8 10 10 11 9 12 12 13 14 14
REMARK SMILES IDX 13 15
REMARK H PARENT 3 5
REMARK Flexibility Score: inf
ROOT
ATOM      1  C   UNL     1       5.421   2.879   0.107  1.00  0.00     0.127 C 
ENDROOT
BRANCH   1   2
ATOM      2  C   UNL     1       6.240   3.856   0.806  1.00  0.00     0.303 C 
ATOM      3  O   UNL     1       6.870   4.774   0.277  1.00  0.00    -0.252 OA
BRANCH   2   4
ATOM      4  O   UNL     1       6.323   3.747   2.203  1.00  0.00    -0.481 OA
ATOM      5  H   UNL     1       5.856   4.465   2.734  1.00  0.00     0.296 HD
ENDBRANCH   2   4
ENDBRANCH   1   2
BRANCH   1   6
ATOM      6  C   UNL     1       5.344   1.566   0.784  1.00  0.00     0.047 C 
BRANCH   6   7
ATOM      7  C   UNL     1       6.126   0.466   0.217  1.00  0.00    -0.043 A 
ATOM      8  C   UNL     1       6.588  -0.576   1.006  1.00  0.00     0.008 A 
ATOM      9  C   UNL     1       6.458   0.454  -1.112  1.00  0.00     0.054 A 
ATOM     10  C   UNL     1       7.355  -1.593   0.482  1.00  0.00     0.051 A 
ATOM     11  C   UNL     1       7.225  -0.556  -1.660  1.00  0.00     0.166 A 
ATOM     12  C   UNL     1       7.676  -1.583  -0.866  1.00  0.00     0.165 A 
ATOM     13  O   UNL     1       7.675  -0.771  -2.951  1.00  0.00    -0.454 OA
ATOM     14  O   UNL     1       8.412  -2.436  -1.689  1.00  0.00    -0.454 OA
ATOM     15  C   UNL     1       8.685  -1.791  -2.912  1.00  0.00     0.468 C 
ENDBRANCH   6   7
ENDBRANCH   1   6
TORSDOF 4
ENDMDL
MODEL 2
REMARK VINA RESULT:      -7.6      2.125      2.508
REMARK SMILES O=C(O)CCc1ccc2c(c1)OCO2
REMARK SMILES IDX 4 1 2 2 1 3 3 4 5 6 6 7 7 8 11 9 8 10 10 11 9 12 12 13 14 14
REMARK SMILES IDX 13 15
REMARK H PARENT 3 5
REMARK Flexibility Score: inf
ROOT
ATOM      1  C   UNL     1       4.688   1.861   0.700  1.00  0.00     0.127 C 
ENDROOT
BRANCH   1   2
ATOM      2  C   UNL     1       4.405   1.136   1.929  1.00  0.00     0.303 C 
ATOM      3  O   UNL     1       5.146   0.308   2.460  1.00  0.00    -0.252 OA
BRANCH   2   4
ATOM      4  O   UNL     1       3.182   1.402   2.565  1.00  0.00    -0.481 OA
ATOM      5  H   UNL     1       3.195   2.120   3.273  1.00  0.00     0.296 HD
ENDBRANCH   2   4
ENDBRANCH   1   2
BRANCH   1   6
ATOM      6  C   UNL     1       6.110   2.232   0.536  1.00  0.00     0.047 C 
BRANCH   6   7
ATOM      7  C   UNL     1       6.963   1.323  -0.233  1.00  0.00    -0.043 A 
ATOM      8  C   UNL     1       8.328   1.538  -0.354  1.00  0.00     0.008 A 
ATOM      9  C   UNL     1       6.427   0.249  -0.892  1.00  0.00     0.054 A 
ATOM     10  C   UNL     1       9.125   0.705  -1.106  1.00  0.00     0.051 A 
ATOM     11  C   UNL     1       7.208  -0.601  -1.653  1.00  0.00     0.166 A 
ATOM     12  C   UNL     1       8.559  -0.376  -1.762  1.00  0.00     0.165 A 
ATOM     13  O   UNL     1       6.889  -1.727  -2.391  1.00  0.00    -0.454 OA
ATOM     14  O   UNL     1       9.069  -1.384  -2.582  1.00  0.00    -0.454 OA
ATOM     15  C   UNL     1       8.008  -2.044  -3.233  1.00  0.00     0.468 C 
ENDBRANCH   6   7
ENDBRANCH   1   6
TORSDOF 4
ENDMDL
MODEL 3
REMARK VINA RESULT:      -7.5      1.958      2.862
REMARK SMILES O=C(O)CCc1ccc2c(c1)OCO2
REMARK SMILES IDX 4 1 2 2 1 3 3 4 5 6 6 7 7 8 11 9 8 10 10 11 9 12 12 13 14 14
REMARK SMILES IDX 13 15
REMARK H PARENT 3 5
REMARK Flexibility Score: inf
ROOT
ATOM      1  C   UNL     1       6.429   1.343   0.671  1.00  0.00     0.127 C 
ENDROOT
BRANCH   1   2
ATOM      2  C   UNL     1       5.199   1.359   1.447  1.00  0.00     0.303 C 
ATOM      3  O   UNL     1       4.267   2.152   1.297  1.00  0.00    -0.252 OA
BRANCH   2   4
ATOM      4  O   UNL     1       5.059   0.391   2.454  1.00  0.00    -0.481 OA
ATOM      5  H   UNL     1       5.899  -0.098   2.722  1.00  0.00     0.296 HD
ENDBRANCH   2   4
ENDBRANCH   1   2
BRANCH   1   6
ATOM      6  C   UNL     1       6.254   0.876  -0.721  1.00  0.00     0.047 C 
BRANCH   6   7
ATOM      7  C   UNL     1       7.002  -0.313  -1.135  1.00  0.00    -0.043 A 
ATOM      8  C   UNL     1       7.306  -0.550  -2.467  1.00  0.00     0.008 A 
ATOM      9  C   UNL     1       7.391  -1.251  -0.216  1.00  0.00     0.054 A 
ATOM     10  C   UNL     1       7.977  -1.686  -2.862  1.00  0.00     0.051 A 
ATOM     11  C   UNL     1       8.067  -2.398  -0.590  1.00  0.00     0.166 A 
ATOM     12  C   UNL     1       8.362  -2.619  -1.913  1.00  0.00     0.165 A 
ATOM     13  O   UNL     1       8.550  -3.462   0.151  1.00  0.00    -0.454 OA
ATOM     14  O   UNL     1       9.036  -3.840  -1.977  1.00  0.00    -0.454 OA
ATOM     15  C   UNL     1       8.887  -4.524  -0.755  1.00  0.00     0.468 C 
ENDBRANCH   6   7
ENDBRANCH   1   6
TORSDOF 4
ENDMDL
MODEL 4
REMARK VINA RESULT:      -7.4      1.792      5.289
REMARK SMILES O=C(O)CCc1ccc2c(c1)OCO2
REMARK SMILES IDX 4 1 2 2 1 3 3 4 5 6 6 7 7 8 11 9 8 10 10 11 9 12 12 13 14 14
REMARK SMILES IDX 13 15
REMARK H PARENT 3 5
REMARK Flexibility Score: inf
ROOT
ATOM      1  C   UNL     1       8.301  -0.319  -2.860  1.00  0.00     0.127 C 
ENDROOT
BRANCH   1   2
ATOM      2  C   UNL     1       8.468  -1.748  -3.074  1.00  0.00     0.303 C 
ATOM      3  O   UNL     1       9.537  -2.360  -3.032  1.00  0.00    -0.252 OA
BRANCH   2   4
ATOM      4  O   UNL     1       7.313  -2.497  -3.353  1.00  0.00    -0.481 OA
ATOM      5  H   UNL     1       7.369  -3.486  -3.168  1.00  0.00     0.296 HD
ENDBRANCH   2   4
ENDBRANCH   1   2
BRANCH   1   6
ATOM      6  C   UNL     1       8.755   0.146  -1.532  1.00  0.00     0.047 C 
BRANCH   6   7
ATOM      7  C   UNL     1       7.788   0.103  -0.433  1.00  0.00    -0.043 A 
ATOM      8  C   UNL     1       7.739  -0.965   0.449  1.00  0.00     0.008 A 
ATOM      9  C   UNL     1       6.871   1.108  -0.267  1.00  0.00     0.054 A 
ATOM     10  C   UNL     1       6.807  -1.023   1.461  1.00  0.00     0.051 A 
ATOM     11  C   UNL     1       5.927   1.071   0.741  1.00  0.00     0.166 A 
ATOM     12  C   UNL     1       5.891   0.006   1.609  1.00  0.00     0.165 A 
ATOM     13  O   UNL     1       4.922   1.956   1.092  1.00  0.00    -0.454 OA
ATOM     14  O   UNL     1       4.847   0.249   2.502  1.00  0.00    -0.454 OA
ATOM     15  C   UNL     1       4.039   1.292   2.009  1.00  0.00     0.468 C 
ENDBRANCH   6   7
ENDBRANCH   1   6
TORSDOF 4
ENDMDL
MODEL 5
REMARK VINA RESULT:      -7.4      1.049      2.146
REMARK SMILES O=C(O)CCc1ccc2c(c1)OCO2
REMARK SMILES IDX 4 1 2 2 1 3 3 4 5 6 6 7 7 8 11 9 8 10 10 11 9 12 12 13 14 14
REMARK SMILES IDX 13 15
REMARK H PARENT 3 5
REMARK Flexibility Score: inf
ROOT
ATOM      1  C   UNL     1       5.703   2.551   0.261  1.00  0.00     0.127 C 
ENDROOT
BRANCH   1   2
ATOM      2  C   UNL     1       6.209   3.729   0.948  1.00  0.00     0.303 C 
ATOM      3  O   UNL     1       6.106   3.955   2.155  1.00  0.00    -0.252 OA
BRANCH   2   4
ATOM      4  O   UNL     1       6.872   4.692   0.172  1.00  0.00    -0.481 OA
ATOM      5  H   UNL     1       7.005   5.595   0.601  1.00  0.00     0.296 HD
ENDBRANCH   2   4
ENDBRANCH   1   2
BRANCH   1   6
ATOM      6  C   UNL     1       5.951   1.283   0.981  1.00  0.00     0.047 C 
BRANCH   6   7
ATOM      7  C   UNL     1       6.620   0.207   0.247  1.00  0.00    -0.043 A 
ATOM      8  C   UNL     1       6.617   0.164  -1.139  1.00  0.00     0.008 A 
ATOM      9  C   UNL     1       7.240  -0.815   0.914  1.00  0.00     0.054 A 
ATOM     10  C   UNL     1       7.215  -0.866  -1.830  1.00  0.00     0.051 A 
ATOM     11  C   UNL     1       7.847  -1.859   0.242  1.00  0.00     0.166 A 
ATOM     12  C   UNL     1       7.837  -1.888  -1.131  1.00  0.00     0.165 A 
ATOM     13  O   UNL     1       8.521  -2.978   0.699  1.00  0.00    -0.454 OA
ATOM     14  O   UNL     1       8.517  -3.046  -1.515  1.00  0.00    -0.454 OA
ATOM     15  C   UNL     1       8.674  -3.890  -0.398  1.00  0.00     0.468 C 
ENDBRANCH   6   7
ENDBRANCH   1   6
TORSDOF 4
ENDMDL
