@<TRIPOS>MOLECULE
/home/cewinharhar/GITHUB/reincatalyze/data/processed/docking_pred/2023-May-17-1006_maxeplen10_maxtrainstep1000_seadep16_gamma099_lrac9e-4_lrcr1e-3_sub6/ab317eb7565d030be4138c7249420e244018cf00_ligand_6.pdbqt
 15 16 0 0 0
SMALL
GASTEIGER

@<TRIPOS>ATOM
      1  C          8.3010   -0.3190   -2.8600 C.3     1  UNL1        0.1270
      2  C          8.4680   -1.7480   -3.0740 C.2     1  UNL1        0.3030
      3  O          9.5370   -2.3600   -3.0320 O.2     1  UNL1       -0.2520
      4  O          7.3130   -2.4970   -3.3530 O.3     1  UNL1       -0.4810
      5  H          7.3690   -3.4860   -3.1680 H       1  UNL1        0.2960
      6  C          8.7550    0.1460   -1.5320 C.3     1  UNL1        0.0470
      7  C          7.7880    0.1030   -0.4330 C.2     1  UNL1       -0.0430
      8  C          7.7390   -0.9650    0.4490 C.2     1  UNL1        0.0080
      9  C          6.8710    1.1080   -0.2670 C.2     1  UNL1        0.0540
     10  C          6.8070   -1.0230    1.4610 C.2     1  UNL1        0.0510
     11  C          5.9270    1.0710    0.7410 C.2     1  UNL1        0.1660
     12  C          5.8910    0.0060    1.6090 C.2     1  UNL1        0.1650
     13  O          4.9220    1.9560    1.0920 O.2     1  UNL1       -0.4540
     14  O          4.8470    0.2490    2.5020 O.2     1  UNL1       -0.4540
     15  C          4.0390    1.2920    2.0090 C.3     1  UNL1        0.4680
@<TRIPOS>BOND
     1     4     5    1
     2     4     2    1
     3     2     3    2
     4     2     1    1
     5     1     6    1
     6     6     7    1
     7     7     9    2
     8     7     8    1
     9     9    11    1
    10     8    10    2
    11    11    13    1
    12    11    12    2
    13    13    15    1
    14    10    12    1
    15    12    14    1
    16    15    14    1
