@<TRIPOS>MOLECULE
/home/cewinharhar/GITHUB/reincatalyze/data/processed/docking_pred/2023-May-17-1006_maxeplen10_maxtrainstep1000_seadep16_gamma099_lrac9e-4_lrcr1e-3_sub6/ab317eb7565d030be4138c7249420e244018cf00_ligand_6.pdbqt
 15 16 0 0 0
SMALL
GASTEIGER

@<TRIPOS>ATOM
      1  C          6.4290    1.3430    0.6710 C.3     1  UNL1        0.1270
      2  C          5.1990    1.3590    1.4470 C.2     1  UNL1        0.3030
      3  O          4.2670    2.1520    1.2970 O.2     1  UNL1       -0.2520
      4  O          5.0590    0.3910    2.4540 O.3     1  UNL1       -0.4810
      5  H          5.8990   -0.0980    2.7220 H       1  UNL1        0.2960
      6  C          6.2540    0.8760   -0.7210 C.3     1  UNL1        0.0470
      7  C          7.0020   -0.3130   -1.1350 C.2     1  UNL1       -0.0430
      8  C          7.3060   -0.5500   -2.4670 C.2     1  UNL1        0.0080
      9  C          7.3910   -1.2510   -0.2160 C.2     1  UNL1        0.0540
     10  C          7.9770   -1.6860   -2.8620 C.2     1  UNL1        0.0510
     11  C          8.0670   -2.3980   -0.5900 C.2     1  UNL1        0.1660
     12  C          8.3620   -2.6190   -1.9130 C.2     1  UNL1        0.1650
     13  O          8.5500   -3.4620    0.1510 O.2     1  UNL1       -0.4540
     14  O          9.0360   -3.8400   -1.9770 O.2     1  UNL1       -0.4540
     15  C          8.8870   -4.5240   -0.7550 C.3     1  UNL1        0.4680
@<TRIPOS>BOND
     1    10     8    1
     2    10    12    2
     3     8     7    2
     4    14    12    1
     5    14    15    1
     6    12    11    1
     7     7     6    1
     8     7     9    1
     9    15    13    1
    10     6     1    1
    11    11     9    2
    12    11    13    1
    13     1     2    1
    14     3     2    2
    15     2     4    1
    16     4     5    1
