@<TRIPOS>MOLECULE
/home/cewinharhar/GITHUB/reincatalyze/data/processed/docking_pred/2023-May-17-1006_maxeplen10_maxtrainstep1000_seadep16_gamma099_lrac9e-4_lrcr1e-3_sub6/ab317eb7565d030be4138c7249420e244018cf00_ligand_6.pdbqt
 15 16 0 0 0
SMALL
GASTEIGER

@<TRIPOS>ATOM
      1  C          5.4210    2.8790    0.1070 C.3     1  UNL1        0.1270
      2  C          6.2400    3.8560    0.8060 C.2     1  UNL1        0.3030
      3  O          6.8700    4.7740    0.2770 O.2     1  UNL1       -0.2520
      4  O          6.3230    3.7470    2.2030 O.3     1  UNL1       -0.4810
      5  H          5.8560    4.4650    2.7340 H       1  UNL1        0.2960
      6  C          5.3440    1.5660    0.7840 C.3     1  UNL1        0.0470
      7  C          6.1260    0.4660    0.2170 C.2     1  UNL1       -0.0430
      8  C          6.5880   -0.5760    1.0060 C.2     1  UNL1        0.0080
      9  C          6.4580    0.4540   -1.1120 C.2     1  UNL1        0.0540
     10  C          7.3550   -1.5930    0.4820 C.2     1  UNL1        0.0510
     11  C          7.2250   -0.5560   -1.6600 C.2     1  UNL1        0.1660
     12  C          7.6760   -1.5830   -0.8660 C.2     1  UNL1        0.1650
     13  O          7.6750   -0.7710   -2.9510 O.2     1  UNL1       -0.4540
     14  O          8.4120   -2.4360   -1.6890 O.2     1  UNL1       -0.4540
     15  C          8.6850   -1.7910   -2.9120 C.3     1  UNL1        0.4680
@<TRIPOS>BOND
     1    13    15    1
     2    13    11    1
     3    15    14    1
     4    14    12    1
     5    11     9    1
     6    11    12    2
     7     9     7    2
     8    12    10    1
     9     1     6    1
    10     1     2    1
    11     7     6    1
    12     7     8    1
    13     3     2    2
    14    10     8    2
    15     2     4    1
    16     4     5    1
