@<TRIPOS>MOLECULE
/home/cewinharhar/GITHUB/reincatalyze/data/processed/docking_pred/2023-May-17-1006_maxeplen10_maxtrainstep1000_seadep16_gamma099_lrac9e-4_lrcr1e-3_sub6/ab5903e155d5198269deee73f32ad6fb308dffee_ligand_6.pdbqt
 15 16 0 0 0
SMALL
GASTEIGER

@<TRIPOS>ATOM
      1  C          4.7000    1.8520    0.6840 C.3     1  UNL1        0.1270
      2  C          4.3990    1.1520    1.9220 C.2     1  UNL1        0.3030
      3  O          5.1290    0.3270    2.4750 O.2     1  UNL1       -0.2520
      4  O          3.1730    1.4390    2.5430 O.3     1  UNL1       -0.4810
      5  H          2.5270    2.0050    2.0140 H       1  UNL1        0.2960
      6  C          6.1230    2.2250    0.5350 C.3     1  UNL1        0.0470
      7  C          6.9810    1.3250   -0.2380 C.2     1  UNL1       -0.0430
      8  C          8.3390    1.5660   -0.3830 C.2     1  UNL1        0.0080
      9  C          6.4560    0.2330   -0.8770 C.2     1  UNL1        0.0540
     10  C          9.1410    0.7400   -1.1400 C.2     1  UNL1        0.0510
     11  C          7.2420   -0.6090   -1.6400 C.2     1  UNL1        0.1660
     12  C          8.5860   -0.3590   -1.7740 C.2     1  UNL1        0.1650
     13  O          6.9340   -1.7500   -2.3620 O.2     1  UNL1       -0.4540
     14  O          9.1040   -1.3650   -2.5920 O.2     1  UNL1       -0.4540
     15  C          8.0460   -2.0540   -3.2170 C.3     1  UNL1        0.4680
@<TRIPOS>BOND
     1    15    14    1
     2    15    13    1
     3    14    12    1
     4    13    11    1
     5    12    11    2
     6    12    10    1
     7    11     9    1
     8    10     8    2
     9     9     7    2
    10     8     7    1
    11     7     6    1
    12     6     1    1
    13     1     2    1
    14     2     3    2
    15     2     4    1
    16     5     4    1
