MODEL 1
REMARK VINA RESULT:      -7.6      0.000      0.000
REMARK SMILES O=C(O)CCc1ccc2c(c1)OCO2
REMARK SMILES IDX 4 1 2 2 1 3 3 4 5 6 6 7 7 8 11 9 8 10 10 11 9 12 12 13 14 14
REMARK SMILES IDX 13 15
REMARK H PARENT 3 5
REMARK Flexibility Score: inf
ROOT
ATOM      1  C   UNL     1       5.404   2.854   0.134  1.00  0.00     0.127 C 
ENDROOT
BRANCH   1   2
ATOM      2  C   UNL     1       6.230   3.838   0.817  1.00  0.00     0.303 C 
ATOM      3  O   UNL     1       6.846   4.757   0.275  1.00  0.00    -0.252 OA
BRANCH   2   4
ATOM      4  O   UNL     1       6.336   3.733   2.213  1.00  0.00    -0.481 OA
ATOM      5  H   UNL     1       7.269   3.645   2.583  1.00  0.00     0.296 HD
ENDBRANCH   2   4
ENDBRANCH   1   2
BRANCH   1   6
ATOM      6  C   UNL     1       5.333   1.548   0.823  1.00  0.00     0.047 C 
BRANCH   6   7
ATOM      7  C   UNL     1       6.124   0.447   0.270  1.00  0.00    -0.043 A 
ATOM      8  C   UNL     1       6.603  -0.576   1.074  1.00  0.00     0.008 A 
ATOM      9  C   UNL     1       6.448   0.416  -1.060  1.00  0.00     0.054 A 
ATOM     10  C   UNL     1       7.378  -1.593   0.561  1.00  0.00     0.051 A 
ATOM     11  C   UNL     1       7.223  -0.595  -1.597  1.00  0.00     0.166 A 
ATOM     12  C   UNL     1       7.690  -1.603  -0.788  1.00  0.00     0.165 A 
ATOM     13  O   UNL     1       7.666  -0.826  -2.887  1.00  0.00    -0.454 OA
ATOM     14  O   UNL     1       8.431  -2.461  -1.602  1.00  0.00    -0.454 OA
ATOM     15  C   UNL     1       8.688  -1.834  -2.837  1.00  0.00     0.468 C 
ENDBRANCH   6   7
ENDBRANCH   1   6
TORSDOF 4
ENDMDL
MODEL 2
REMARK VINA RESULT:      -7.6      2.130      2.518
REMARK SMILES O=C(O)CCc1ccc2c(c1)OCO2
REMARK SMILES IDX 4 1 2 2 1 3 3 4 5 6 6 7 7 8 11 9 8 10 10 11 9 12 12 13 14 14
REMARK SMILES IDX 13 15
REMARK H PARENT 3 5
REMARK Flexibility Score: inf
ROOT
ATOM      1  C   UNL     1       4.700   1.852   0.684  1.00  0.00     0.127 C 
ENDROOT
BRANCH   1   2
ATOM      2  C   UNL     1       4.399   1.152   1.922  1.00  0.00     0.303 C 
ATOM      3  O   UNL     1       5.129   0.327   2.475  1.00  0.00    -0.252 OA
BRANCH   2   4
ATOM      4  O   UNL     1       3.173   1.439   2.543  1.00  0.00    -0.481 OA
ATOM      5  H   UNL     1       2.527   2.005   2.014  1.00  0.00     0.296 HD
ENDBRANCH   2   4
ENDBRANCH   1   2
BRANCH   1   6
ATOM      6  C   UNL     1       6.123   2.225   0.535  1.00  0.00     0.047 C 
BRANCH   6   7
ATOM      7  C   UNL     1       6.981   1.325  -0.238  1.00  0.00    -0.043 A 
ATOM      8  C   UNL     1       8.339   1.566  -0.383  1.00  0.00     0.008 A 
ATOM      9  C   UNL     1       6.456   0.233  -0.877  1.00  0.00     0.054 A 
ATOM     10  C   UNL     1       9.141   0.740  -1.140  1.00  0.00     0.051 A 
ATOM     11  C   UNL     1       7.242  -0.609  -1.640  1.00  0.00     0.166 A 
ATOM     12  C   UNL     1       8.586  -0.359  -1.774  1.00  0.00     0.165 A 
ATOM     13  O   UNL     1       6.934  -1.750  -2.362  1.00  0.00    -0.454 OA
ATOM     14  O   UNL     1       9.104  -1.365  -2.592  1.00  0.00    -0.454 OA
ATOM     15  C   UNL     1       8.046  -2.054  -3.217  1.00  0.00     0.468 C 
ENDBRANCH   6   7
ENDBRANCH   1   6
TORSDOF 4
ENDMDL
MODEL 3
REMARK VINA RESULT:      -7.5      1.965      2.878
REMARK SMILES O=C(O)CCc1ccc2c(c1)OCO2
REMARK SMILES IDX 4 1 2 2 1 3 3 4 5 6 6 7 7 8 11 9 8 10 10 11 9 12 12 13 14 14
REMARK SMILES IDX 13 15
REMARK H PARENT 3 5
REMARK Flexibility Score: inf
ROOT
ATOM      1  C   UNL     1       6.364   1.341   0.604  1.00  0.00     0.127 C 
ENDROOT
BRANCH   1   2
ATOM      2  C   UNL     1       5.198   1.272   1.470  1.00  0.00     0.303 C 
ATOM      3  O   UNL     1       4.233   2.038   1.435  1.00  0.00    -0.252 OA
BRANCH   2   4
ATOM      4  O   UNL     1       5.165   0.247   2.428  1.00  0.00    -0.481 OA
ATOM      5  H   UNL     1       5.468  -0.663   2.116  1.00  0.00     0.296 HD
ENDBRANCH   2   4
ENDBRANCH   1   2
BRANCH   1   6
ATOM      6  C   UNL     1       6.138   0.801  -0.753  1.00  0.00     0.047 C 
BRANCH   6   7
ATOM      7  C   UNL     1       6.933  -0.359  -1.162  1.00  0.00    -0.043 A 
ATOM      8  C   UNL     1       7.293  -0.561  -2.486  1.00  0.00     0.008 A 
ATOM      9  C   UNL     1       7.314  -1.304  -0.247  1.00  0.00     0.054 A 
ATOM     10  C   UNL     1       8.010  -1.669  -2.877  1.00  0.00     0.051 A 
ATOM     11  C   UNL     1       8.035  -2.424  -0.617  1.00  0.00     0.166 A 
ATOM     12  C   UNL     1       8.385  -2.611  -1.932  1.00  0.00     0.165 A 
ATOM     13  O   UNL     1       8.520  -3.490   0.121  1.00  0.00    -0.454 OA
ATOM     14  O   UNL     1       9.095  -3.811  -1.994  1.00  0.00    -0.454 OA
ATOM     15  C   UNL     1       8.920  -4.524  -0.792  1.00  0.00     0.468 C 
ENDBRANCH   6   7
ENDBRANCH   1   6
TORSDOF 4
ENDMDL
MODEL 4
REMARK VINA RESULT:      -7.4      1.779      5.278
REMARK SMILES O=C(O)CCc1ccc2c(c1)OCO2
REMARK SMILES IDX 4 1 2 2 1 3 3 4 5 6 6 7 7 8 11 9 8 10 10 11 9 12 12 13 14 14
REMARK SMILES IDX 13 15
REMARK H PARENT 3 5
REMARK Flexibility Score: inf
ROOT
ATOM      1  C   UNL     1       8.304  -0.320  -2.858  1.00  0.00     0.127 C 
ENDROOT
BRANCH   1   2
ATOM      2  C   UNL     1       8.471  -1.749  -3.073  1.00  0.00     0.303 C 
ATOM      3  O   UNL     1       9.540  -2.360  -3.033  1.00  0.00    -0.252 OA
BRANCH   2   4
ATOM      4  O   UNL     1       7.316  -2.498  -3.351  1.00  0.00    -0.481 OA
ATOM      5  H   UNL     1       6.494  -1.972  -3.605  1.00  0.00     0.296 HD
ENDBRANCH   2   4
ENDBRANCH   1   2
BRANCH   1   6
ATOM      6  C   UNL     1       8.757   0.143  -1.529  1.00  0.00     0.047 C 
BRANCH   6   7
ATOM      7  C   UNL     1       7.789   0.101  -0.431  1.00  0.00    -0.043 A 
ATOM      8  C   UNL     1       7.739  -0.967   0.451  1.00  0.00     0.008 A 
ATOM      9  C   UNL     1       6.873   1.106  -0.266  1.00  0.00     0.054 A 
ATOM     10  C   UNL     1       6.806  -1.025   1.462  1.00  0.00     0.051 A 
ATOM     11  C   UNL     1       5.927   1.069   0.742  1.00  0.00     0.166 A 
ATOM     12  C   UNL     1       5.891   0.005   1.609  1.00  0.00     0.165 A 
ATOM     13  O   UNL     1       4.923   1.955   1.092  1.00  0.00    -0.454 OA
ATOM     14  O   UNL     1       4.846   0.248   2.502  1.00  0.00    -0.454 OA
ATOM     15  C   UNL     1       4.039   1.292   2.008  1.00  0.00     0.468 C 
ENDBRANCH   6   7
ENDBRANCH   1   6
TORSDOF 4
ENDMDL
