@<TRIPOS>MOLECULE
/home/cewinharhar/GITHUB/reincatalyze/data/processed/docking_pred/2023-May-17-1006_maxeplen10_maxtrainstep1000_seadep16_gamma099_lrac9e-4_lrcr1e-3_sub6/ab5903e155d5198269deee73f32ad6fb308dffee_ligand_6.pdbqt
 15 16 0 0 0
SMALL
GASTEIGER

@<TRIPOS>ATOM
      1  C          8.3040   -0.3200   -2.8580 C.3     1  UNL1        0.1270
      2  C          8.4710   -1.7490   -3.0730 C.2     1  UNL1        0.3030
      3  O          9.5400   -2.3600   -3.0330 O.2     1  UNL1       -0.2520
      4  O          7.3160   -2.4980   -3.3510 O.3     1  UNL1       -0.4810
      5  H          6.4940   -1.9720   -3.6050 H       1  UNL1        0.2960
      6  C          8.7570    0.1430   -1.5290 C.3     1  UNL1        0.0470
      7  C          7.7890    0.1010   -0.4310 C.2     1  UNL1       -0.0430
      8  C          7.7390   -0.9670    0.4510 C.2     1  UNL1        0.0080
      9  C          6.8730    1.1060   -0.2660 C.2     1  UNL1        0.0540
     10  C          6.8060   -1.0250    1.4620 C.2     1  UNL1        0.0510
     11  C          5.9270    1.0690    0.7420 C.2     1  UNL1        0.1660
     12  C          5.8910    0.0050    1.6090 C.2     1  UNL1        0.1650
     13  O          4.9230    1.9550    1.0920 O.2     1  UNL1       -0.4540
     14  O          4.8460    0.2480    2.5020 O.2     1  UNL1       -0.4540
     15  C          4.0390    1.2920    2.0080 C.3     1  UNL1        0.4680
@<TRIPOS>BOND
     1     5     4    1
     2     4     2    1
     3     2     3    2
     4     2     1    1
     5     1     6    1
     6     6     7    1
     7     7     9    2
     8     7     8    1
     9     9    11    1
    10     8    10    2
    11    11    13    1
    12    11    12    2
    13    13    15    1
    14    10    12    1
    15    12    14    1
    16    15    14    1
