@<TRIPOS>MOLECULE
/home/cewinharhar/GITHUB/reincatalyze/data/processed/docking_pred/2023-May-17-1006_maxeplen10_maxtrainstep1000_seadep16_gamma099_lrac9e-4_lrcr1e-3_sub6/ab5903e155d5198269deee73f32ad6fb308dffee_ligand_6.pdbqt
 15 16 0 0 0
SMALL
GASTEIGER

@<TRIPOS>ATOM
      1  C          5.4040    2.8540    0.1340 C.3     1  UNL1        0.1270
      2  C          6.2300    3.8380    0.8170 C.2     1  UNL1        0.3030
      3  O          6.8460    4.7570    0.2750 O.2     1  UNL1       -0.2520
      4  O          6.3360    3.7330    2.2130 O.3     1  UNL1       -0.4810
      5  H          7.2690    3.6450    2.5830 H       1  UNL1        0.2960
      6  C          5.3330    1.5480    0.8230 C.3     1  UNL1        0.0470
      7  C          6.1240    0.4470    0.2700 C.2     1  UNL1       -0.0430
      8  C          6.6030   -0.5760    1.0740 C.2     1  UNL1        0.0080
      9  C          6.4480    0.4160   -1.0600 C.2     1  UNL1        0.0540
     10  C          7.3780   -1.5930    0.5610 C.2     1  UNL1        0.0510
     11  C          7.2230   -0.5950   -1.5970 C.2     1  UNL1        0.1660
     12  C          7.6900   -1.6030   -0.7880 C.2     1  UNL1        0.1650
     13  O          7.6660   -0.8260   -2.8870 O.2     1  UNL1       -0.4540
     14  O          8.4310   -2.4610   -1.6020 O.2     1  UNL1       -0.4540
     15  C          8.6880   -1.8340   -2.8370 C.3     1  UNL1        0.4680
@<TRIPOS>BOND
     1    13    15    1
     2    13    11    1
     3    15    14    1
     4    14    12    1
     5    11     9    1
     6    11    12    2
     7     9     7    2
     8    12    10    1
     9     1     2    1
    10     1     6    1
    11     7     6    1
    12     7     8    1
    13     3     2    2
    14    10     8    2
    15     2     4    1
    16     4     5    1
