@<TRIPOS>MOLECULE
/home/cewinharhar/GITHUB/reincatalyze/data/processed/docking_pred/2023-May-17-1006_maxeplen10_maxtrainstep1000_seadep16_gamma099_lrac9e-4_lrcr1e-3_sub6/ab5903e155d5198269deee73f32ad6fb308dffee_ligand_6.pdbqt
 15 16 0 0 0
SMALL
GASTEIGER

@<TRIPOS>ATOM
      1  C          6.3640    1.3410    0.6040 C.3     1  UNL1        0.1270
      2  C          5.1980    1.2720    1.4700 C.2     1  UNL1        0.3030
      3  O          4.2330    2.0380    1.4350 O.2     1  UNL1       -0.2520
      4  O          5.1650    0.2470    2.4280 O.3     1  UNL1       -0.4810
      5  H          5.4680   -0.6630    2.1160 H       1  UNL1        0.2960
      6  C          6.1380    0.8010   -0.7530 C.3     1  UNL1        0.0470
      7  C          6.9330   -0.3590   -1.1620 C.2     1  UNL1       -0.0430
      8  C          7.2930   -0.5610   -2.4860 C.2     1  UNL1        0.0080
      9  C          7.3140   -1.3040   -0.2470 C.2     1  UNL1        0.0540
     10  C          8.0100   -1.6690   -2.8770 C.2     1  UNL1        0.0510
     11  C          8.0350   -2.4240   -0.6170 C.2     1  UNL1        0.1660
     12  C          8.3850   -2.6110   -1.9320 C.2     1  UNL1        0.1650
     13  O          8.5200   -3.4900    0.1210 O.2     1  UNL1       -0.4540
     14  O          9.0950   -3.8110   -1.9940 O.2     1  UNL1       -0.4540
     15  C          8.9200   -4.5240   -0.7920 C.3     1  UNL1        0.4680
@<TRIPOS>BOND
     1    10     8    1
     2    10    12    2
     3     8     7    2
     4    14    12    1
     5    14    15    1
     6    12    11    1
     7     7     6    1
     8     7     9    1
     9    15    13    1
    10     6     1    1
    11    11     9    2
    12    11    13    1
    13     1     2    1
    14     3     2    2
    15     2     4    1
    16     5     4    1
