MODEL 1
REMARK VINA RESULT:      -7.6      0.000      0.000
REMARK SMILES O=C(O)CCc1ccc2c(c1)OCO2
REMARK SMILES IDX 4 1 2 2 1 3 3 4 5 6 6 7 7 8 11 9 8 10 10 11 9 12 12 13 14 14
REMARK SMILES IDX 13 15
REMARK H PARENT 3 5
REMARK Flexibility Score: inf
ROOT
ATOM      1  C   UNL     1       5.414   2.879   0.101  1.00  0.00     0.127 C 
ENDROOT
BRANCH   1   2
ATOM      2  C   UNL     1       6.231   3.878   0.771  1.00  0.00     0.303 C 
ATOM      3  O   UNL     1       6.912   4.741   0.212  1.00  0.00    -0.252 OA
BRANCH   2   4
ATOM      4  O   UNL     1       6.249   3.861   2.174  1.00  0.00    -0.481 OA
ATOM      5  H   UNL     1       6.924   3.248   2.604  1.00  0.00     0.296 HD
ENDBRANCH   2   4
ENDBRANCH   1   2
BRANCH   1   6
ATOM      6  C   UNL     1       5.363   1.578   0.800  1.00  0.00     0.047 C 
BRANCH   6   7
ATOM      7  C   UNL     1       6.130   0.470   0.226  1.00  0.00    -0.043 A 
ATOM      8  C   UNL     1       6.552  -0.599   1.002  1.00  0.00     0.008 A 
ATOM      9  C   UNL     1       6.487   0.477  -1.096  1.00  0.00     0.054 A 
ATOM     10  C   UNL     1       7.303  -1.623   0.471  1.00  0.00     0.051 A 
ATOM     11  C   UNL     1       7.239  -0.541  -1.651  1.00  0.00     0.166 A 
ATOM     12  C   UNL     1       7.650  -1.594  -0.870  1.00  0.00     0.165 A 
ATOM     13  O   UNL     1       7.708  -0.741  -2.938  1.00  0.00    -0.454 OA
ATOM     14  O   UNL     1       8.381  -2.448  -1.697  1.00  0.00    -0.454 OA
ATOM     15  C   UNL     1       8.692  -1.785  -2.901  1.00  0.00     0.468 C 
ENDBRANCH   6   7
ENDBRANCH   1   6
TORSDOF 4
ENDMDL
MODEL 2
REMARK VINA RESULT:      -7.6      2.135      2.525
REMARK SMILES O=C(O)CCc1ccc2c(c1)OCO2
REMARK SMILES IDX 4 1 2 2 1 3 3 4 5 6 6 7 7 8 11 9 8 10 10 11 9 12 12 13 14 14
REMARK SMILES IDX 13 15
REMARK H PARENT 3 5
REMARK Flexibility Score: inf
ROOT
ATOM      1  C   UNL     1       4.692   1.860   0.671  1.00  0.00     0.127 C 
ENDROOT
BRANCH   1   2
ATOM      2  C   UNL     1       4.399   1.164   1.914  1.00  0.00     0.303 C 
ATOM      3  O   UNL     1       5.134   0.345   2.468  1.00  0.00    -0.252 OA
BRANCH   2   4
ATOM      4  O   UNL     1       3.173   1.446   2.537  1.00  0.00    -0.481 OA
ATOM      5  H   UNL     1       3.223   1.951   3.409  1.00  0.00     0.296 HD
ENDBRANCH   2   4
ENDBRANCH   1   2
BRANCH   1   6
ATOM      6  C   UNL     1       6.114   2.237   0.516  1.00  0.00     0.047 C 
BRANCH   6   7
ATOM      7  C   UNL     1       6.974   1.332  -0.250  1.00  0.00    -0.043 A 
ATOM      8  C   UNL     1       8.334   1.566  -0.383  1.00  0.00     0.008 A 
ATOM      9  C   UNL     1       6.449   0.243  -0.893  1.00  0.00     0.054 A 
ATOM     10  C   UNL     1       9.138   0.736  -1.133  1.00  0.00     0.051 A 
ATOM     11  C   UNL     1       7.236  -0.603  -1.651  1.00  0.00     0.166 A 
ATOM     12  C   UNL     1       8.583  -0.360  -1.773  1.00  0.00     0.165 A 
ATOM     13  O   UNL     1       6.929  -1.742  -2.374  1.00  0.00    -0.454 OA
ATOM     14  O   UNL     1       9.102  -1.369  -2.586  1.00  0.00    -0.454 OA
ATOM     15  C   UNL     1       8.046  -2.052  -3.221  1.00  0.00     0.468 C 
ENDBRANCH   6   7
ENDBRANCH   1   6
TORSDOF 4
ENDMDL
MODEL 3
REMARK VINA RESULT:      -7.5      1.803      5.289
REMARK SMILES O=C(O)CCc1ccc2c(c1)OCO2
REMARK SMILES IDX 4 1 2 2 1 3 3 4 5 6 6 7 7 8 11 9 8 10 10 11 9 12 12 13 14 14
REMARK SMILES IDX 13 15
REMARK H PARENT 3 5
REMARK Flexibility Score: inf
ROOT
ATOM      1  C   UNL     1       8.312  -0.325  -2.850  1.00  0.00     0.127 C 
ENDROOT
BRANCH   1   2
ATOM      2  C   UNL     1       8.473  -1.754  -3.069  1.00  0.00     0.303 C 
ATOM      3  O   UNL     1       9.540  -2.369  -3.034  1.00  0.00    -0.252 OA
BRANCH   2   4
ATOM      4  O   UNL     1       7.315  -2.498  -3.344  1.00  0.00    -0.481 OA
ATOM      5  H   UNL     1       6.605  -2.032  -3.888  1.00  0.00     0.296 HD
ENDBRANCH   2   4
ENDBRANCH   1   2
BRANCH   1   6
ATOM      6  C   UNL     1       8.763   0.133  -1.518  1.00  0.00     0.047 C 
BRANCH   6   7
ATOM      7  C   UNL     1       7.790   0.095  -0.424  1.00  0.00    -0.043 A 
ATOM      8  C   UNL     1       7.734  -0.973   0.458  1.00  0.00     0.008 A 
ATOM      9  C   UNL     1       6.877   1.102  -0.264  1.00  0.00     0.054 A 
ATOM     10  C   UNL     1       6.796  -1.027   1.466  1.00  0.00     0.051 A 
ATOM     11  C   UNL     1       5.927   1.070   0.740  1.00  0.00     0.166 A 
ATOM     12  C   UNL     1       5.884   0.005   1.608  1.00  0.00     0.165 A 
ATOM     13  O   UNL     1       4.924   1.958   1.085  1.00  0.00    -0.454 OA
ATOM     14  O   UNL     1       4.835   0.252   2.496  1.00  0.00    -0.454 OA
ATOM     15  C   UNL     1       4.034   1.299   1.998  1.00  0.00     0.468 C 
ENDBRANCH   6   7
ENDBRANCH   1   6
TORSDOF 4
ENDMDL
MODEL 4
REMARK VINA RESULT:      -7.4      1.988      2.962
REMARK SMILES O=C(O)CCc1ccc2c(c1)OCO2
REMARK SMILES IDX 4 1 2 2 1 3 3 4 5 6 6 7 7 8 11 9 8 10 10 11 9 12 12 13 14 14
REMARK SMILES IDX 13 15
REMARK H PARENT 3 5
REMARK Flexibility Score: inf
ROOT
ATOM      1  C   UNL     1       6.422   1.337   0.668  1.00  0.00     0.127 C 
ENDROOT
BRANCH   1   2
ATOM      2  C   UNL     1       5.291   1.150   1.563  1.00  0.00     0.303 C 
ATOM      3  O   UNL     1       5.195   0.272   2.423  1.00  0.00    -0.252 OA
BRANCH   2   4
ATOM      4  O   UNL     1       4.216   2.043   1.438  1.00  0.00    -0.481 OA
ATOM      5  H   UNL     1       3.326   1.637   1.191  1.00  0.00     0.296 HD
ENDBRANCH   2   4
ENDBRANCH   1   2
BRANCH   1   6
ATOM      6  C   UNL     1       6.186   0.851  -0.708  1.00  0.00     0.047 C 
BRANCH   6   7
ATOM      7  C   UNL     1       6.960  -0.308  -1.159  1.00  0.00    -0.043 A 
ATOM      8  C   UNL     1       7.281  -0.489  -2.495  1.00  0.00     0.008 A 
ATOM      9  C   UNL     1       7.358  -1.272  -0.272  1.00  0.00     0.054 A 
ATOM     10  C   UNL     1       7.978  -1.596  -2.926  1.00  0.00     0.051 A 
ATOM     11  C   UNL     1       8.058  -2.392  -0.681  1.00  0.00     0.166 A 
ATOM     12  C   UNL     1       8.371  -2.557  -2.008  1.00  0.00     0.165 A 
ATOM     13  O   UNL     1       8.554  -3.474   0.025  1.00  0.00    -0.454 OA
ATOM     14  O   UNL     1       9.068  -3.762  -2.111  1.00  0.00    -0.454 OA
ATOM     15  C   UNL     1       8.919  -4.495  -0.916  1.00  0.00     0.468 C 
ENDBRANCH   6   7
ENDBRANCH   1   6
TORSDOF 4
ENDMDL
