@<TRIPOS>MOLECULE
/home/cewinharhar/GITHUB/reincatalyze/data/processed/docking_pred/2023-May-17-1006_maxeplen10_maxtrainstep1000_seadep16_gamma099_lrac9e-4_lrcr1e-3_sub6/ab955c776f37f5544fae82246801d9a2769dfb79_ligand_6.pdbqt
 15 16 0 0 0
SMALL
GASTEIGER

@<TRIPOS>ATOM
      1  C          6.4220    1.3370    0.6680 C.3     1  UNL1        0.1270
      2  C          5.2910    1.1500    1.5630 C.2     1  UNL1        0.3030
      3  O          5.1950    0.2720    2.4230 O.2     1  UNL1       -0.2520
      4  O          4.2160    2.0430    1.4380 O.3     1  UNL1       -0.4810
      5  H          3.3260    1.6370    1.1910 H       1  UNL1        0.2960
      6  C          6.1860    0.8510   -0.7080 C.3     1  UNL1        0.0470
      7  C          6.9600   -0.3080   -1.1590 C.2     1  UNL1       -0.0430
      8  C          7.2810   -0.4890   -2.4950 C.2     1  UNL1        0.0080
      9  C          7.3580   -1.2720   -0.2720 C.2     1  UNL1        0.0540
     10  C          7.9780   -1.5960   -2.9260 C.2     1  UNL1        0.0510
     11  C          8.0580   -2.3920   -0.6810 C.2     1  UNL1        0.1660
     12  C          8.3710   -2.5570   -2.0080 C.2     1  UNL1        0.1650
     13  O          8.5540   -3.4740    0.0250 O.2     1  UNL1       -0.4540
     14  O          9.0680   -3.7620   -2.1110 O.2     1  UNL1       -0.4540
     15  C          8.9190   -4.4950   -0.9160 C.3     1  UNL1        0.4680
@<TRIPOS>BOND
     1    10     8    1
     2    10    12    2
     3     8     7    2
     4    14    12    1
     5    14    15    1
     6    12    11    1
     7     7     6    1
     8     7     9    1
     9    15    13    1
    10     6     1    1
    11    11     9    2
    12    11    13    1
    13     1     2    1
    14     5     4    1
    15     4     2    1
    16     2     3    2
