@<TRIPOS>MOLECULE
/home/cewinharhar/GITHUB/reincatalyze/data/processed/docking_pred/2023-May-17-1006_maxeplen10_maxtrainstep1000_seadep16_gamma099_lrac9e-4_lrcr1e-3_sub6/ab955c776f37f5544fae82246801d9a2769dfb79_ligand_6.pdbqt
 15 16 0 0 0
SMALL
GASTEIGER

@<TRIPOS>ATOM
      1  C          5.4140    2.8790    0.1010 C.3     1  UNL1        0.1270
      2  C          6.2310    3.8780    0.7710 C.2     1  UNL1        0.3030
      3  O          6.9120    4.7410    0.2120 O.2     1  UNL1       -0.2520
      4  O          6.2490    3.8610    2.1740 O.3     1  UNL1       -0.4810
      5  H          6.9240    3.2480    2.6040 H       1  UNL1        0.2960
      6  C          5.3630    1.5780    0.8000 C.3     1  UNL1        0.0470
      7  C          6.1300    0.4700    0.2260 C.2     1  UNL1       -0.0430
      8  C          6.5520   -0.5990    1.0020 C.2     1  UNL1        0.0080
      9  C          6.4870    0.4770   -1.0960 C.2     1  UNL1        0.0540
     10  C          7.3030   -1.6230    0.4710 C.2     1  UNL1        0.0510
     11  C          7.2390   -0.5410   -1.6510 C.2     1  UNL1        0.1660
     12  C          7.6500   -1.5940   -0.8700 C.2     1  UNL1        0.1650
     13  O          7.7080   -0.7410   -2.9380 O.2     1  UNL1       -0.4540
     14  O          8.3810   -2.4480   -1.6970 O.2     1  UNL1       -0.4540
     15  C          8.6920   -1.7850   -2.9010 C.3     1  UNL1        0.4680
@<TRIPOS>BOND
     1    13    15    1
     2    13    11    1
     3    15    14    1
     4    14    12    1
     5    11     9    1
     6    11    12    2
     7     9     7    2
     8    12    10    1
     9     1     2    1
    10     1     6    1
    11     3     2    2
    12     7     6    1
    13     7     8    1
    14    10     8    2
    15     2     4    1
    16     4     5    1
