@<TRIPOS>MOLECULE
/home/cewinharhar/GITHUB/reincatalyze/data/processed/docking_pred/2023-May-17-1006_maxeplen10_maxtrainstep1000_seadep16_gamma099_lrac9e-4_lrcr1e-3_sub6/ab955c776f37f5544fae82246801d9a2769dfb79_ligand_6.pdbqt
 15 16 0 0 0
SMALL
GASTEIGER

@<TRIPOS>ATOM
      1  C          8.3120   -0.3250   -2.8500 C.3     1  UNL1        0.1270
      2  C          8.4730   -1.7540   -3.0690 C.2     1  UNL1        0.3030
      3  O          9.5400   -2.3690   -3.0340 O.2     1  UNL1       -0.2520
      4  O          7.3150   -2.4980   -3.3440 O.3     1  UNL1       -0.4810
      5  H          6.6050   -2.0320   -3.8880 H       1  UNL1        0.2960
      6  C          8.7630    0.1330   -1.5180 C.3     1  UNL1        0.0470
      7  C          7.7900    0.0950   -0.4240 C.2     1  UNL1       -0.0430
      8  C          7.7340   -0.9730    0.4580 C.2     1  UNL1        0.0080
      9  C          6.8770    1.1020   -0.2640 C.2     1  UNL1        0.0540
     10  C          6.7960   -1.0270    1.4660 C.2     1  UNL1        0.0510
     11  C          5.9270    1.0700    0.7400 C.2     1  UNL1        0.1660
     12  C          5.8840    0.0050    1.6080 C.2     1  UNL1        0.1650
     13  O          4.9240    1.9580    1.0850 O.2     1  UNL1       -0.4540
     14  O          4.8350    0.2520    2.4960 O.2     1  UNL1       -0.4540
     15  C          4.0340    1.2990    1.9980 C.3     1  UNL1        0.4680
@<TRIPOS>BOND
     1     5     4    1
     2     4     2    1
     3     2     3    2
     4     2     1    1
     5     1     6    1
     6     6     7    1
     7     7     9    2
     8     7     8    1
     9     9    11    1
    10     8    10    2
    11    11    13    1
    12    11    12    2
    13    13    15    1
    14    10    12    1
    15    12    14    1
    16    15    14    1
