@<TRIPOS>MOLECULE
/home/cewinharhar/GITHUB/reincatalyze/data/processed/docking_pred/2023-May-17-1006_maxeplen10_maxtrainstep1000_seadep16_gamma099_lrac9e-4_lrcr1e-3_sub6/ab955c776f37f5544fae82246801d9a2769dfb79_ligand_6.pdbqt
 15 16 0 0 0
SMALL
GASTEIGER

@<TRIPOS>ATOM
      1  C          4.6920    1.8600    0.6710 C.3     1  UNL1        0.1270
      2  C          4.3990    1.1640    1.9140 C.2     1  UNL1        0.3030
      3  O          5.1340    0.3450    2.4680 O.2     1  UNL1       -0.2520
      4  O          3.1730    1.4460    2.5370 O.3     1  UNL1       -0.4810
      5  H          3.2230    1.9510    3.4090 H       1  UNL1        0.2960
      6  C          6.1140    2.2370    0.5160 C.3     1  UNL1        0.0470
      7  C          6.9740    1.3320   -0.2500 C.2     1  UNL1       -0.0430
      8  C          8.3340    1.5660   -0.3830 C.2     1  UNL1        0.0080
      9  C          6.4490    0.2430   -0.8930 C.2     1  UNL1        0.0540
     10  C          9.1380    0.7360   -1.1330 C.2     1  UNL1        0.0510
     11  C          7.2360   -0.6030   -1.6510 C.2     1  UNL1        0.1660
     12  C          8.5830   -0.3600   -1.7730 C.2     1  UNL1        0.1650
     13  O          6.9290   -1.7420   -2.3740 O.2     1  UNL1       -0.4540
     14  O          9.1020   -1.3690   -2.5860 O.2     1  UNL1       -0.4540
     15  C          8.0460   -2.0520   -3.2210 C.3     1  UNL1        0.4680
@<TRIPOS>BOND
     1    15    14    1
     2    15    13    1
     3    14    12    1
     4    13    11    1
     5    12    11    2
     6    12    10    1
     7    11     9    1
     8    10     8    2
     9     9     7    2
    10     8     7    1
    11     7     6    1
    12     6     1    1
    13     1     2    1
    14     2     3    2
    15     2     4    1
    16     4     5    1
