MODEL 1
REMARK VINA RESULT:      -7.6      0.000      0.000
REMARK SMILES O=C(O)CCc1ccc2c(c1)OCO2
REMARK SMILES IDX 4 1 2 2 1 3 3 4 5 6 6 7 7 8 11 9 8 10 10 11 9 12 12 13 14 14
REMARK SMILES IDX 13 15
REMARK H PARENT 3 5
REMARK Flexibility Score: inf
ROOT
ATOM      1  C   UNL     1       5.403   2.868   0.142  1.00  0.00     0.127 C 
ENDROOT
BRANCH   1   2
ATOM      2  C   UNL     1       6.317   3.788   0.800  1.00  0.00     0.303 C 
ATOM      3  O   UNL     1       6.841   4.774   0.278  1.00  0.00    -0.252 OA
BRANCH   2   4
ATOM      4  O   UNL     1       6.632   3.533   2.144  1.00  0.00    -0.481 OA
ATOM      5  H   UNL     1       6.064   4.004   2.831  1.00  0.00     0.296 HD
ENDBRANCH   2   4
ENDBRANCH   1   2
BRANCH   1   6
ATOM      6  C   UNL     1       5.303   1.548   0.800  1.00  0.00     0.047 C 
BRANCH   6   7
ATOM      7  C   UNL     1       6.097   0.451   0.242  1.00  0.00    -0.043 A 
ATOM      8  C   UNL     1       6.562  -0.585   1.037  1.00  0.00     0.008 A 
ATOM      9  C   UNL     1       6.438   0.438  -1.084  1.00  0.00     0.054 A 
ATOM     10  C   UNL     1       7.339  -1.598   0.521  1.00  0.00     0.051 A 
ATOM     11  C   UNL     1       7.217  -0.568  -1.625  1.00  0.00     0.166 A 
ATOM     12  C   UNL     1       7.670  -1.589  -0.825  1.00  0.00     0.165 A 
ATOM     13  O   UNL     1       7.676  -0.783  -2.912  1.00  0.00    -0.454 OA
ATOM     14  O   UNL     1       8.418  -2.439  -1.641  1.00  0.00    -0.454 OA
ATOM     15  C   UNL     1       8.694  -1.794  -2.863  1.00  0.00     0.468 C 
ENDBRANCH   6   7
ENDBRANCH   1   6
TORSDOF 4
ENDMDL
MODEL 2
REMARK VINA RESULT:      -7.6      2.109      2.522
REMARK SMILES O=C(O)CCc1ccc2c(c1)OCO2
REMARK SMILES IDX 4 1 2 2 1 3 3 4 5 6 6 7 7 8 11 9 8 10 10 11 9 12 12 13 14 14
REMARK SMILES IDX 13 15
REMARK H PARENT 3 5
REMARK Flexibility Score: inf
ROOT
ATOM      1  C   UNL     1       4.670   1.868   0.682  1.00  0.00     0.127 C 
ENDROOT
BRANCH   1   2
ATOM      2  C   UNL     1       4.401   1.149   1.918  1.00  0.00     0.303 C 
ATOM      3  O   UNL     1       5.154   0.332   2.451  1.00  0.00    -0.252 OA
BRANCH   2   4
ATOM      4  O   UNL     1       3.180   1.408   2.561  1.00  0.00    -0.481 OA
ATOM      5  H   UNL     1       2.371   0.939   2.185  1.00  0.00     0.296 HD
ENDBRANCH   2   4
ENDBRANCH   1   2
BRANCH   1   6
ATOM      6  C   UNL     1       6.088   2.249   0.506  1.00  0.00     0.047 C 
BRANCH   6   7
ATOM      7  C   UNL     1       6.947   1.333  -0.247  1.00  0.00    -0.043 A 
ATOM      8  C   UNL     1       8.313   1.543  -0.352  1.00  0.00     0.008 A 
ATOM      9  C   UNL     1       6.415   0.258  -0.907  1.00  0.00     0.054 A 
ATOM     10  C   UNL     1       9.117   0.703  -1.091  1.00  0.00     0.051 A 
ATOM     11  C   UNL     1       7.202  -0.599  -1.654  1.00  0.00     0.166 A 
ATOM     12  C   UNL     1       8.555  -0.380  -1.748  1.00  0.00     0.165 A 
ATOM     13  O   UNL     1       6.888  -1.728  -2.390  1.00  0.00    -0.454 OA
ATOM     14  O   UNL     1       9.072  -1.394  -2.556  1.00  0.00    -0.454 OA
ATOM     15  C   UNL     1       8.017  -2.054  -3.216  1.00  0.00     0.468 C 
ENDBRANCH   6   7
ENDBRANCH   1   6
TORSDOF 4
ENDMDL
MODEL 3
REMARK VINA RESULT:      -7.5      1.972      2.884
REMARK SMILES O=C(O)CCc1ccc2c(c1)OCO2
REMARK SMILES IDX 4 1 2 2 1 3 3 4 5 6 6 7 7 8 11 9 8 10 10 11 9 12 12 13 14 14
REMARK SMILES IDX 13 15
REMARK H PARENT 3 5
REMARK Flexibility Score: inf
ROOT
ATOM      1  C   UNL     1       6.404   1.255   0.680  1.00  0.00     0.127 C 
ENDROOT
BRANCH   1   2
ATOM      2  C   UNL     1       5.162   1.320   1.434  1.00  0.00     0.303 C 
ATOM      3  O   UNL     1       4.276   2.162   1.285  1.00  0.00    -0.252 OA
BRANCH   2   4
ATOM      4  O   UNL     1       4.953   0.339   2.417  1.00  0.00    -0.481 OA
ATOM      5  H   UNL     1       5.780  -0.029   2.862  1.00  0.00     0.296 HD
ENDBRANCH   2   4
ENDBRANCH   1   2
BRANCH   1   6
ATOM      6  C   UNL     1       6.235   0.800  -0.717  1.00  0.00     0.047 C 
BRANCH   6   7
ATOM      7  C   UNL     1       6.987  -0.384  -1.139  1.00  0.00    -0.043 A 
ATOM      8  C   UNL     1       7.280  -0.618  -2.474  1.00  0.00     0.008 A 
ATOM      9  C   UNL     1       7.392  -1.319  -0.225  1.00  0.00     0.054 A 
ATOM     10  C   UNL     1       7.956  -1.748  -2.876  1.00  0.00     0.051 A 
ATOM     11  C   UNL     1       8.072  -2.461  -0.605  1.00  0.00     0.166 A 
ATOM     12  C   UNL     1       8.356  -2.679  -1.932  1.00  0.00     0.165 A 
ATOM     13  O   UNL     1       8.569  -3.522   0.130  1.00  0.00    -0.454 OA
ATOM     14  O   UNL     1       9.038  -3.895  -2.003  1.00  0.00    -0.454 OA
ATOM     15  C   UNL     1       8.905  -4.581  -0.779  1.00  0.00     0.468 C 
ENDBRANCH   6   7
ENDBRANCH   1   6
TORSDOF 4
ENDMDL
MODEL 4
REMARK VINA RESULT:      -7.4      1.771      5.251
REMARK SMILES O=C(O)CCc1ccc2c(c1)OCO2
REMARK SMILES IDX 4 1 2 2 1 3 3 4 5 6 6 7 7 8 11 9 8 10 10 11 9 12 12 13 14 14
REMARK SMILES IDX 13 15
REMARK H PARENT 3 5
REMARK Flexibility Score: inf
ROOT
ATOM      1  C   UNL     1       8.353  -0.286  -2.809  1.00  0.00     0.127 C 
ENDROOT
BRANCH   1   2
ATOM      2  C   UNL     1       8.497  -1.711  -3.065  1.00  0.00     0.303 C 
ATOM      3  O   UNL     1       9.558  -2.338  -3.050  1.00  0.00    -0.252 OA
BRANCH   2   4
ATOM      4  O   UNL     1       7.330  -2.435  -3.352  1.00  0.00    -0.481 OA
ATOM      5  H   UNL     1       7.402  -3.120  -4.089  1.00  0.00     0.296 HD
ENDBRANCH   2   4
ENDBRANCH   1   2
BRANCH   1   6
ATOM      6  C   UNL     1       8.791   0.129  -1.460  1.00  0.00     0.047 C 
BRANCH   6   7
ATOM      7  C   UNL     1       7.798   0.093  -0.384  1.00  0.00    -0.043 A 
ATOM      8  C   UNL     1       7.698  -0.992   0.474  1.00  0.00     0.008 A 
ATOM      9  C   UNL     1       6.908   1.121  -0.218  1.00  0.00     0.054 A 
ATOM     10  C   UNL     1       6.742  -1.043   1.463  1.00  0.00     0.051 A 
ATOM     11  C   UNL     1       5.940   1.091   0.769  1.00  0.00     0.166 A 
ATOM     12  C   UNL     1       5.854   0.010   1.612  1.00  0.00     0.165 A 
ATOM     13  O   UNL     1       4.954   1.998   1.116  1.00  0.00    -0.454 OA
ATOM     14  O   UNL     1       4.796   0.265   2.487  1.00  0.00    -0.454 OA
ATOM     15  C   UNL     1       4.031   1.342   1.998  1.00  0.00     0.468 C 
ENDBRANCH   6   7
ENDBRANCH   1   6
TORSDOF 4
ENDMDL
MODEL 5
REMARK VINA RESULT:      -5.8      0.961      2.113
REMARK SMILES O=C(O)CCc1ccc2c(c1)OCO2
REMARK SMILES IDX 4 1 2 2 1 3 3 4 5 6 6 7 7 8 11 9 8 10 10 11 9 12 12 13 14 14
REMARK SMILES IDX 13 15
REMARK H PARENT 3 5
REMARK Flexibility Score: inf
ROOT
ATOM      1  C   UNL     1       5.381   2.847   0.086  1.00  0.00     0.127 C 
ENDROOT
BRANCH   1   2
ATOM      2  C   UNL     1       6.111   3.860   0.831  1.00  0.00     0.303 C 
ATOM      3  O   UNL     1       6.116   3.986   2.057  1.00  0.00    -0.252 OA
BRANCH   2   4
ATOM      4  O   UNL     1       6.878   4.775   0.092  1.00  0.00    -0.481 OA
ATOM      5  H   UNL     1       6.583   5.738   0.132  1.00  0.00     0.296 HD
ENDBRANCH   2   4
ENDBRANCH   1   2
BRANCH   1   6
ATOM      6  C   UNL     1       5.371   1.518   0.733  1.00  0.00     0.047 C 
BRANCH   6   7
ATOM      7  C   UNL     1       6.209   0.472   0.143  1.00  0.00    -0.043 A 
ATOM      8  C   UNL     1       6.510   0.461  -1.210  1.00  0.00     0.008 A 
ATOM      9  C   UNL     1       6.692  -0.555   0.911  1.00  0.00     0.054 A 
ATOM     10  C   UNL     1       7.268  -0.542  -1.772  1.00  0.00     0.051 A 
ATOM     11  C   UNL     1       7.455  -1.571   0.369  1.00  0.00     0.166 A 
ATOM     12  C   UNL     1       7.746  -1.569  -0.974  1.00  0.00     0.165 A 
ATOM     13  O   UNL     1       8.039  -2.688   0.941  1.00  0.00    -0.454 OA
ATOM     14  O   UNL     1       8.520  -2.704  -1.221  1.00  0.00    -0.454 OA
ATOM     15  C   UNL     1       8.449  -3.571  -0.113  1.00  0.00     0.468 C 
ENDBRANCH   6   7
ENDBRANCH   1   6
TORSDOF 4
ENDMDL
