@<TRIPOS>MOLECULE
/home/cewinharhar/GITHUB/reincatalyze/data/processed/docking_pred/2023-May-17-1006_maxeplen10_maxtrainstep1000_seadep16_gamma099_lrac9e-4_lrcr1e-3_sub6/ada201db5b439d74c350b173ce56903753062bb1_ligand_6.pdbqt
 15 16 0 0 0
SMALL
GASTEIGER

@<TRIPOS>ATOM
      1  C          6.4040    1.2550    0.6800 C.3     1  UNL1        0.1270
      2  C          5.1620    1.3200    1.4340 C.2     1  UNL1        0.3030
      3  O          4.2760    2.1620    1.2850 O.2     1  UNL1       -0.2520
      4  O          4.9530    0.3390    2.4170 O.3     1  UNL1       -0.4810
      5  H          5.7800   -0.0290    2.8620 H       1  UNL1        0.2960
      6  C          6.2350    0.8000   -0.7170 C.3     1  UNL1        0.0470
      7  C          6.9870   -0.3840   -1.1390 C.2     1  UNL1       -0.0430
      8  C          7.2800   -0.6180   -2.4740 C.2     1  UNL1        0.0080
      9  C          7.3920   -1.3190   -0.2250 C.2     1  UNL1        0.0540
     10  C          7.9560   -1.7480   -2.8760 C.2     1  UNL1        0.0510
     11  C          8.0720   -2.4610   -0.6050 C.2     1  UNL1        0.1660
     12  C          8.3560   -2.6790   -1.9320 C.2     1  UNL1        0.1650
     13  O          8.5690   -3.5220    0.1300 O.2     1  UNL1       -0.4540
     14  O          9.0380   -3.8950   -2.0030 O.2     1  UNL1       -0.4540
     15  C          8.9050   -4.5810   -0.7790 C.3     1  UNL1        0.4680
@<TRIPOS>BOND
     1    10     8    1
     2    10    12    2
     3     8     7    2
     4    14    12    1
     5    14    15    1
     6    12    11    1
     7     7     6    1
     8     7     9    1
     9    15    13    1
    10     6     1    1
    11    11     9    2
    12    11    13    1
    13     1     2    1
    14     3     2    2
    15     2     4    1
    16     4     5    1
