@<TRIPOS>MOLECULE
/home/cewinharhar/GITHUB/reincatalyze/data/processed/docking_pred/2023-May-17-1006_maxeplen10_maxtrainstep1000_seadep16_gamma099_lrac9e-4_lrcr1e-3_sub6/ada201db5b439d74c350b173ce56903753062bb1_ligand_6.pdbqt
 15 16 0 0 0
SMALL
GASTEIGER

@<TRIPOS>ATOM
      1  C          5.3810    2.8470    0.0860 C.3     1  UNL1        0.1270
      2  C          6.1110    3.8600    0.8310 C.2     1  UNL1        0.3030
      3  O          6.1160    3.9860    2.0570 O.2     1  UNL1       -0.2520
      4  O          6.8780    4.7750    0.0920 O.3     1  UNL1       -0.4810
      5  H          6.5830    5.7380    0.1320 H       1  UNL1        0.2960
      6  C          5.3710    1.5180    0.7330 C.3     1  UNL1        0.0470
      7  C          6.2090    0.4720    0.1430 C.2     1  UNL1       -0.0430
      8  C          6.5100    0.4610   -1.2100 C.2     1  UNL1        0.0080
      9  C          6.6920   -0.5550    0.9110 C.2     1  UNL1        0.0540
     10  C          7.2680   -0.5420   -1.7720 C.2     1  UNL1        0.0510
     11  C          7.4550   -1.5710    0.3690 C.2     1  UNL1        0.1660
     12  C          7.7460   -1.5690   -0.9740 C.2     1  UNL1        0.1650
     13  O          8.0390   -2.6880    0.9410 O.2     1  UNL1       -0.4540
     14  O          8.5200   -2.7040   -1.2210 O.2     1  UNL1       -0.4540
     15  C          8.4490   -3.5710   -0.1130 C.3     1  UNL1        0.4680
@<TRIPOS>BOND
     1    10     8    1
     2    10    12    2
     3    14    12    1
     4    14    15    1
     5     8     7    2
     6    12    11    1
     7    15    13    1
     8     1     6    1
     9     1     2    1
    10     4     5    1
    11     4     2    1
    12     7     6    1
    13     7     9    1
    14    11     9    2
    15    11    13    1
    16     2     3    2
