@<TRIPOS>MOLECULE
/home/cewinharhar/GITHUB/reincatalyze/data/processed/docking_pred/2023-May-17-1006_maxeplen10_maxtrainstep1000_seadep16_gamma099_lrac9e-4_lrcr1e-3_sub6/ada201db5b439d74c350b173ce56903753062bb1_ligand_6.pdbqt
 15 16 0 0 0
SMALL
GASTEIGER

@<TRIPOS>ATOM
      1  C          4.6700    1.8680    0.6820 C.3     1  UNL1        0.1270
      2  C          4.4010    1.1490    1.9180 C.2     1  UNL1        0.3030
      3  O          5.1540    0.3320    2.4510 O.2     1  UNL1       -0.2520
      4  O          3.1800    1.4080    2.5610 O.3     1  UNL1       -0.4810
      5  H          2.3710    0.9390    2.1850 H       1  UNL1        0.2960
      6  C          6.0880    2.2490    0.5060 C.3     1  UNL1        0.0470
      7  C          6.9470    1.3330   -0.2470 C.2     1  UNL1       -0.0430
      8  C          8.3130    1.5430   -0.3520 C.2     1  UNL1        0.0080
      9  C          6.4150    0.2580   -0.9070 C.2     1  UNL1        0.0540
     10  C          9.1170    0.7030   -1.0910 C.2     1  UNL1        0.0510
     11  C          7.2020   -0.5990   -1.6540 C.2     1  UNL1        0.1660
     12  C          8.5550   -0.3800   -1.7480 C.2     1  UNL1        0.1650
     13  O          6.8880   -1.7280   -2.3900 O.2     1  UNL1       -0.4540
     14  O          9.0720   -1.3940   -2.5560 O.2     1  UNL1       -0.4540
     15  C          8.0170   -2.0540   -3.2160 C.3     1  UNL1        0.4680
@<TRIPOS>BOND
     1    15    14    1
     2    15    13    1
     3    14    12    1
     4    13    11    1
     5    12    11    2
     6    12    10    1
     7    11     9    1
     8    10     8    2
     9     9     7    2
    10     8     7    1
    11     7     6    1
    12     6     1    1
    13     1     2    1
    14     2     3    2
    15     2     4    1
    16     5     4    1
