@<TRIPOS>MOLECULE
/home/cewinharhar/GITHUB/reincatalyze/data/processed/docking_pred/2023-May-17-1006_maxeplen10_maxtrainstep1000_seadep16_gamma099_lrac9e-4_lrcr1e-3_sub6/ada201db5b439d74c350b173ce56903753062bb1_ligand_6.pdbqt
 15 16 0 0 0
SMALL
GASTEIGER

@<TRIPOS>ATOM
      1  C          8.3530   -0.2860   -2.8090 C.3     1  UNL1        0.1270
      2  C          8.4970   -1.7110   -3.0650 C.2     1  UNL1        0.3030
      3  O          9.5580   -2.3380   -3.0500 O.2     1  UNL1       -0.2520
      4  O          7.3300   -2.4350   -3.3520 O.3     1  UNL1       -0.4810
      5  H          7.4020   -3.1200   -4.0890 H       1  UNL1        0.2960
      6  C          8.7910    0.1290   -1.4600 C.3     1  UNL1        0.0470
      7  C          7.7980    0.0930   -0.3840 C.2     1  UNL1       -0.0430
      8  C          7.6980   -0.9920    0.4740 C.2     1  UNL1        0.0080
      9  C          6.9080    1.1210   -0.2180 C.2     1  UNL1        0.0540
     10  C          6.7420   -1.0430    1.4630 C.2     1  UNL1        0.0510
     11  C          5.9400    1.0910    0.7690 C.2     1  UNL1        0.1660
     12  C          5.8540    0.0100    1.6120 C.2     1  UNL1        0.1650
     13  O          4.9540    1.9980    1.1160 O.2     1  UNL1       -0.4540
     14  O          4.7960    0.2650    2.4870 O.2     1  UNL1       -0.4540
     15  C          4.0310    1.3420    1.9980 C.3     1  UNL1        0.4680
@<TRIPOS>BOND
     1     5     4    1
     2     4     2    1
     3     2     3    2
     4     2     1    1
     5     1     6    1
     6     6     7    1
     7     7     9    2
     8     7     8    1
     9     9    11    1
    10     8    10    2
    11    11    13    1
    12    11    12    2
    13    13    15    1
    14    10    12    1
    15    12    14    1
    16    15    14    1
