@<TRIPOS>MOLECULE
/home/cewinharhar/GITHUB/reincatalyze/data/processed/docking_pred/2023-May-17-1006_maxeplen10_maxtrainstep1000_seadep16_gamma099_lrac9e-4_lrcr1e-3_sub6/ada201db5b439d74c350b173ce56903753062bb1_ligand_6.pdbqt
 15 16 0 0 0
SMALL
GASTEIGER

@<TRIPOS>ATOM
      1  C          5.4030    2.8680    0.1420 C.3     1  UNL1        0.1270
      2  C          6.3170    3.7880    0.8000 C.2     1  UNL1        0.3030
      3  O          6.8410    4.7740    0.2780 O.2     1  UNL1       -0.2520
      4  O          6.6320    3.5330    2.1440 O.3     1  UNL1       -0.4810
      5  H          6.0640    4.0040    2.8310 H       1  UNL1        0.2960
      6  C          5.3030    1.5480    0.8000 C.3     1  UNL1        0.0470
      7  C          6.0970    0.4510    0.2420 C.2     1  UNL1       -0.0430
      8  C          6.5620   -0.5850    1.0370 C.2     1  UNL1        0.0080
      9  C          6.4380    0.4380   -1.0840 C.2     1  UNL1        0.0540
     10  C          7.3390   -1.5980    0.5210 C.2     1  UNL1        0.0510
     11  C          7.2170   -0.5680   -1.6250 C.2     1  UNL1        0.1660
     12  C          7.6700   -1.5890   -0.8250 C.2     1  UNL1        0.1650
     13  O          7.6760   -0.7830   -2.9120 O.2     1  UNL1       -0.4540
     14  O          8.4180   -2.4390   -1.6410 O.2     1  UNL1       -0.4540
     15  C          8.6940   -1.7940   -2.8630 C.3     1  UNL1        0.4680
@<TRIPOS>BOND
     1    13    15    1
     2    13    11    1
     3    15    14    1
     4    14    12    1
     5    11     9    1
     6    11    12    2
     7     9     7    2
     8    12    10    1
     9     1     2    1
    10     1     6    1
    11     7     6    1
    12     7     8    1
    13     3     2    2
    14    10     8    2
    15     2     4    1
    16     4     5    1
