@<TRIPOS>MOLECULE
/home/cewinharhar/GITHUB/reincatalyze/data/processed/docking_pred/2023-May-17-1006_maxeplen10_maxtrainstep1000_seadep16_gamma099_lrac9e-4_lrcr1e-3_sub6/ae2b7ca0e57384ee3cd7889808440c06f68d274f_ligand_6.pdbqt
 15 16 0 0 0
SMALL
GASTEIGER

@<TRIPOS>ATOM
      1  C          8.3040   -0.3200   -2.8360 C.3     1  UNL1        0.1270
      2  C          8.4630   -1.7490   -3.0610 C.2     1  UNL1        0.3030
      3  O          9.5290   -2.3670   -3.0200 O.2     1  UNL1       -0.2520
      4  O          7.3060   -2.4880   -3.3490 O.3     1  UNL1       -0.4810
      5  H          6.8460   -2.9200   -2.5620 H       1  UNL1        0.2960
      6  C          8.7590    0.1320   -1.5040 C.3     1  UNL1        0.0470
      7  C          7.7860    0.1010   -0.4100 C.2     1  UNL1       -0.0430
      8  C          7.7310   -0.9590    0.4820 C.2     1  UNL1        0.0080
      9  C          6.8690    1.1080   -0.2590 C.2     1  UNL1        0.0540
     10  C          6.7930   -1.0070    1.4890 C.2     1  UNL1        0.0510
     11  C          5.9190    1.0810    0.7450 C.2     1  UNL1        0.1660
     12  C          5.8780    0.0240    1.6220 C.2     1  UNL1        0.1650
     13  O          4.9140    1.9700    1.0820 O.2     1  UNL1       -0.4540
     14  O          4.8290    0.2760    2.5070 O.2     1  UNL1       -0.4540
     15  C          4.0250    1.3160    2.0000 C.3     1  UNL1        0.4680
@<TRIPOS>BOND
     1     4     2    1
     2     4     5    1
     3     2     3    2
     4     2     1    1
     5     1     6    1
     6     6     7    1
     7     7     9    2
     8     7     8    1
     9     9    11    1
    10     8    10    2
    11    11    13    1
    12    11    12    2
    13    13    15    1
    14    10    12    1
    15    12    14    1
    16    15    14    1
