@<TRIPOS>MOLECULE
/home/cewinharhar/GITHUB/reincatalyze/data/processed/docking_pred/2023-May-17-1006_maxeplen10_maxtrainstep1000_seadep16_gamma099_lrac9e-4_lrcr1e-3_sub6/ae2b7ca0e57384ee3cd7889808440c06f68d274f_ligand_6.pdbqt
 15 16 0 0 0
SMALL
GASTEIGER

@<TRIPOS>ATOM
      1  C          5.4230    2.8670    0.1190 C.3     1  UNL1        0.1270
      2  C          6.2520    3.8460    0.8040 C.2     1  UNL1        0.3030
      3  O          6.9160    4.7310    0.2600 O.2     1  UNL1       -0.2520
      4  O          6.3020    3.7810    2.2060 O.3     1  UNL1       -0.4810
      5  H          5.6230    3.1800    2.6480 H       1  UNL1        0.2960
      6  C          5.3560    1.5560    0.8000 C.3     1  UNL1        0.0470
      7  C          6.1300    0.4540    0.2240 C.2     1  UNL1       -0.0430
      8  C          6.5650   -0.6090    1.0000 C.2     1  UNL1        0.0080
      9  C          6.4810    0.4620   -1.1000 C.2     1  UNL1        0.0540
     10  C          7.3240   -1.6280    0.4680 C.2     1  UNL1        0.0510
     11  C          7.2410   -0.5490   -1.6560 C.2     1  UNL1        0.1660
     12  C          7.6640   -1.5980   -0.8750 C.2     1  UNL1        0.1650
     13  O          7.7060   -0.7470   -2.9440 O.2     1  UNL1       -0.4540
     14  O          8.4000   -2.4460   -1.7040 O.2     1  UNL1       -0.4540
     15  C          8.7000   -1.7820   -2.9090 C.3     1  UNL1        0.4680
@<TRIPOS>BOND
     1    13    15    1
     2    13    11    1
     3    15    14    1
     4    14    12    1
     5    11     9    1
     6    11    12    2
     7     9     7    2
     8    12    10    1
     9     1     6    1
    10     1     2    1
    11     7     6    1
    12     7     8    1
    13     3     2    2
    14    10     8    2
    15     2     4    1
    16     4     5    1
