@<TRIPOS>MOLECULE
/home/cewinharhar/GITHUB/reincatalyze/data/processed/docking_pred/2023-May-17-1006_maxeplen10_maxtrainstep1000_seadep16_gamma099_lrac9e-4_lrcr1e-3_sub6/ae2b7ca0e57384ee3cd7889808440c06f68d274f_ligand_6.pdbqt
 15 16 0 0 0
SMALL
GASTEIGER

@<TRIPOS>ATOM
      1  C          6.3900    1.2730    0.7080 C.3     1  UNL1        0.1270
      2  C          5.2310    1.1300    1.5750 C.2     1  UNL1        0.3030
      3  O          5.0760    0.2510    2.4250 O.2     1  UNL1       -0.2520
      4  O          4.1990    2.0710    1.4320 O.3     1  UNL1       -0.4810
      5  H          4.3000    2.7310    0.6770 H       1  UNL1        0.2960
      6  C          6.1740    0.7840   -0.6700 C.3     1  UNL1        0.0470
      7  C          6.9460   -0.3820   -1.1040 C.2     1  UNL1       -0.0430
      8  C          7.2560   -0.5900   -2.4400 C.2     1  UNL1        0.0080
      9  C          7.3540   -1.3270   -0.2010 C.2     1  UNL1        0.0540
     10  C          7.9510   -1.7050   -2.8530 C.2     1  UNL1        0.0510
     11  C          8.0530   -2.4530   -0.5930 C.2     1  UNL1        0.1660
     12  C          8.3540   -2.6460   -1.9200 C.2     1  UNL1        0.1650
     13  O          8.5570   -3.5200    0.1300 O.2     1  UNL1       -0.4540
     14  O          9.0530   -3.8510   -2.0040 O.2     1  UNL1       -0.4540
     15  C          8.9170   -4.5590   -0.7930 C.3     1  UNL1        0.4680
@<TRIPOS>BOND
     1    10     8    1
     2    10    12    2
     3     8     7    2
     4    14    12    1
     5    14    15    1
     6    12    11    1
     7     7     6    1
     8     7     9    1
     9    15    13    1
    10     6     1    1
    11    11     9    2
    12    11    13    1
    13     5     4    1
    14     1     2    1
    15     4     2    1
    16     2     3    2
