@<TRIPOS>MOLECULE
/home/cewinharhar/GITHUB/reincatalyze/data/processed/docking_pred/2023-May-17-1006_maxeplen10_maxtrainstep1000_seadep16_gamma099_lrac9e-4_lrcr1e-3_sub6/ae2b7ca0e57384ee3cd7889808440c06f68d274f_ligand_6.pdbqt
 15 16 0 0 0
SMALL
GASTEIGER

@<TRIPOS>ATOM
      1  C          4.6760    1.8650    0.6850 C.3     1  UNL1        0.1270
      2  C          4.4030    1.1450    1.9190 C.2     1  UNL1        0.3030
      3  O          5.1520    0.3230    2.4500 O.2     1  UNL1       -0.2520
      4  O          3.1830    1.4070    2.5610 O.3     1  UNL1       -0.4810
      5  H          2.7070    2.2530    2.2850 H       1  UNL1        0.2960
      6  C          6.0950    2.2450    0.5130 C.3     1  UNL1        0.0470
      7  C          6.9530    1.3330   -0.2460 C.2     1  UNL1       -0.0430
      8  C          8.3190    1.5440   -0.3540 C.2     1  UNL1        0.0080
      9  C          6.4200    0.2590   -0.9080 C.2     1  UNL1        0.0540
     10  C          9.1220    0.7070   -1.0970 C.2     1  UNL1        0.0510
     11  C          7.2060   -0.5950   -1.6590 C.2     1  UNL1        0.1660
     12  C          8.5590   -0.3740   -1.7560 C.2     1  UNL1        0.1650
     13  O          6.8920   -1.7220   -2.3990 O.2     1  UNL1       -0.4540
     14  O          9.0750   -1.3850   -2.5690 O.2     1  UNL1       -0.4540
     15  C          8.0190   -2.0430   -3.2280 C.3     1  UNL1        0.4680
@<TRIPOS>BOND
     1    15    14    1
     2    15    13    1
     3    14    12    1
     4    13    11    1
     5    12    11    2
     6    12    10    1
     7    11     9    1
     8    10     8    2
     9     9     7    2
    10     8     7    1
    11     7     6    1
    12     6     1    1
    13     1     2    1
    14     2     3    2
    15     2     4    1
    16     5     4    1
