MODEL 1
REMARK VINA RESULT:      -7.6      0.000      0.000
REMARK SMILES O=C(O)CCc1ccc2c(c1)OCO2
REMARK SMILES IDX 4 1 2 2 1 3 3 4 5 6 6 7 7 8 11 9 8 10 10 11 9 12 12 13 14 14
REMARK SMILES IDX 13 15
REMARK H PARENT 3 5
REMARK Flexibility Score: inf
ROOT
ATOM      1  C   UNL     1       5.423   2.867   0.119  1.00  0.00     0.127 C 
ENDROOT
BRANCH   1   2
ATOM      2  C   UNL     1       6.252   3.846   0.804  1.00  0.00     0.303 C 
ATOM      3  O   UNL     1       6.916   4.731   0.260  1.00  0.00    -0.252 OA
BRANCH   2   4
ATOM      4  O   UNL     1       6.302   3.781   2.206  1.00  0.00    -0.481 OA
ATOM      5  H   UNL     1       5.623   3.180   2.648  1.00  0.00     0.296 HD
ENDBRANCH   2   4
ENDBRANCH   1   2
BRANCH   1   6
ATOM      6  C   UNL     1       5.356   1.556   0.800  1.00  0.00     0.047 C 
BRANCH   6   7
ATOM      7  C   UNL     1       6.130   0.454   0.224  1.00  0.00    -0.043 A 
ATOM      8  C   UNL     1       6.565  -0.609   1.000  1.00  0.00     0.008 A 
ATOM      9  C   UNL     1       6.481   0.462  -1.100  1.00  0.00     0.054 A 
ATOM     10  C   UNL     1       7.324  -1.628   0.468  1.00  0.00     0.051 A 
ATOM     11  C   UNL     1       7.241  -0.549  -1.656  1.00  0.00     0.166 A 
ATOM     12  C   UNL     1       7.664  -1.598  -0.875  1.00  0.00     0.165 A 
ATOM     13  O   UNL     1       7.706  -0.747  -2.944  1.00  0.00    -0.454 OA
ATOM     14  O   UNL     1       8.400  -2.446  -1.704  1.00  0.00    -0.454 OA
ATOM     15  C   UNL     1       8.700  -1.782  -2.909  1.00  0.00     0.468 C 
ENDBRANCH   6   7
ENDBRANCH   1   6
TORSDOF 4
ENDMDL
MODEL 2
REMARK VINA RESULT:      -7.6      2.124      2.509
REMARK SMILES O=C(O)CCc1ccc2c(c1)OCO2
REMARK SMILES IDX 4 1 2 2 1 3 3 4 5 6 6 7 7 8 11 9 8 10 10 11 9 12 12 13 14 14
REMARK SMILES IDX 13 15
REMARK H PARENT 3 5
REMARK Flexibility Score: inf
ROOT
ATOM      1  C   UNL     1       4.676   1.865   0.685  1.00  0.00     0.127 C 
ENDROOT
BRANCH   1   2
ATOM      2  C   UNL     1       4.403   1.145   1.919  1.00  0.00     0.303 C 
ATOM      3  O   UNL     1       5.152   0.323   2.450  1.00  0.00    -0.252 OA
BRANCH   2   4
ATOM      4  O   UNL     1       3.183   1.407   2.561  1.00  0.00    -0.481 OA
ATOM      5  H   UNL     1       2.707   2.253   2.285  1.00  0.00     0.296 HD
ENDBRANCH   2   4
ENDBRANCH   1   2
BRANCH   1   6
ATOM      6  C   UNL     1       6.095   2.245   0.513  1.00  0.00     0.047 C 
BRANCH   6   7
ATOM      7  C   UNL     1       6.953   1.333  -0.246  1.00  0.00    -0.043 A 
ATOM      8  C   UNL     1       8.319   1.544  -0.354  1.00  0.00     0.008 A 
ATOM      9  C   UNL     1       6.420   0.259  -0.908  1.00  0.00     0.054 A 
ATOM     10  C   UNL     1       9.122   0.707  -1.097  1.00  0.00     0.051 A 
ATOM     11  C   UNL     1       7.206  -0.595  -1.659  1.00  0.00     0.166 A 
ATOM     12  C   UNL     1       8.559  -0.374  -1.756  1.00  0.00     0.165 A 
ATOM     13  O   UNL     1       6.892  -1.722  -2.399  1.00  0.00    -0.454 OA
ATOM     14  O   UNL     1       9.075  -1.385  -2.569  1.00  0.00    -0.454 OA
ATOM     15  C   UNL     1       8.019  -2.043  -3.228  1.00  0.00     0.468 C 
ENDBRANCH   6   7
ENDBRANCH   1   6
TORSDOF 4
ENDMDL
MODEL 3
REMARK VINA RESULT:      -7.5      1.998      2.984
REMARK SMILES O=C(O)CCc1ccc2c(c1)OCO2
REMARK SMILES IDX 4 1 2 2 1 3 3 4 5 6 6 7 7 8 11 9 8 10 10 11 9 12 12 13 14 14
REMARK SMILES IDX 13 15
REMARK H PARENT 3 5
REMARK Flexibility Score: inf
ROOT
ATOM      1  C   UNL     1       6.390   1.273   0.708  1.00  0.00     0.127 C 
ENDROOT
BRANCH   1   2
ATOM      2  C   UNL     1       5.231   1.130   1.575  1.00  0.00     0.303 C 
ATOM      3  O   UNL     1       5.076   0.251   2.425  1.00  0.00    -0.252 OA
BRANCH   2   4
ATOM      4  O   UNL     1       4.199   2.071   1.432  1.00  0.00    -0.481 OA
ATOM      5  H   UNL     1       4.300   2.731   0.677  1.00  0.00     0.296 HD
ENDBRANCH   2   4
ENDBRANCH   1   2
BRANCH   1   6
ATOM      6  C   UNL     1       6.174   0.784  -0.670  1.00  0.00     0.047 C 
BRANCH   6   7
ATOM      7  C   UNL     1       6.946  -0.382  -1.104  1.00  0.00    -0.043 A 
ATOM      8  C   UNL     1       7.256  -0.590  -2.440  1.00  0.00     0.008 A 
ATOM      9  C   UNL     1       7.354  -1.327  -0.201  1.00  0.00     0.054 A 
ATOM     10  C   UNL     1       7.951  -1.705  -2.853  1.00  0.00     0.051 A 
ATOM     11  C   UNL     1       8.053  -2.453  -0.593  1.00  0.00     0.166 A 
ATOM     12  C   UNL     1       8.354  -2.646  -1.920  1.00  0.00     0.165 A 
ATOM     13  O   UNL     1       8.557  -3.520   0.130  1.00  0.00    -0.454 OA
ATOM     14  O   UNL     1       9.053  -3.851  -2.004  1.00  0.00    -0.454 OA
ATOM     15  C   UNL     1       8.917  -4.559  -0.793  1.00  0.00     0.468 C 
ENDBRANCH   6   7
ENDBRANCH   1   6
TORSDOF 4
ENDMDL
MODEL 4
REMARK VINA RESULT:      -7.5      1.791      5.288
REMARK SMILES O=C(O)CCc1ccc2c(c1)OCO2
REMARK SMILES IDX 4 1 2 2 1 3 3 4 5 6 6 7 7 8 11 9 8 10 10 11 9 12 12 13 14 14
REMARK SMILES IDX 13 15
REMARK H PARENT 3 5
REMARK Flexibility Score: inf
ROOT
ATOM      1  C   UNL     1       8.304  -0.320  -2.836  1.00  0.00     0.127 C 
ENDROOT
BRANCH   1   2
ATOM      2  C   UNL     1       8.463  -1.749  -3.061  1.00  0.00     0.303 C 
ATOM      3  O   UNL     1       9.529  -2.367  -3.020  1.00  0.00    -0.252 OA
BRANCH   2   4
ATOM      4  O   UNL     1       7.306  -2.488  -3.349  1.00  0.00    -0.481 OA
ATOM      5  H   UNL     1       6.846  -2.920  -2.562  1.00  0.00     0.296 HD
ENDBRANCH   2   4
ENDBRANCH   1   2
BRANCH   1   6
ATOM      6  C   UNL     1       8.759   0.132  -1.504  1.00  0.00     0.047 C 
BRANCH   6   7
ATOM      7  C   UNL     1       7.786   0.101  -0.410  1.00  0.00    -0.043 A 
ATOM      8  C   UNL     1       7.731  -0.959   0.482  1.00  0.00     0.008 A 
ATOM      9  C   UNL     1       6.869   1.108  -0.259  1.00  0.00     0.054 A 
ATOM     10  C   UNL     1       6.793  -1.007   1.489  1.00  0.00     0.051 A 
ATOM     11  C   UNL     1       5.919   1.081   0.745  1.00  0.00     0.166 A 
ATOM     12  C   UNL     1       5.878   0.024   1.622  1.00  0.00     0.165 A 
ATOM     13  O   UNL     1       4.914   1.970   1.082  1.00  0.00    -0.454 OA
ATOM     14  O   UNL     1       4.829   0.276   2.507  1.00  0.00    -0.454 OA
ATOM     15  C   UNL     1       4.025   1.316   2.000  1.00  0.00     0.468 C 
ENDBRANCH   6   7
ENDBRANCH   1   6
TORSDOF 4
ENDMDL
