@<TRIPOS>MOLECULE
/home/cewinharhar/GITHUB/reincatalyze/data/processed/docking_pred/2023-May-17-1006_maxeplen10_maxtrainstep1000_seadep16_gamma099_lrac9e-4_lrcr1e-3_sub6/ae2b7ca0e57384ee3cd7889808440c06f68d274f_ligand_6.pdbqt
 15 16 0 0 0
SMALL
GASTEIGER

@<TRIPOS>ATOM
      1  C          5.3650    2.8100    0.2070 C.3     1  UNL1        0.1270
      2  C          6.1700    3.7600    0.9580 C.2     1  UNL1        0.3030
      3  O          6.2620    3.8090    2.1860 O.2     1  UNL1       -0.2520
      4  O          6.9070    4.7020    0.2240 O.3     1  UNL1       -0.4810
      5  H          6.6400    5.6670    0.3420 H       1  UNL1        0.2960
      6  C          5.3280    1.4550    0.7980 C.3     1  UNL1        0.0470
      7  C          6.1750    0.4270    0.1870 C.2     1  UNL1       -0.0430
      8  C          6.4280    0.4110   -1.1760 C.2     1  UNL1        0.0080
      9  C          6.7150   -0.5770    0.9470 C.2     1  UNL1        0.0540
     10  C          7.1940   -0.5740   -1.7560 C.2     1  UNL1        0.0510
     11  C          7.4880   -1.5760    0.3860 C.2     1  UNL1        0.1660
     12  C          7.7300   -1.5790   -0.9660 C.2     1  UNL1        0.1650
     13  O          8.1240   -2.6700    0.9480 O.2     1  UNL1       -0.4540
     14  O          8.5280   -2.6930   -1.2310 O.2     1  UNL1       -0.4540
     15  C          8.5220   -3.5510   -0.1130 C.3     1  UNL1        0.4680
@<TRIPOS>BOND
     1    10     8    1
     2    10    12    2
     3    14    12    1
     4    14    15    1
     5     8     7    2
     6    12    11    1
     7    15    13    1
     8     7     6    1
     9     7     9    1
    10     1     6    1
    11     1     2    1
    12     4     5    1
    13     4     2    1
    14    11     9    2
    15    11    13    1
    16     2     3    2
