MODEL 1
REMARK VINA RESULT:      -7.6      0.000      0.000
REMARK SMILES O=C(O)CCc1ccc2c(c1)OCO2
REMARK SMILES IDX 4 1 2 2 1 3 3 4 5 6 6 7 7 8 11 9 8 10 10 11 9 12 12 13 14 14
REMARK SMILES IDX 13 15
REMARK H PARENT 3 5
REMARK Flexibility Score: inf
ROOT
ATOM      1  C   UNL     1       5.418   2.869   0.120  1.00  0.00     0.127 C 
ENDROOT
BRANCH   1   2
ATOM      2  C   UNL     1       6.245   3.851   0.804  1.00  0.00     0.303 C 
ATOM      3  O   UNL     1       6.891   4.748   0.260  1.00  0.00    -0.252 OA
BRANCH   2   4
ATOM      4  O   UNL     1       6.316   3.771   2.204  1.00  0.00    -0.481 OA
ATOM      5  H   UNL     1       5.498   3.412   2.671  1.00  0.00     0.296 HD
ENDBRANCH   2   4
ENDBRANCH   1   2
BRANCH   1   6
ATOM      6  C   UNL     1       5.352   1.559   0.803  1.00  0.00     0.047 C 
BRANCH   6   7
ATOM      7  C   UNL     1       6.133   0.459   0.234  1.00  0.00    -0.043 A 
ATOM      8  C   UNL     1       6.581  -0.593   1.017  1.00  0.00     0.008 A 
ATOM      9  C   UNL     1       6.478   0.458  -1.092  1.00  0.00     0.054 A 
ATOM     10  C   UNL     1       7.346  -1.610   0.491  1.00  0.00     0.051 A 
ATOM     11  C   UNL     1       7.244  -0.552  -1.642  1.00  0.00     0.166 A 
ATOM     12  C   UNL     1       7.680  -1.590  -0.854  1.00  0.00     0.165 A 
ATOM     13  O   UNL     1       7.705  -0.758  -2.931  1.00  0.00    -0.454 OA
ATOM     14  O   UNL     1       8.419  -2.440  -1.678  1.00  0.00    -0.454 OA
ATOM     15  C   UNL     1       8.708  -1.784  -2.891  1.00  0.00     0.468 C 
ENDBRANCH   6   7
ENDBRANCH   1   6
TORSDOF 4
ENDMDL
MODEL 2
REMARK VINA RESULT:      -7.6      2.127      2.516
REMARK SMILES O=C(O)CCc1ccc2c(c1)OCO2
REMARK SMILES IDX 4 1 2 2 1 3 3 4 5 6 6 7 7 8 11 9 8 10 10 11 9 12 12 13 14 14
REMARK SMILES IDX 13 15
REMARK H PARENT 3 5
REMARK Flexibility Score: inf
ROOT
ATOM      1  C   UNL     1       4.693   1.854   0.683  1.00  0.00     0.127 C 
ENDROOT
BRANCH   1   2
ATOM      2  C   UNL     1       4.409   1.145   1.921  1.00  0.00     0.303 C 
ATOM      3  O   UNL     1       5.152   0.325   2.465  1.00  0.00    -0.252 OA
BRANCH   2   4
ATOM      4  O   UNL     1       3.185   1.416   2.552  1.00  0.00    -0.481 OA
ATOM      5  H   UNL     1       2.604   2.114   2.115  1.00  0.00     0.296 HD
ENDBRANCH   2   4
ENDBRANCH   1   2
BRANCH   1   6
ATOM      6  C   UNL     1       6.113   2.233   0.521  1.00  0.00     0.047 C 
BRANCH   6   7
ATOM      7  C   UNL     1       6.972   1.329  -0.247  1.00  0.00    -0.043 A 
ATOM      8  C   UNL     1       8.334   1.557  -0.373  1.00  0.00     0.008 A 
ATOM      9  C   UNL     1       6.444   0.246  -0.898  1.00  0.00     0.054 A 
ATOM     10  C   UNL     1       9.137   0.728  -1.125  1.00  0.00     0.051 A 
ATOM     11  C   UNL     1       7.231  -0.600  -1.657  1.00  0.00     0.166 A 
ATOM     12  C   UNL     1       8.579  -0.362  -1.773  1.00  0.00     0.165 A 
ATOM     13  O   UNL     1       6.920  -1.733  -2.389  1.00  0.00    -0.454 OA
ATOM     14  O   UNL     1       9.097  -1.369  -2.590  1.00  0.00    -0.454 OA
ATOM     15  C   UNL     1       8.040  -2.043  -3.233  1.00  0.00     0.468 C 
ENDBRANCH   6   7
ENDBRANCH   1   6
TORSDOF 4
ENDMDL
MODEL 3
REMARK VINA RESULT:      -7.5      1.796      5.287
REMARK SMILES O=C(O)CCc1ccc2c(c1)OCO2
REMARK SMILES IDX 4 1 2 2 1 3 3 4 5 6 6 7 7 8 11 9 8 10 10 11 9 12 12 13 14 14
REMARK SMILES IDX 13 15
REMARK H PARENT 3 5
REMARK Flexibility Score: inf
ROOT
ATOM      1  C   UNL     1       8.318  -0.325  -2.827  1.00  0.00     0.127 C 
ENDROOT
BRANCH   1   2
ATOM      2  C   UNL     1       8.473  -1.752  -3.062  1.00  0.00     0.303 C 
ATOM      3  O   UNL     1       9.539  -2.371  -3.036  1.00  0.00    -0.252 OA
BRANCH   2   4
ATOM      4  O   UNL     1       7.312  -2.490  -3.341  1.00  0.00    -0.481 OA
ATOM      5  H   UNL     1       6.763  -2.775  -2.544  1.00  0.00     0.296 HD
ENDBRANCH   2   4
ENDBRANCH   1   2
BRANCH   1   6
ATOM      6  C   UNL     1       8.771   0.117  -1.491  1.00  0.00     0.047 C 
BRANCH   6   7
ATOM      7  C   UNL     1       7.796   0.084  -0.399  1.00  0.00    -0.043 A 
ATOM      8  C   UNL     1       7.738  -0.978   0.490  1.00  0.00     0.008 A 
ATOM      9  C   UNL     1       6.880   1.091  -0.249  1.00  0.00     0.054 A 
ATOM     10  C   UNL     1       6.798  -1.028   1.495  1.00  0.00     0.051 A 
ATOM     11  C   UNL     1       5.927   1.063   0.752  1.00  0.00     0.166 A 
ATOM     12  C   UNL     1       5.883   0.004   1.627  1.00  0.00     0.165 A 
ATOM     13  O   UNL     1       4.922   1.952   1.089  1.00  0.00    -0.454 OA
ATOM     14  O   UNL     1       4.832   0.255   2.511  1.00  0.00    -0.454 OA
ATOM     15  C   UNL     1       4.030   1.297   2.004  1.00  0.00     0.468 C 
ENDBRANCH   6   7
ENDBRANCH   1   6
TORSDOF 4
ENDMDL
MODEL 4
REMARK VINA RESULT:      -7.4      1.951      2.853
REMARK SMILES O=C(O)CCc1ccc2c(c1)OCO2
REMARK SMILES IDX 4 1 2 2 1 3 3 4 5 6 6 7 7 8 11 9 8 10 10 11 9 12 12 13 14 14
REMARK SMILES IDX 13 15
REMARK H PARENT 3 5
REMARK Flexibility Score: inf
ROOT
ATOM      1  C   UNL     1       6.423   1.356   0.647  1.00  0.00     0.127 C 
ENDROOT
BRANCH   1   2
ATOM      2  C   UNL     1       5.211   1.347   1.452  1.00  0.00     0.303 C 
ATOM      3  O   UNL     1       4.268   2.132   1.337  1.00  0.00    -0.252 OA
BRANCH   2   4
ATOM      4  O   UNL     1       5.105   0.361   2.446  1.00  0.00    -0.481 OA
ATOM      5  H   UNL     1       5.131   0.687   3.400  1.00  0.00     0.296 HD
ENDBRANCH   2   4
ENDBRANCH   1   2
BRANCH   1   6
ATOM      6  C   UNL     1       6.224   0.887  -0.741  1.00  0.00     0.047 C 
BRANCH   6   7
ATOM      7  C   UNL     1       6.983  -0.289  -1.173  1.00  0.00    -0.043 A 
ATOM      8  C   UNL     1       7.283  -0.507  -2.509  1.00  0.00     0.008 A 
ATOM      9  C   UNL     1       7.386  -1.234  -0.268  1.00  0.00     0.054 A 
ATOM     10  C   UNL     1       7.965  -1.630  -2.921  1.00  0.00     0.051 A 
ATOM     11  C   UNL     1       8.072  -2.369  -0.658  1.00  0.00     0.166 A 
ATOM     12  C   UNL     1       8.364  -2.571  -1.986  1.00  0.00     0.165 A 
ATOM     13  O   UNL     1       8.569  -3.437   0.067  1.00  0.00    -0.454 OA
ATOM     14  O   UNL     1       9.050  -3.783  -2.067  1.00  0.00    -0.454 OA
ATOM     15  C   UNL     1       8.914  -4.484  -0.853  1.00  0.00     0.468 C 
ENDBRANCH   6   7
ENDBRANCH   1   6
TORSDOF 4
ENDMDL
MODEL 5
REMARK VINA RESULT:      -7.4      0.958      2.122
REMARK SMILES O=C(O)CCc1ccc2c(c1)OCO2
REMARK SMILES IDX 4 1 2 2 1 3 3 4 5 6 6 7 7 8 11 9 8 10 10 11 9 12 12 13 14 14
REMARK SMILES IDX 13 15
REMARK H PARENT 3 5
REMARK Flexibility Score: inf
ROOT
ATOM      1  C   UNL     1       5.386   2.832   0.085  1.00  0.00     0.127 C 
ENDROOT
BRANCH   1   2
ATOM      2  C   UNL     1       6.107   3.850   0.834  1.00  0.00     0.303 C 
ATOM      3  O   UNL     1       6.109   3.970   2.061  1.00  0.00    -0.252 OA
BRANCH   2   4
ATOM      4  O   UNL     1       6.865   4.775   0.100  1.00  0.00    -0.481 OA
ATOM      5  H   UNL     1       7.157   5.603   0.594  1.00  0.00     0.296 HD
ENDBRANCH   2   4
ENDBRANCH   1   2
BRANCH   1   6
ATOM      6  C   UNL     1       5.384   1.501   0.728  1.00  0.00     0.047 C 
BRANCH   6   7
ATOM      7  C   UNL     1       6.239   0.465   0.144  1.00  0.00    -0.043 A 
ATOM      8  C   UNL     1       6.554   0.462  -1.206  1.00  0.00     0.008 A 
ATOM      9  C   UNL     1       6.722  -0.559   0.914  1.00  0.00     0.054 A 
ATOM     10  C   UNL     1       7.328  -0.531  -1.763  1.00  0.00     0.051 A 
ATOM     11  C   UNL     1       7.501  -1.567   0.376  1.00  0.00     0.166 A 
ATOM     12  C   UNL     1       7.807  -1.556  -0.963  1.00  0.00     0.165 A 
ATOM     13  O   UNL     1       8.088  -2.680   0.951  1.00  0.00    -0.454 OA
ATOM     14  O   UNL     1       8.593  -2.683  -1.206  1.00  0.00    -0.454 OA
ATOM     15  C   UNL     1       8.519  -3.556  -0.102  1.00  0.00     0.468 C 
ENDBRANCH   6   7
ENDBRANCH   1   6
TORSDOF 4
ENDMDL
