@<TRIPOS>MOLECULE
/home/cewinharhar/GITHUB/reincatalyze/data/processed/docking_pred/2023-May-17-1006_maxeplen10_maxtrainstep1000_seadep16_gamma099_lrac9e-4_lrcr1e-3_sub6/ae45d061dddc84380b8ad6f9293329cc64ca5b9d_ligand_6.pdbqt
 15 16 0 0 0
SMALL
GASTEIGER

@<TRIPOS>ATOM
      1  C          6.4230    1.3560    0.6470 C.3     1  UNL1        0.1270
      2  C          5.2110    1.3470    1.4520 C.2     1  UNL1        0.3030
      3  O          4.2680    2.1320    1.3370 O.2     1  UNL1       -0.2520
      4  O          5.1050    0.3610    2.4460 O.3     1  UNL1       -0.4810
      5  H          5.1310    0.6870    3.4000 H       1  UNL1        0.2960
      6  C          6.2240    0.8870   -0.7410 C.3     1  UNL1        0.0470
      7  C          6.9830   -0.2890   -1.1730 C.2     1  UNL1       -0.0430
      8  C          7.2830   -0.5070   -2.5090 C.2     1  UNL1        0.0080
      9  C          7.3860   -1.2340   -0.2680 C.2     1  UNL1        0.0540
     10  C          7.9650   -1.6300   -2.9210 C.2     1  UNL1        0.0510
     11  C          8.0720   -2.3690   -0.6580 C.2     1  UNL1        0.1660
     12  C          8.3640   -2.5710   -1.9860 C.2     1  UNL1        0.1650
     13  O          8.5690   -3.4370    0.0670 O.2     1  UNL1       -0.4540
     14  O          9.0500   -3.7830   -2.0670 O.2     1  UNL1       -0.4540
     15  C          8.9140   -4.4840   -0.8530 C.3     1  UNL1        0.4680
@<TRIPOS>BOND
     1    10     8    1
     2    10    12    2
     3     8     7    2
     4    14    12    1
     5    14    15    1
     6    12    11    1
     7     7     6    1
     8     7     9    1
     9    15    13    1
    10     6     1    1
    11    11     9    2
    12    11    13    1
    13     1     2    1
    14     3     2    2
    15     2     4    1
    16     4     5    1
