@<TRIPOS>MOLECULE
/home/cewinharhar/GITHUB/reincatalyze/data/processed/docking_pred/2023-May-17-1006_maxeplen10_maxtrainstep1000_seadep16_gamma099_lrac9e-4_lrcr1e-3_sub6/ae45d061dddc84380b8ad6f9293329cc64ca5b9d_ligand_6.pdbqt
 15 16 0 0 0
SMALL
GASTEIGER

@<TRIPOS>ATOM
      1  C          8.3180   -0.3250   -2.8270 C.3     1  UNL1        0.1270
      2  C          8.4730   -1.7520   -3.0620 C.2     1  UNL1        0.3030
      3  O          9.5390   -2.3710   -3.0360 O.2     1  UNL1       -0.2520
      4  O          7.3120   -2.4900   -3.3410 O.3     1  UNL1       -0.4810
      5  H          6.7630   -2.7750   -2.5440 H       1  UNL1        0.2960
      6  C          8.7710    0.1170   -1.4910 C.3     1  UNL1        0.0470
      7  C          7.7960    0.0840   -0.3990 C.2     1  UNL1       -0.0430
      8  C          7.7380   -0.9780    0.4900 C.2     1  UNL1        0.0080
      9  C          6.8800    1.0910   -0.2490 C.2     1  UNL1        0.0540
     10  C          6.7980   -1.0280    1.4950 C.2     1  UNL1        0.0510
     11  C          5.9270    1.0630    0.7520 C.2     1  UNL1        0.1660
     12  C          5.8830    0.0040    1.6270 C.2     1  UNL1        0.1650
     13  O          4.9220    1.9520    1.0890 O.2     1  UNL1       -0.4540
     14  O          4.8320    0.2550    2.5110 O.2     1  UNL1       -0.4540
     15  C          4.0300    1.2970    2.0040 C.3     1  UNL1        0.4680
@<TRIPOS>BOND
     1     4     2    1
     2     4     5    1
     3     2     3    2
     4     2     1    1
     5     1     6    1
     6     6     7    1
     7     7     9    2
     8     7     8    1
     9     9    11    1
    10     8    10    2
    11    11    13    1
    12    11    12    2
    13    13    15    1
    14    10    12    1
    15    12    14    1
    16    15    14    1
