@<TRIPOS>MOLECULE
/home/cewinharhar/GITHUB/reincatalyze/data/processed/docking_pred/2023-May-17-1006_maxeplen10_maxtrainstep1000_seadep16_gamma099_lrac9e-4_lrcr1e-3_sub6/ae45d061dddc84380b8ad6f9293329cc64ca5b9d_ligand_6.pdbqt
 15 16 0 0 0
SMALL
GASTEIGER

@<TRIPOS>ATOM
      1  C          5.3860    2.8320    0.0850 C.3     1  UNL1        0.1270
      2  C          6.1070    3.8500    0.8340 C.2     1  UNL1        0.3030
      3  O          6.1090    3.9700    2.0610 O.2     1  UNL1       -0.2520
      4  O          6.8650    4.7750    0.1000 O.3     1  UNL1       -0.4810
      5  H          7.1570    5.6030    0.5940 H       1  UNL1        0.2960
      6  C          5.3840    1.5010    0.7280 C.3     1  UNL1        0.0470
      7  C          6.2390    0.4650    0.1440 C.2     1  UNL1       -0.0430
      8  C          6.5540    0.4620   -1.2060 C.2     1  UNL1        0.0080
      9  C          6.7220   -0.5590    0.9140 C.2     1  UNL1        0.0540
     10  C          7.3280   -0.5310   -1.7630 C.2     1  UNL1        0.0510
     11  C          7.5010   -1.5670    0.3760 C.2     1  UNL1        0.1660
     12  C          7.8070   -1.5560   -0.9630 C.2     1  UNL1        0.1650
     13  O          8.0880   -2.6800    0.9510 O.2     1  UNL1       -0.4540
     14  O          8.5930   -2.6830   -1.2060 O.2     1  UNL1       -0.4540
     15  C          8.5190   -3.5560   -0.1020 C.3     1  UNL1        0.4680
@<TRIPOS>BOND
     1    10     8    1
     2    10    12    2
     3     8     7    2
     4    14    12    1
     5    14    15    1
     6    12    11    1
     7    15    13    1
     8     1     6    1
     9     1     2    1
    10     4     5    1
    11     4     2    1
    12     7     6    1
    13     7     9    1
    14    11     9    2
    15    11    13    1
    16     2     3    2
