@<TRIPOS>MOLECULE
/home/cewinharhar/GITHUB/reincatalyze/data/processed/docking_pred/2023-May-17-1006_maxeplen10_maxtrainstep1000_seadep16_gamma099_lrac9e-4_lrcr1e-3_sub6/ae45d061dddc84380b8ad6f9293329cc64ca5b9d_ligand_6.pdbqt
 15 16 0 0 0
SMALL
GASTEIGER

@<TRIPOS>ATOM
      1  C          4.6930    1.8540    0.6830 C.3     1  UNL1        0.1270
      2  C          4.4090    1.1450    1.9210 C.2     1  UNL1        0.3030
      3  O          5.1520    0.3250    2.4650 O.2     1  UNL1       -0.2520
      4  O          3.1850    1.4160    2.5520 O.3     1  UNL1       -0.4810
      5  H          2.6040    2.1140    2.1150 H       1  UNL1        0.2960
      6  C          6.1130    2.2330    0.5210 C.3     1  UNL1        0.0470
      7  C          6.9720    1.3290   -0.2470 C.2     1  UNL1       -0.0430
      8  C          8.3340    1.5570   -0.3730 C.2     1  UNL1        0.0080
      9  C          6.4440    0.2460   -0.8980 C.2     1  UNL1        0.0540
     10  C          9.1370    0.7280   -1.1250 C.2     1  UNL1        0.0510
     11  C          7.2310   -0.6000   -1.6570 C.2     1  UNL1        0.1660
     12  C          8.5790   -0.3620   -1.7730 C.2     1  UNL1        0.1650
     13  O          6.9200   -1.7330   -2.3890 O.2     1  UNL1       -0.4540
     14  O          9.0970   -1.3690   -2.5900 O.2     1  UNL1       -0.4540
     15  C          8.0400   -2.0430   -3.2330 C.3     1  UNL1        0.4680
@<TRIPOS>BOND
     1    15    14    1
     2    15    13    1
     3    14    12    1
     4    13    11    1
     5    12    11    2
     6    12    10    1
     7    11     9    1
     8    10     8    2
     9     9     7    2
    10     8     7    1
    11     7     6    1
    12     6     1    1
    13     1     2    1
    14     2     3    2
    15     2     4    1
    16     5     4    1
