@<TRIPOS>MOLECULE
/home/cewinharhar/GITHUB/reincatalyze/data/processed/docking_pred/2023-May-17-1006_maxeplen10_maxtrainstep1000_seadep16_gamma099_lrac9e-4_lrcr1e-3_sub6/ae62664a3c9eef67376bdc077c2faa7ac5a69a78_ligand_6.pdbqt
 15 16 0 0 0
SMALL
GASTEIGER

@<TRIPOS>ATOM
      1  C          8.3010   -0.3230   -2.8610 C.3     1  UNL1        0.1270
      2  C          8.4700   -1.7520   -3.0730 C.2     1  UNL1        0.3030
      3  O          9.5400   -2.3620   -3.0320 O.2     1  UNL1       -0.2520
      4  O          7.3160   -2.5030   -3.3490 O.3     1  UNL1       -0.4810
      5  H          6.4940   -1.9780   -3.6040 H       1  UNL1        0.2960
      6  C          8.7550    0.1450   -1.5340 C.3     1  UNL1        0.0470
      7  C          7.7900    0.1000   -0.4340 C.2     1  UNL1       -0.0430
      8  C          7.7490   -0.9660    0.4520 C.2     1  UNL1        0.0080
      9  C          6.8680    1.1000   -0.2700 C.2     1  UNL1        0.0540
     10  C          6.8180   -1.0260    1.4650 C.2     1  UNL1        0.0510
     11  C          5.9250    1.0600    0.7390 C.2     1  UNL1        0.1660
     12  C          5.8970   -0.0020    1.6100 C.2     1  UNL1        0.1650
     13  O          4.9160    1.9400    1.0890 O.2     1  UNL1       -0.4540
     14  O          4.8520    0.2370    2.5040 O.2     1  UNL1       -0.4540
     15  C          4.0380    1.2750    2.0090 C.3     1  UNL1        0.4680
@<TRIPOS>BOND
     1     5     4    1
     2     4     2    1
     3     2     3    2
     4     2     1    1
     5     1     6    1
     6     6     7    1
     7     7     9    2
     8     7     8    1
     9     9    11    1
    10     8    10    2
    11    11    13    1
    12    11    12    2
    13    13    15    1
    14    10    12    1
    15    12    14    1
    16    15    14    1
