@<TRIPOS>MOLECULE
/home/cewinharhar/GITHUB/reincatalyze/data/processed/docking_pred/2023-May-17-1006_maxeplen10_maxtrainstep1000_seadep16_gamma099_lrac9e-4_lrcr1e-3_sub6/ae62664a3c9eef67376bdc077c2faa7ac5a69a78_ligand_6.pdbqt
 15 16 0 0 0
SMALL
GASTEIGER

@<TRIPOS>ATOM
      1  C          4.6740    1.8720    0.6720 C.3     1  UNL1        0.1270
      2  C          4.3960    1.1710    1.9160 C.2     1  UNL1        0.3030
      3  O          5.1430    0.3600    2.4650 O.2     1  UNL1       -0.2520
      4  O          3.1710    1.4410    2.5480 O.3     1  UNL1       -0.4810
      5  H          3.1910    1.4870    3.5550 H       1  UNL1        0.2960
      6  C          6.0910    2.2560    0.5040 C.3     1  UNL1        0.0470
      7  C          6.9530    1.3490   -0.2570 C.2     1  UNL1       -0.0430
      8  C          8.3150    1.5790   -0.3840 C.2     1  UNL1        0.0080
      9  C          6.4280    0.2610   -0.9030 C.2     1  UNL1        0.0540
     10  C          9.1200    0.7470   -1.1290 C.2     1  UNL1        0.0510
     11  C          7.2170   -0.5880   -1.6560 C.2     1  UNL1        0.1660
     12  C          8.5650   -0.3480   -1.7710 C.2     1  UNL1        0.1650
     13  O          6.9100   -1.7260   -2.3810 O.2     1  UNL1       -0.4540
     14  O          9.0860   -1.3590   -2.5810 O.2     1  UNL1       -0.4540
     15  C          8.0310   -2.0390   -3.2210 C.3     1  UNL1        0.4680
@<TRIPOS>BOND
     1    15    14    1
     2    15    13    1
     3    14    12    1
     4    13    11    1
     5    12    11    2
     6    12    10    1
     7    11     9    1
     8    10     8    2
     9     9     7    2
    10     8     7    1
    11     7     6    1
    12     6     1    1
    13     1     2    1
    14     2     3    2
    15     2     4    1
    16     4     5    1
