@<TRIPOS>MOLECULE
/home/cewinharhar/GITHUB/reincatalyze/data/processed/docking_pred/2023-May-17-1006_maxeplen10_maxtrainstep1000_seadep16_gamma099_lrac9e-4_lrcr1e-3_sub6/ae62664a3c9eef67376bdc077c2faa7ac5a69a78_ligand_6.pdbqt
 15 16 0 0 0
SMALL
GASTEIGER

@<TRIPOS>ATOM
      1  C          5.4140    2.8710    0.1220 C.3     1  UNL1        0.1270
      2  C          6.2410    3.8500    0.8100 C.2     1  UNL1        0.3030
      3  O          6.8700    4.7630    0.2710 O.2     1  UNL1       -0.2520
      4  O          6.3320    3.7490    2.2070 O.3     1  UNL1       -0.4810
      5  H          5.9980    4.5420    2.7330 H       1  UNL1        0.2960
      6  C          5.3450    1.5600    0.8020 C.3     1  UNL1        0.0470
      7  C          6.1280    0.4610    0.2340 C.2     1  UNL1       -0.0430
      8  C          6.5880   -0.5840    1.0210 C.2     1  UNL1        0.0080
      9  C          6.4630    0.4530   -1.0940 C.2     1  UNL1        0.0540
     10  C          7.3540   -1.6000    0.4950 C.2     1  UNL1        0.0510
     11  C          7.2310   -0.5560   -1.6440 C.2     1  UNL1        0.1660
     12  C          7.6790   -1.5860   -0.8520 C.2     1  UNL1        0.1650
     13  O          7.6830   -0.7680   -2.9340 O.2     1  UNL1       -0.4540
     14  O          8.4160   -2.4370   -1.6760 O.2     1  UNL1       -0.4540
     15  C          8.6920   -1.7880   -2.8960 C.3     1  UNL1        0.4680
@<TRIPOS>BOND
     1    13    15    1
     2    13    11    1
     3    15    14    1
     4    14    12    1
     5    11     9    1
     6    11    12    2
     7     9     7    2
     8    12    10    1
     9     1     6    1
    10     1     2    1
    11     7     6    1
    12     7     8    1
    13     3     2    2
    14    10     8    2
    15     2     4    1
    16     4     5    1
