@<TRIPOS>MOLECULE
/home/cewinharhar/GITHUB/reincatalyze/data/processed/docking_pred/2023-May-17-1006_maxeplen10_maxtrainstep1000_seadep16_gamma099_lrac9e-4_lrcr1e-3_sub6/ae62664a3c9eef67376bdc077c2faa7ac5a69a78_ligand_6.pdbqt
 15 16 0 0 0
SMALL
GASTEIGER

@<TRIPOS>ATOM
      1  C          6.3720    1.3380    0.6180 C.3     1  UNL1        0.1270
      2  C          5.1770    1.3090    1.4460 C.2     1  UNL1        0.3030
      3  O          4.2390    2.1060    1.3800 O.2     1  UNL1       -0.2520
      4  O          5.0800    0.2870    2.4030 O.3     1  UNL1       -0.4810
      5  H          4.2230    0.2520    2.9330 H       1  UNL1        0.2960
      6  C          6.1550    0.8680   -0.7660 C.3     1  UNL1        0.0470
      7  C          6.9360   -0.2850   -1.2200 C.2     1  UNL1       -0.0430
      8  C          7.2660   -0.4560   -2.5560 C.2     1  UNL1        0.0080
      9  C          7.3320   -1.2540   -0.3370 C.2     1  UNL1        0.0540
     10  C          7.9690   -1.5580   -2.9900 C.2     1  UNL1        0.0510
     11  C          8.0380   -2.3680   -0.7490 C.2     1  UNL1        0.1660
     12  C          8.3600   -2.5240   -2.0760 C.2     1  UNL1        0.1650
     13  O          8.5340   -3.4530   -0.0480 O.2     1  UNL1       -0.4540
     14  O          9.0620   -3.7250   -2.1820 O.2     1  UNL1       -0.4540
     15  C          8.9090   -4.4660   -0.9940 C.3     1  UNL1        0.4680
@<TRIPOS>BOND
     1    10     8    1
     2    10    12    2
     3     8     7    2
     4    14    12    1
     5    14    15    1
     6    12    11    1
     7     7     6    1
     8     7     9    1
     9    15    13    1
    10     6     1    1
    11    11     9    2
    12    11    13    1
    13     1     2    1
    14     3     2    2
    15     2     4    1
    16     4     5    1
