@<TRIPOS>MOLECULE
/home/cewinharhar/GITHUB/reincatalyze/data/processed/docking_pred/2023-May-17-1006_maxeplen10_maxtrainstep1000_seadep16_gamma099_lrac9e-4_lrcr1e-3_sub6/ae62664a3c9eef67376bdc077c2faa7ac5a69a78_ligand_6.pdbqt
 15 16 0 0 0
SMALL
GASTEIGER

@<TRIPOS>ATOM
      1  C          5.3620    2.8590    0.1150 C.3     1  UNL1        0.1270
      2  C          6.1760    3.7540    0.9230 C.2     1  UNL1        0.3030
      3  O          6.3100    3.6930    2.1460 O.2     1  UNL1       -0.2520
      4  O          6.8680    4.7750    0.2530 O.3     1  UNL1       -0.4810
      5  H          6.8760    4.7220   -0.7540 H       1  UNL1        0.2960
      6  C          5.2400    1.4940    0.6710 C.3     1  UNL1        0.0470
      7  C          6.1020    0.4530    0.1070 C.2     1  UNL1       -0.0430
      8  C          6.3890    0.4060   -1.2480 C.2     1  UNL1        0.0080
      9  C          6.6220   -0.5330    0.9030 C.2     1  UNL1        0.0540
     10  C          7.1700   -0.5930   -1.7860 C.2     1  UNL1        0.0510
     11  C          7.4090   -1.5450    0.3860 C.2     1  UNL1        0.1660
     12  C          7.6860   -1.5780   -0.9590 C.2     1  UNL1        0.1650
     13  O          8.0300   -2.6240    0.9890 O.2     1  UNL1       -0.4540
     14  O          8.4890   -2.6990   -1.1770 O.2     1  UNL1       -0.4540
     15  C          8.4550   -3.5300   -0.0400 C.3     1  UNL1        0.4680
@<TRIPOS>BOND
     1    10     8    1
     2    10    12    2
     3     8     7    2
     4    14    12    1
     5    14    15    1
     6    12    11    1
     7     5     4    1
     8    15    13    1
     9     7     6    1
    10     7     9    1
    11     1     6    1
    12     1     2    1
    13     4     2    1
    14    11     9    2
    15    11    13    1
    16     2     3    2
