MODEL 1
REMARK VINA RESULT:      -7.7      0.000      0.000
REMARK SMILES O=C(O)CCc1ccc2c(c1)OCO2
REMARK SMILES IDX 4 1 2 2 1 3 3 4 5 6 6 7 7 8 11 9 8 10 10 11 9 12 12 13 14 14
REMARK SMILES IDX 13 15
REMARK H PARENT 3 5
REMARK Flexibility Score: inf
ROOT
ATOM      1  C   UNL     1       5.414   2.871   0.122  1.00  0.00     0.127 C 
ENDROOT
BRANCH   1   2
ATOM      2  C   UNL     1       6.241   3.850   0.810  1.00  0.00     0.303 C 
ATOM      3  O   UNL     1       6.870   4.763   0.271  1.00  0.00    -0.252 OA
BRANCH   2   4
ATOM      4  O   UNL     1       6.332   3.749   2.207  1.00  0.00    -0.481 OA
ATOM      5  H   UNL     1       5.998   4.542   2.733  1.00  0.00     0.296 HD
ENDBRANCH   2   4
ENDBRANCH   1   2
BRANCH   1   6
ATOM      6  C   UNL     1       5.345   1.560   0.802  1.00  0.00     0.047 C 
BRANCH   6   7
ATOM      7  C   UNL     1       6.128   0.461   0.234  1.00  0.00    -0.043 A 
ATOM      8  C   UNL     1       6.588  -0.584   1.021  1.00  0.00     0.008 A 
ATOM      9  C   UNL     1       6.463   0.453  -1.094  1.00  0.00     0.054 A 
ATOM     10  C   UNL     1       7.354  -1.600   0.495  1.00  0.00     0.051 A 
ATOM     11  C   UNL     1       7.231  -0.556  -1.644  1.00  0.00     0.166 A 
ATOM     12  C   UNL     1       7.679  -1.586  -0.852  1.00  0.00     0.165 A 
ATOM     13  O   UNL     1       7.683  -0.768  -2.934  1.00  0.00    -0.454 OA
ATOM     14  O   UNL     1       8.416  -2.437  -1.676  1.00  0.00    -0.454 OA
ATOM     15  C   UNL     1       8.692  -1.788  -2.896  1.00  0.00     0.468 C 
ENDBRANCH   6   7
ENDBRANCH   1   6
TORSDOF 4
ENDMDL
MODEL 2
REMARK VINA RESULT:      -7.6      2.116      2.509
REMARK SMILES O=C(O)CCc1ccc2c(c1)OCO2
REMARK SMILES IDX 4 1 2 2 1 3 3 4 5 6 6 7 7 8 11 9 8 10 10 11 9 12 12 13 14 14
REMARK SMILES IDX 13 15
REMARK H PARENT 3 5
REMARK Flexibility Score: inf
ROOT
ATOM      1  C   UNL     1       4.674   1.872   0.672  1.00  0.00     0.127 C 
ENDROOT
BRANCH   1   2
ATOM      2  C   UNL     1       4.396   1.171   1.916  1.00  0.00     0.303 C 
ATOM      3  O   UNL     1       5.143   0.360   2.465  1.00  0.00    -0.252 OA
BRANCH   2   4
ATOM      4  O   UNL     1       3.171   1.441   2.548  1.00  0.00    -0.481 OA
ATOM      5  H   UNL     1       3.191   1.487   3.555  1.00  0.00     0.296 HD
ENDBRANCH   2   4
ENDBRANCH   1   2
BRANCH   1   6
ATOM      6  C   UNL     1       6.091   2.256   0.504  1.00  0.00     0.047 C 
BRANCH   6   7
ATOM      7  C   UNL     1       6.953   1.349  -0.257  1.00  0.00    -0.043 A 
ATOM      8  C   UNL     1       8.315   1.579  -0.384  1.00  0.00     0.008 A 
ATOM      9  C   UNL     1       6.428   0.261  -0.903  1.00  0.00     0.054 A 
ATOM     10  C   UNL     1       9.120   0.747  -1.129  1.00  0.00     0.051 A 
ATOM     11  C   UNL     1       7.217  -0.588  -1.656  1.00  0.00     0.166 A 
ATOM     12  C   UNL     1       8.565  -0.348  -1.771  1.00  0.00     0.165 A 
ATOM     13  O   UNL     1       6.910  -1.726  -2.381  1.00  0.00    -0.454 OA
ATOM     14  O   UNL     1       9.086  -1.359  -2.581  1.00  0.00    -0.454 OA
ATOM     15  C   UNL     1       8.031  -2.039  -3.221  1.00  0.00     0.468 C 
ENDBRANCH   6   7
ENDBRANCH   1   6
TORSDOF 4
ENDMDL
MODEL 3
REMARK VINA RESULT:      -7.5      0.958      2.126
REMARK SMILES O=C(O)CCc1ccc2c(c1)OCO2
REMARK SMILES IDX 4 1 2 2 1 3 3 4 5 6 6 7 7 8 11 9 8 10 10 11 9 12 12 13 14 14
REMARK SMILES IDX 13 15
REMARK H PARENT 3 5
REMARK Flexibility Score: inf
ROOT
ATOM      1  C   UNL     1       5.362   2.859   0.115  1.00  0.00     0.127 C 
ENDROOT
BRANCH   1   2
ATOM      2  C   UNL     1       6.176   3.754   0.923  1.00  0.00     0.303 C 
ATOM      3  O   UNL     1       6.310   3.693   2.146  1.00  0.00    -0.252 OA
BRANCH   2   4
ATOM      4  O   UNL     1       6.868   4.775   0.253  1.00  0.00    -0.481 OA
ATOM      5  H   UNL     1       6.876   4.722  -0.754  1.00  0.00     0.296 HD
ENDBRANCH   2   4
ENDBRANCH   1   2
BRANCH   1   6
ATOM      6  C   UNL     1       5.240   1.494   0.671  1.00  0.00     0.047 C 
BRANCH   6   7
ATOM      7  C   UNL     1       6.102   0.453   0.107  1.00  0.00    -0.043 A 
ATOM      8  C   UNL     1       6.389   0.406  -1.248  1.00  0.00     0.008 A 
ATOM      9  C   UNL     1       6.622  -0.533   0.903  1.00  0.00     0.054 A 
ATOM     10  C   UNL     1       7.170  -0.593  -1.786  1.00  0.00     0.051 A 
ATOM     11  C   UNL     1       7.409  -1.545   0.386  1.00  0.00     0.166 A 
ATOM     12  C   UNL     1       7.686  -1.578  -0.959  1.00  0.00     0.165 A 
ATOM     13  O   UNL     1       8.030  -2.624   0.989  1.00  0.00    -0.454 OA
ATOM     14  O   UNL     1       8.489  -2.699  -1.177  1.00  0.00    -0.454 OA
ATOM     15  C   UNL     1       8.455  -3.530  -0.040  1.00  0.00     0.468 C 
ENDBRANCH   6   7
ENDBRANCH   1   6
TORSDOF 4
ENDMDL
MODEL 4
REMARK VINA RESULT:      -7.5      1.952      2.857
REMARK SMILES O=C(O)CCc1ccc2c(c1)OCO2
REMARK SMILES IDX 4 1 2 2 1 3 3 4 5 6 6 7 7 8 11 9 8 10 10 11 9 12 12 13 14 14
REMARK SMILES IDX 13 15
REMARK H PARENT 3 5
REMARK Flexibility Score: inf
ROOT
ATOM      1  C   UNL     1       6.372   1.338   0.618  1.00  0.00     0.127 C 
ENDROOT
BRANCH   1   2
ATOM      2  C   UNL     1       5.177   1.309   1.446  1.00  0.00     0.303 C 
ATOM      3  O   UNL     1       4.239   2.106   1.380  1.00  0.00    -0.252 OA
BRANCH   2   4
ATOM      4  O   UNL     1       5.080   0.287   2.403  1.00  0.00    -0.481 OA
ATOM      5  H   UNL     1       4.223   0.252   2.933  1.00  0.00     0.296 HD
ENDBRANCH   2   4
ENDBRANCH   1   2
BRANCH   1   6
ATOM      6  C   UNL     1       6.155   0.868  -0.766  1.00  0.00     0.047 C 
BRANCH   6   7
ATOM      7  C   UNL     1       6.936  -0.285  -1.220  1.00  0.00    -0.043 A 
ATOM      8  C   UNL     1       7.266  -0.456  -2.556  1.00  0.00     0.008 A 
ATOM      9  C   UNL     1       7.332  -1.254  -0.337  1.00  0.00     0.054 A 
ATOM     10  C   UNL     1       7.969  -1.558  -2.990  1.00  0.00     0.051 A 
ATOM     11  C   UNL     1       8.038  -2.368  -0.749  1.00  0.00     0.166 A 
ATOM     12  C   UNL     1       8.360  -2.524  -2.076  1.00  0.00     0.165 A 
ATOM     13  O   UNL     1       8.534  -3.453  -0.048  1.00  0.00    -0.454 OA
ATOM     14  O   UNL     1       9.062  -3.725  -2.182  1.00  0.00    -0.454 OA
ATOM     15  C   UNL     1       8.909  -4.466  -0.994  1.00  0.00     0.468 C 
ENDBRANCH   6   7
ENDBRANCH   1   6
TORSDOF 4
ENDMDL
MODEL 5
REMARK VINA RESULT:      -7.4      1.795      5.285
REMARK SMILES O=C(O)CCc1ccc2c(c1)OCO2
REMARK SMILES IDX 4 1 2 2 1 3 3 4 5 6 6 7 7 8 11 9 8 10 10 11 9 12 12 13 14 14
REMARK SMILES IDX 13 15
REMARK H PARENT 3 5
REMARK Flexibility Score: inf
ROOT
ATOM      1  C   UNL     1       8.301  -0.323  -2.861  1.00  0.00     0.127 C 
ENDROOT
BRANCH   1   2
ATOM      2  C   UNL     1       8.470  -1.752  -3.073  1.00  0.00     0.303 C 
ATOM      3  O   UNL     1       9.540  -2.362  -3.032  1.00  0.00    -0.252 OA
BRANCH   2   4
ATOM      4  O   UNL     1       7.316  -2.503  -3.349  1.00  0.00    -0.481 OA
ATOM      5  H   UNL     1       6.494  -1.978  -3.604  1.00  0.00     0.296 HD
ENDBRANCH   2   4
ENDBRANCH   1   2
BRANCH   1   6
ATOM      6  C   UNL     1       8.755   0.145  -1.534  1.00  0.00     0.047 C 
BRANCH   6   7
ATOM      7  C   UNL     1       7.790   0.100  -0.434  1.00  0.00    -0.043 A 
ATOM      8  C   UNL     1       7.749  -0.966   0.452  1.00  0.00     0.008 A 
ATOM      9  C   UNL     1       6.868   1.100  -0.270  1.00  0.00     0.054 A 
ATOM     10  C   UNL     1       6.818  -1.026   1.465  1.00  0.00     0.051 A 
ATOM     11  C   UNL     1       5.925   1.060   0.739  1.00  0.00     0.166 A 
ATOM     12  C   UNL     1       5.897  -0.002   1.610  1.00  0.00     0.165 A 
ATOM     13  O   UNL     1       4.916   1.940   1.089  1.00  0.00    -0.454 OA
ATOM     14  O   UNL     1       4.852   0.237   2.504  1.00  0.00    -0.454 OA
ATOM     15  C   UNL     1       4.038   1.275   2.009  1.00  0.00     0.468 C 
ENDBRANCH   6   7
ENDBRANCH   1   6
TORSDOF 4
ENDMDL
