@<TRIPOS>MOLECULE
/home/cewinharhar/GITHUB/reincatalyze/data/processed/docking_pred/2023-May-17-1006_maxeplen10_maxtrainstep1000_seadep16_gamma099_lrac9e-4_lrcr1e-3_sub6/af0dd28332db5651a88784e76b435690c0a42449_ligand_6.pdbqt
 15 16 0 0 0
SMALL
GASTEIGER

@<TRIPOS>ATOM
      1  C          4.6700    1.8530    0.6760 C.3     1  UNL1        0.1270
      2  C          4.3960    1.1520    1.9200 C.2     1  UNL1        0.3030
      3  O          5.1450    0.3390    2.4650 O.2     1  UNL1       -0.2520
      4  O          3.1750    1.4230    2.5570 O.3     1  UNL1       -0.4810
      5  H          2.3520    1.3910    1.9740 H       1  UNL1        0.2960
      6  C          6.0860    2.2430    0.5060 C.3     1  UNL1        0.0470
      7  C          6.9520    1.3360   -0.2510 C.2     1  UNL1       -0.0430
      8  C          8.3140    1.5670   -0.3710 C.2     1  UNL1        0.0080
      9  C          6.4310    0.2480   -0.8990 C.2     1  UNL1        0.0540
     10  C          9.1230    0.7350   -1.1130 C.2     1  UNL1        0.0510
     11  C          7.2240   -0.6000   -1.6480 C.2     1  UNL1        0.1660
     12  C          8.5720   -0.3600   -1.7580 C.2     1  UNL1        0.1650
     13  O          6.9210   -1.7390   -2.3740 O.2     1  UNL1       -0.4540
     14  O          9.0970   -1.3710   -2.5650 O.2     1  UNL1       -0.4540
     15  C          8.0460   -2.0520   -3.2100 C.3     1  UNL1        0.4680
@<TRIPOS>BOND
     1    15    14    1
     2    15    13    1
     3    14    12    1
     4    13    11    1
     5    12    11    2
     6    12    10    1
     7    11     9    1
     8    10     8    2
     9     9     7    2
    10     8     7    1
    11     7     6    1
    12     6     1    1
    13     1     2    1
    14     2     3    2
    15     2     4    1
    16     5     4    1
