@<TRIPOS>MOLECULE
/home/cewinharhar/GITHUB/reincatalyze/data/processed/docking_pred/2023-May-17-1006_maxeplen10_maxtrainstep1000_seadep16_gamma099_lrac9e-4_lrcr1e-3_sub6/af0dd28332db5651a88784e76b435690c0a42449_ligand_6.pdbqt
 15 16 0 0 0
SMALL
GASTEIGER

@<TRIPOS>ATOM
      1  C          6.3770    1.3220    0.6690 C.3     1  UNL1        0.1270
      2  C          5.2540    1.1370    1.5750 C.2     1  UNL1        0.3030
      3  O          5.1550    0.2470    2.4210 O.2     1  UNL1       -0.2520
      4  O          4.1920    2.0500    1.4790 O.3     1  UNL1       -0.4810
      5  H          4.2470    2.7200    0.7270 H       1  UNL1        0.2960
      6  C          6.1340    0.8150   -0.6990 C.3     1  UNL1        0.0470
      7  C          6.9230   -0.3360   -1.1440 C.2     1  UNL1       -0.0430
      8  C          7.2580   -0.5120   -2.4780 C.2     1  UNL1        0.0080
      9  C          7.3220   -1.2980   -0.2540 C.2     1  UNL1        0.0540
     10  C          7.9690   -1.6130   -2.9030 C.2     1  UNL1        0.0510
     11  C          8.0370   -2.4100   -0.6580 C.2     1  UNL1        0.1660
     12  C          8.3630   -2.5710   -1.9830 C.2     1  UNL1        0.1650
     13  O          8.5360   -3.4880    0.0500 O.2     1  UNL1       -0.4540
     14  O          9.0720   -3.7690   -2.0810 O.2     1  UNL1       -0.4540
     15  C          8.9200   -4.5040   -0.8890 C.3     1  UNL1        0.4680
@<TRIPOS>BOND
     1    10     8    1
     2    10    12    2
     3     8     7    2
     4    14    12    1
     5    14    15    1
     6    12    11    1
     7     7     6    1
     8     7     9    1
     9    15    13    1
    10     6     1    1
    11    11     9    2
    12    11    13    1
    13     1     2    1
    14     5     4    1
    15     4     2    1
    16     2     3    2
