MODEL 1
REMARK VINA RESULT:      -7.7      0.000      0.000
REMARK SMILES O=C(O)CCc1ccc2c(c1)OCO2
REMARK SMILES IDX 4 1 2 2 1 3 3 4 5 6 6 7 7 8 11 9 8 10 10 11 9 12 12 13 14 14
REMARK SMILES IDX 13 15
REMARK H PARENT 3 5
REMARK Flexibility Score: inf
ROOT
ATOM      1  C   UNL     1       5.441   2.872   0.100  1.00  0.00     0.127 C 
ENDROOT
BRANCH   1   2
ATOM      2  C   UNL     1       6.260   3.861   0.784  1.00  0.00     0.303 C 
ATOM      3  O   UNL     1       6.921   4.746   0.238  1.00  0.00    -0.252 OA
BRANCH   2   4
ATOM      4  O   UNL     1       6.303   3.803   2.186  1.00  0.00    -0.481 OA
ATOM      5  H   UNL     1       5.594   4.329   2.675  1.00  0.00     0.296 HD
ENDBRANCH   2   4
ENDBRANCH   1   2
BRANCH   1   6
ATOM      6  C   UNL     1       5.374   1.566   0.790  1.00  0.00     0.047 C 
BRANCH   6   7
ATOM      7  C   UNL     1       6.142   0.459   0.218  1.00  0.00    -0.043 A 
ATOM      8  C   UNL     1       6.580  -0.600   0.999  1.00  0.00     0.008 A 
ATOM      9  C   UNL     1       6.486   0.456  -1.108  1.00  0.00     0.054 A 
ATOM     10  C   UNL     1       7.333  -1.624   0.470  1.00  0.00     0.051 A 
ATOM     11  C   UNL     1       7.241  -0.561  -1.661  1.00  0.00     0.166 A 
ATOM     12  C   UNL     1       7.666  -1.605  -0.874  1.00  0.00     0.165 A 
ATOM     13  O   UNL     1       7.698  -0.770  -2.950  1.00  0.00    -0.454 OA
ATOM     14  O   UNL     1       8.395  -2.461  -1.701  1.00  0.00    -0.454 OA
ATOM     15  C   UNL     1       8.690  -1.807  -2.913  1.00  0.00     0.468 C 
ENDBRANCH   6   7
ENDBRANCH   1   6
TORSDOF 4
ENDMDL
MODEL 2
REMARK VINA RESULT:      -7.6      2.126      2.519
REMARK SMILES O=C(O)CCc1ccc2c(c1)OCO2
REMARK SMILES IDX 4 1 2 2 1 3 3 4 5 6 6 7 7 8 11 9 8 10 10 11 9 12 12 13 14 14
REMARK SMILES IDX 13 15
REMARK H PARENT 3 5
REMARK Flexibility Score: inf
ROOT
ATOM      1  C   UNL     1       4.670   1.853   0.676  1.00  0.00     0.127 C 
ENDROOT
BRANCH   1   2
ATOM      2  C   UNL     1       4.396   1.152   1.920  1.00  0.00     0.303 C 
ATOM      3  O   UNL     1       5.145   0.339   2.465  1.00  0.00    -0.252 OA
BRANCH   2   4
ATOM      4  O   UNL     1       3.175   1.423   2.557  1.00  0.00    -0.481 OA
ATOM      5  H   UNL     1       2.352   1.391   1.974  1.00  0.00     0.296 HD
ENDBRANCH   2   4
ENDBRANCH   1   2
BRANCH   1   6
ATOM      6  C   UNL     1       6.086   2.243   0.506  1.00  0.00     0.047 C 
BRANCH   6   7
ATOM      7  C   UNL     1       6.952   1.336  -0.251  1.00  0.00    -0.043 A 
ATOM      8  C   UNL     1       8.314   1.567  -0.371  1.00  0.00     0.008 A 
ATOM      9  C   UNL     1       6.431   0.248  -0.899  1.00  0.00     0.054 A 
ATOM     10  C   UNL     1       9.123   0.735  -1.113  1.00  0.00     0.051 A 
ATOM     11  C   UNL     1       7.224  -0.600  -1.648  1.00  0.00     0.166 A 
ATOM     12  C   UNL     1       8.572  -0.360  -1.758  1.00  0.00     0.165 A 
ATOM     13  O   UNL     1       6.921  -1.739  -2.374  1.00  0.00    -0.454 OA
ATOM     14  O   UNL     1       9.097  -1.371  -2.565  1.00  0.00    -0.454 OA
ATOM     15  C   UNL     1       8.046  -2.052  -3.210  1.00  0.00     0.468 C 
ENDBRANCH   6   7
ENDBRANCH   1   6
TORSDOF 4
ENDMDL
MODEL 3
REMARK VINA RESULT:      -7.5      1.988      2.960
REMARK SMILES O=C(O)CCc1ccc2c(c1)OCO2
REMARK SMILES IDX 4 1 2 2 1 3 3 4 5 6 6 7 7 8 11 9 8 10 10 11 9 12 12 13 14 14
REMARK SMILES IDX 13 15
REMARK H PARENT 3 5
REMARK Flexibility Score: inf
ROOT
ATOM      1  C   UNL     1       6.377   1.322   0.669  1.00  0.00     0.127 C 
ENDROOT
BRANCH   1   2
ATOM      2  C   UNL     1       5.254   1.137   1.575  1.00  0.00     0.303 C 
ATOM      3  O   UNL     1       5.155   0.247   2.421  1.00  0.00    -0.252 OA
BRANCH   2   4
ATOM      4  O   UNL     1       4.192   2.050   1.479  1.00  0.00    -0.481 OA
ATOM      5  H   UNL     1       4.247   2.720   0.727  1.00  0.00     0.296 HD
ENDBRANCH   2   4
ENDBRANCH   1   2
BRANCH   1   6
ATOM      6  C   UNL     1       6.134   0.815  -0.699  1.00  0.00     0.047 C 
BRANCH   6   7
ATOM      7  C   UNL     1       6.923  -0.336  -1.144  1.00  0.00    -0.043 A 
ATOM      8  C   UNL     1       7.258  -0.512  -2.478  1.00  0.00     0.008 A 
ATOM      9  C   UNL     1       7.322  -1.298  -0.254  1.00  0.00     0.054 A 
ATOM     10  C   UNL     1       7.969  -1.613  -2.903  1.00  0.00     0.051 A 
ATOM     11  C   UNL     1       8.037  -2.410  -0.658  1.00  0.00     0.166 A 
ATOM     12  C   UNL     1       8.363  -2.571  -1.983  1.00  0.00     0.165 A 
ATOM     13  O   UNL     1       8.536  -3.488   0.050  1.00  0.00    -0.454 OA
ATOM     14  O   UNL     1       9.072  -3.769  -2.081  1.00  0.00    -0.454 OA
ATOM     15  C   UNL     1       8.920  -4.504  -0.889  1.00  0.00     0.468 C 
ENDBRANCH   6   7
ENDBRANCH   1   6
TORSDOF 4
ENDMDL
MODEL 4
REMARK VINA RESULT:      -7.4      1.799      5.287
REMARK SMILES O=C(O)CCc1ccc2c(c1)OCO2
REMARK SMILES IDX 4 1 2 2 1 3 3 4 5 6 6 7 7 8 11 9 8 10 10 11 9 12 12 13 14 14
REMARK SMILES IDX 13 15
REMARK H PARENT 3 5
REMARK Flexibility Score: inf
ROOT
ATOM      1  C   UNL     1       8.305  -0.328  -2.856  1.00  0.00     0.127 C 
ENDROOT
BRANCH   1   2
ATOM      2  C   UNL     1       8.470  -1.758  -3.067  1.00  0.00     0.303 C 
ATOM      3  O   UNL     1       9.539  -2.370  -3.027  1.00  0.00    -0.252 OA
BRANCH   2   4
ATOM      4  O   UNL     1       7.314  -2.506  -3.341  1.00  0.00    -0.481 OA
ATOM      5  H   UNL     1       7.443  -3.335  -3.902  1.00  0.00     0.296 HD
ENDBRANCH   2   4
ENDBRANCH   1   2
BRANCH   1   6
ATOM      6  C   UNL     1       8.758   0.139  -1.528  1.00  0.00     0.047 C 
BRANCH   6   7
ATOM      7  C   UNL     1       7.790   0.100  -0.430  1.00  0.00    -0.043 A 
ATOM      8  C   UNL     1       7.742  -0.965   0.456  1.00  0.00     0.008 A 
ATOM      9  C   UNL     1       6.872   1.103  -0.270  1.00  0.00     0.054 A 
ATOM     10  C   UNL     1       6.809  -1.021   1.467  1.00  0.00     0.051 A 
ATOM     11  C   UNL     1       5.927   1.069   0.737  1.00  0.00     0.166 A 
ATOM     12  C   UNL     1       5.892   0.008   1.609  1.00  0.00     0.165 A 
ATOM     13  O   UNL     1       4.921   1.955   1.084  1.00  0.00    -0.454 OA
ATOM     14  O   UNL     1       4.846   0.253   2.501  1.00  0.00    -0.454 OA
ATOM     15  C   UNL     1       4.037   1.294   2.002  1.00  0.00     0.468 C 
ENDBRANCH   6   7
ENDBRANCH   1   6
TORSDOF 4
ENDMDL
