@<TRIPOS>MOLECULE
/home/cewinharhar/GITHUB/reincatalyze/data/processed/docking_pred/2023-May-17-1006_maxeplen10_maxtrainstep1000_seadep16_gamma099_lrac9e-4_lrcr1e-3_sub6/af0dd28332db5651a88784e76b435690c0a42449_ligand_6.pdbqt
 15 16 0 0 0
SMALL
GASTEIGER

@<TRIPOS>ATOM
      1  C          8.3050   -0.3280   -2.8560 C.3     1  UNL1        0.1270
      2  C          8.4700   -1.7580   -3.0670 C.2     1  UNL1        0.3030
      3  O          9.5390   -2.3700   -3.0270 O.2     1  UNL1       -0.2520
      4  O          7.3140   -2.5060   -3.3410 O.3     1  UNL1       -0.4810
      5  H          7.4430   -3.3350   -3.9020 H       1  UNL1        0.2960
      6  C          8.7580    0.1390   -1.5280 C.3     1  UNL1        0.0470
      7  C          7.7900    0.1000   -0.4300 C.2     1  UNL1       -0.0430
      8  C          7.7420   -0.9650    0.4560 C.2     1  UNL1        0.0080
      9  C          6.8720    1.1030   -0.2700 C.2     1  UNL1        0.0540
     10  C          6.8090   -1.0210    1.4670 C.2     1  UNL1        0.0510
     11  C          5.9270    1.0690    0.7370 C.2     1  UNL1        0.1660
     12  C          5.8920    0.0080    1.6090 C.2     1  UNL1        0.1650
     13  O          4.9210    1.9550    1.0840 O.2     1  UNL1       -0.4540
     14  O          4.8460    0.2530    2.5010 O.2     1  UNL1       -0.4540
     15  C          4.0370    1.2940    2.0020 C.3     1  UNL1        0.4680
@<TRIPOS>BOND
     1     5     4    1
     2     4     2    1
     3     2     3    2
     4     2     1    1
     5     1     6    1
     6     6     7    1
     7     7     9    2
     8     7     8    1
     9     9    11    1
    10     8    10    2
    11    11    13    1
    12    11    12    2
    13    13    15    1
    14    10    12    1
    15    12    14    1
    16    15    14    1
