@<TRIPOS>MOLECULE
/home/cewinharhar/GITHUB/reincatalyze/data/processed/docking_pred/2023-May-17-1006_maxeplen10_maxtrainstep1000_seadep16_gamma099_lrac9e-4_lrcr1e-3_sub6/af0dd28332db5651a88784e76b435690c0a42449_ligand_6.pdbqt
 15 16 0 0 0
SMALL
GASTEIGER

@<TRIPOS>ATOM
      1  C          5.4410    2.8720    0.1000 C.3     1  UNL1        0.1270
      2  C          6.2600    3.8610    0.7840 C.2     1  UNL1        0.3030
      3  O          6.9210    4.7460    0.2380 O.2     1  UNL1       -0.2520
      4  O          6.3030    3.8030    2.1860 O.3     1  UNL1       -0.4810
      5  H          5.5940    4.3290    2.6750 H       1  UNL1        0.2960
      6  C          5.3740    1.5660    0.7900 C.3     1  UNL1        0.0470
      7  C          6.1420    0.4590    0.2180 C.2     1  UNL1       -0.0430
      8  C          6.5800   -0.6000    0.9990 C.2     1  UNL1        0.0080
      9  C          6.4860    0.4560   -1.1080 C.2     1  UNL1        0.0540
     10  C          7.3330   -1.6240    0.4700 C.2     1  UNL1        0.0510
     11  C          7.2410   -0.5610   -1.6610 C.2     1  UNL1        0.1660
     12  C          7.6660   -1.6050   -0.8740 C.2     1  UNL1        0.1650
     13  O          7.6980   -0.7700   -2.9500 O.2     1  UNL1       -0.4540
     14  O          8.3950   -2.4610   -1.7010 O.2     1  UNL1       -0.4540
     15  C          8.6900   -1.8070   -2.9130 C.3     1  UNL1        0.4680
@<TRIPOS>BOND
     1    13    15    1
     2    13    11    1
     3    15    14    1
     4    14    12    1
     5    11     9    1
     6    11    12    2
     7     9     7    2
     8    12    10    1
     9     1     2    1
    10     1     6    1
    11     7     6    1
    12     7     8    1
    13     3     2    2
    14    10     8    2
    15     2     4    1
    16     4     5    1
