@<TRIPOS>MOLECULE
/home/cewinharhar/GITHUB/reincatalyze/data/processed/docking_pred/2023-May-17-1006_maxeplen10_maxtrainstep1000_seadep16_gamma099_lrac9e-4_lrcr1e-3_sub6/af895cae38f50b8ad608cacdd29f7ae1ddca485c_ligand_6.pdbqt
 15 16 0 0 0
SMALL
GASTEIGER

@<TRIPOS>ATOM
      1  C          6.4470    1.3250    0.7400 C.3     1  UNL1        0.1270
      2  C          5.1830    1.3360    1.4600 C.2     1  UNL1        0.3030
      3  O          4.2730    2.1520    1.2980 O.2     1  UNL1       -0.2520
      4  O          4.9800    0.3340    2.4210 O.3     1  UNL1       -0.4810
      5  H          4.8070   -0.5940    2.0660 H       1  UNL1        0.2960
      6  C          6.3190    0.9800   -0.6920 C.3     1  UNL1        0.0470
      7  C          7.0380   -0.2030   -1.1700 C.2     1  UNL1       -0.0430
      8  C          7.3080   -0.3930   -2.5160 C.2     1  UNL1        0.0080
      9  C          7.4330   -1.1830   -0.2970 C.2     1  UNL1        0.0540
     10  C          7.9520   -1.5220   -2.9710 C.2     1  UNL1        0.0510
     11  C          8.0810   -2.3240   -0.7300 C.2     1  UNL1        0.1660
     12  C          8.3430   -2.4970   -2.0680 C.2     1  UNL1        0.1650
     13  O          8.5630   -3.4240   -0.0430 O.2     1  UNL1       -0.4540
     14  O          8.9950   -3.7250   -2.1950 O.2     1  UNL1       -0.4540
     15  C          8.8620   -4.4540   -0.9970 C.3     1  UNL1        0.4680
@<TRIPOS>BOND
     1    10     8    1
     2    10    12    2
     3     8     7    2
     4    14    12    1
     5    14    15    1
     6    12    11    1
     7     7     6    1
     8     7     9    1
     9    15    13    1
    10    11     9    2
    11    11    13    1
    12     6     1    1
    13     1     2    1
    14     3     2    2
    15     2     4    1
    16     5     4    1
