@<TRIPOS>MOLECULE
/home/cewinharhar/GITHUB/reincatalyze/data/processed/docking_pred/2023-May-17-1006_maxeplen10_maxtrainstep1000_seadep16_gamma099_lrac9e-4_lrcr1e-3_sub6/af895cae38f50b8ad608cacdd29f7ae1ddca485c_ligand_6.pdbqt
 15 16 0 0 0
SMALL
GASTEIGER

@<TRIPOS>ATOM
      1  C          5.4290    2.8710    0.1240 C.3     1  UNL1        0.1270
      2  C          6.2610    3.8430    0.8160 C.2     1  UNL1        0.3030
      3  O          6.8880    4.7600    0.2820 O.2     1  UNL1       -0.2520
      4  O          6.3600    3.7300    2.2120 O.3     1  UNL1       -0.4810
      5  H          5.5520    3.3580    2.6870 H       1  UNL1        0.2960
      6  C          5.3510    1.5580    0.8010 C.3     1  UNL1        0.0470
      7  C          6.1340    0.4570    0.2360 C.2     1  UNL1       -0.0430
      8  C          6.5950   -0.5840    1.0270 C.2     1  UNL1        0.0080
      9  C          6.4700    0.4460   -1.0920 C.2     1  UNL1        0.0540
     10  C          7.3630   -1.6010    0.5040 C.2     1  UNL1        0.0510
     11  C          7.2380   -0.5650   -1.6380 C.2     1  UNL1        0.1660
     12  C          7.6870   -1.5910   -0.8430 C.2     1  UNL1        0.1650
     13  O          7.6910   -0.7790   -2.9280 O.2     1  UNL1       -0.4540
     14  O          8.4250   -2.4440   -1.6650 O.2     1  UNL1       -0.4540
     15  C          8.7010   -1.7990   -2.8870 C.3     1  UNL1        0.4680
@<TRIPOS>BOND
     1    13    15    1
     2    13    11    1
     3    15    14    1
     4    14    12    1
     5    11     9    1
     6    11    12    2
     7     9     7    2
     8    12    10    1
     9     1     6    1
    10     1     2    1
    11     7     6    1
    12     7     8    1
    13     3     2    2
    14    10     8    2
    15     2     4    1
    16     4     5    1
