@<TRIPOS>MOLECULE
/home/cewinharhar/GITHUB/reincatalyze/data/processed/docking_pred/2023-May-17-1006_maxeplen10_maxtrainstep1000_seadep16_gamma099_lrac9e-4_lrcr1e-3_sub6/af895cae38f50b8ad608cacdd29f7ae1ddca485c_ligand_6.pdbqt
 15 16 0 0 0
SMALL
GASTEIGER

@<TRIPOS>ATOM
      1  C          8.2030   -0.2170   -2.8400 C.3     1  UNL1        0.1270
      2  C          8.4510   -1.6370   -3.0360 C.2     1  UNL1        0.3030
      3  O          9.5370   -2.2020   -2.8950 O.2     1  UNL1       -0.2520
      4  O          7.3610   -2.4350   -3.4190 O.3     1  UNL1       -0.4810
      5  H          6.4460   -2.0800   -3.1870 H       1  UNL1        0.2960
      6  C          8.6630    0.2980   -1.5330 C.3     1  UNL1        0.0470
      7  C          7.7210    0.2430   -0.4140 C.2     1  UNL1       -0.0430
      8  C          7.7670   -0.7790    0.5230 C.2     1  UNL1        0.0080
      9  C          6.7350    1.1850   -0.2810 C.2     1  UNL1        0.0540
     10  C          6.8580   -0.8520    1.5550 C.2     1  UNL1        0.0510
     11  C          5.8140    1.1320    0.7470 C.2     1  UNL1        0.1660
     12  C          5.8720    0.1150    1.6690 C.2     1  UNL1        0.1650
     13  O          4.7520    1.9580    1.0730 O.2     1  UNL1       -0.4540
     14  O          4.8270    0.3270    2.5700 O.2     1  UNL1       -0.4540
     15  C          3.9360    1.2820    2.0410 C.3     1  UNL1        0.4680
@<TRIPOS>BOND
     1     4     5    1
     2     4     2    1
     3     2     3    2
     4     2     1    1
     5     1     6    1
     6     6     7    1
     7     7     9    2
     8     7     8    1
     9     9    11    1
    10     8    10    2
    11    11    13    1
    12    11    12    2
    13    13    15    1
    14    10    12    1
    15    12    14    1
    16    15    14    1
