@<TRIPOS>MOLECULE
/home/cewinharhar/GITHUB/reincatalyze/data/processed/docking_pred/2023-May-17-1006_maxeplen10_maxtrainstep1000_seadep16_gamma099_lrac9e-4_lrcr1e-3_sub6/af895cae38f50b8ad608cacdd29f7ae1ddca485c_ligand_6.pdbqt
 15 16 0 0 0
SMALL
GASTEIGER

@<TRIPOS>ATOM
      1  C          5.5540    2.6340    0.2400 C.3     1  UNL1        0.1270
      2  C          6.2000    3.7240    0.9530 C.2     1  UNL1        0.3030
      3  O          6.2480    3.8510    2.1780 O.2     1  UNL1       -0.2520
      4  O          6.8210    4.7200    0.1830 O.3     1  UNL1       -0.4810
      5  H          6.8040    4.5850   -0.8160 H       1  UNL1        0.2960
      6  C          5.6860    1.3200    0.9060 C.3     1  UNL1        0.0470
      7  C          6.4220    0.2720    0.1970 C.2     1  UNL1       -0.0430
      8  C          6.4870    0.2410   -1.1880 C.2     1  UNL1        0.0080
      9  C          7.0400   -0.7380    0.8860 C.2     1  UNL1        0.0540
     10  C          7.1490   -0.7640   -1.8570 C.2     1  UNL1        0.0510
     11  C          7.7110   -1.7570    0.2360 C.2     1  UNL1        0.1660
     12  C          7.7680   -1.7740   -1.1370 C.2     1  UNL1        0.1650
     13  O          8.3960   -2.8590    0.7160 O.2     1  UNL1       -0.4540
     14  O          8.5000   -2.9060   -1.4960 O.2     1  UNL1       -0.4540
     15  C          8.6290   -3.7560   -0.3800 C.3     1  UNL1        0.4680
@<TRIPOS>BOND
     1    10     8    1
     2    10    12    2
     3    14    12    1
     4    14    15    1
     5     8     7    2
     6    12    11    1
     7     5     4    1
     8    15    13    1
     9     4     2    1
    10     7     9    1
    11     7     6    1
    12    11    13    1
    13    11     9    2
    14     1     6    1
    15     1     2    1
    16     2     3    2
