@<TRIPOS>MOLECULE
/home/cewinharhar/GITHUB/reincatalyze/data/processed/docking_pred/2023-May-17-1006_maxeplen10_maxtrainstep1000_seadep16_gamma099_lrac9e-4_lrcr1e-3_sub6/af895cae38f50b8ad608cacdd29f7ae1ddca485c_ligand_6.pdbqt
 15 16 0 0 0
SMALL
GASTEIGER

@<TRIPOS>ATOM
      1  C          4.6580    1.8580    0.6600 C.3     1  UNL1        0.1270
      2  C          4.3920    1.1710    1.9140 C.2     1  UNL1        0.3030
      3  O          5.1470    0.3710    2.4690 O.2     1  UNL1       -0.2520
      4  O          3.1690    1.4410    2.5490 O.3     1  UNL1       -0.4810
      5  H          2.7110    2.3000    2.2870 H       1  UNL1        0.2960
      6  C          6.0710    2.2590    0.4840 C.3     1  UNL1        0.0470
      7  C          6.9440    1.3530   -0.2660 C.2     1  UNL1       -0.0430
      8  C          8.3040    1.5930   -0.3870 C.2     1  UNL1        0.0080
      9  C          6.4300    0.2570   -0.9070 C.2     1  UNL1        0.0540
     10  C          9.1200    0.7620   -1.1220 C.2     1  UNL1        0.0510
     11  C          7.2300   -0.5910   -1.6490 C.2     1  UNL1        0.1660
     12  C          8.5770   -0.3420   -1.7590 C.2     1  UNL1        0.1650
     13  O          6.9360   -1.7370   -2.3680 O.2     1  UNL1       -0.4540
     14  O          9.1100   -1.3540   -2.5590 O.2     1  UNL1       -0.4540
     15  C          8.0640   -2.0470   -3.2000 C.3     1  UNL1        0.4680
@<TRIPOS>BOND
     1    15    14    1
     2    15    13    1
     3    14    12    1
     4    13    11    1
     5    12    11    2
     6    12    10    1
     7    11     9    1
     8    10     8    2
     9     9     7    2
    10     8     7    1
    11     7     6    1
    12     6     1    1
    13     1     2    1
    14     2     3    2
    15     2     4    1
    16     5     4    1
