@<TRIPOS>MOLECULE
/home/cewinharhar/GITHUB/reincatalyze/data/processed/docking_pred/2023-May-17-1006_maxeplen10_maxtrainstep1000_seadep16_gamma099_lrac9e-4_lrcr1e-3_sub6/af9628f04dddfdfce7c60ac864c84e5664a7a69f_ligand_6.pdbqt
 15 16 0 0 0
SMALL
GASTEIGER

@<TRIPOS>ATOM
      1  C          5.4390    2.8820    0.1260 C.3     1  UNL1        0.1270
      2  C          6.2630    3.8580    0.8220 C.2     1  UNL1        0.3030
      3  O          6.9530    4.7270    0.2850 O.2     1  UNL1       -0.2520
      4  O          6.2750    3.8090    2.2250 O.3     1  UNL1       -0.4810
      5  H          7.0760    3.3660    2.6480 H       1  UNL1        0.2960
      6  C          5.3590    1.5710    0.8050 C.3     1  UNL1        0.0470
      7  C          6.1240    0.4630    0.2290 C.2     1  UNL1       -0.0430
      8  C          6.5300   -0.6160    1.0000 C.2     1  UNL1        0.0080
      9  C          6.4970    0.4800   -1.0890 C.2     1  UNL1        0.0540
     10  C          7.2800   -1.6410    0.4680 C.2     1  UNL1        0.0510
     11  C          7.2500   -0.5380   -1.6440 C.2     1  UNL1        0.1660
     12  C          7.6430   -1.6010   -0.8690 C.2     1  UNL1        0.1650
     13  O          7.7320   -0.7290   -2.9270 O.2     1  UNL1       -0.4540
     14  O          8.3780   -2.4530   -1.6950 O.2     1  UNL1       -0.4540
     15  C          8.7090   -1.7800   -2.8880 C.3     1  UNL1        0.4680
@<TRIPOS>BOND
     1    13    15    1
     2    13    11    1
     3    15    14    1
     4    14    12    1
     5    11     9    1
     6    11    12    2
     7     9     7    2
     8    12    10    1
     9     1     6    1
    10     1     2    1
    11     7     6    1
    12     7     8    1
    13     3     2    2
    14    10     8    2
    15     2     4    1
    16     4     5    1
