@<TRIPOS>MOLECULE
/home/cewinharhar/GITHUB/reincatalyze/data/processed/docking_pred/2023-May-17-1006_maxeplen10_maxtrainstep1000_seadep16_gamma099_lrac9e-4_lrcr1e-3_sub6/af9628f04dddfdfce7c60ac864c84e5664a7a69f_ligand_6.pdbqt
 15 16 0 0 0
SMALL
GASTEIGER

@<TRIPOS>ATOM
      1  C          6.3730    1.2890    0.7120 C.3     1  UNL1        0.1270
      2  C          5.1730    1.2410    1.5340 C.2     1  UNL1        0.3030
      3  O          4.2340    2.0360    1.4770 O.2     1  UNL1       -0.2520
      4  O          5.0750    0.2010    2.4710 O.3     1  UNL1       -0.4810
      5  H          4.1470   -0.0150    2.8000 H       1  UNL1        0.2960
      6  C          6.1670    0.8340   -0.6790 C.3     1  UNL1        0.0470
      7  C          6.9410   -0.3220   -1.1360 C.2     1  UNL1       -0.0430
      8  C          7.2460   -0.5070   -2.4750 C.2     1  UNL1        0.0080
      9  C          7.3550   -1.2810   -0.2500 C.2     1  UNL1        0.0540
     10  C          7.9420   -1.6120   -2.9110 C.2     1  UNL1        0.0510
     11  C          8.0550   -2.3980   -0.6640 C.2     1  UNL1        0.1660
     12  C          8.3520   -2.5680   -1.9950 C.2     1  UNL1        0.1650
     13  O          8.5660   -3.4760    0.0390 O.2     1  UNL1       -0.4540
     14  O          9.0540   -3.7690   -2.1020 O.2     1  UNL1       -0.4540
     15  C          8.9250   -4.4980   -0.9030 C.3     1  UNL1        0.4680
@<TRIPOS>BOND
     1    10     8    1
     2    10    12    2
     3     8     7    2
     4    14    12    1
     5    14    15    1
     6    12    11    1
     7     7     6    1
     8     7     9    1
     9    15    13    1
    10     6     1    1
    11    11     9    2
    12    11    13    1
    13     1     2    1
    14     3     2    2
    15     2     4    1
    16     4     5    1
