@<TRIPOS>MOLECULE
/home/cewinharhar/GITHUB/reincatalyze/data/processed/docking_pred/2023-May-17-1006_maxeplen10_maxtrainstep1000_seadep16_gamma099_lrac9e-4_lrcr1e-3_sub6/af9628f04dddfdfce7c60ac864c84e5664a7a69f_ligand_6.pdbqt
 15 16 0 0 0
SMALL
GASTEIGER

@<TRIPOS>ATOM
      1  C          4.6840    1.8700    0.6710 C.3     1  UNL1        0.1270
      2  C          4.3930    1.1700    1.9130 C.2     1  UNL1        0.3030
      3  O          5.1300    0.3490    2.4630 O.2     1  UNL1       -0.2520
      4  O          3.1700    1.4520    2.5400 O.3     1  UNL1       -0.4810
      5  H          2.4520    0.7480    2.4530 H       1  UNL1        0.2960
      6  C          6.1050    2.2440    0.5120 C.3     1  UNL1        0.0470
      7  C          6.9620    1.3390   -0.2570 C.2     1  UNL1       -0.0430
      8  C          8.3220    1.5700   -0.3930 C.2     1  UNL1        0.0080
      9  C          6.4330    0.2520   -0.9010 C.2     1  UNL1        0.0540
     10  C          9.1230    0.7390   -1.1460 C.2     1  UNL1        0.0510
     11  C          7.2170   -0.5950   -1.6610 C.2     1  UNL1        0.1660
     12  C          8.5640   -0.3550   -1.7860 C.2     1  UNL1        0.1650
     13  O          6.9050   -1.7320   -2.3860 O.2     1  UNL1       -0.4540
     14  O          9.0790   -1.3640   -2.6010 O.2     1  UNL1       -0.4540
     15  C          8.0200   -2.0430   -3.2350 C.3     1  UNL1        0.4680
@<TRIPOS>BOND
     1    15    14    1
     2    15    13    1
     3    14    12    1
     4    13    11    1
     5    12    11    2
     6    12    10    1
     7    11     9    1
     8    10     8    2
     9     9     7    2
    10     8     7    1
    11     7     6    1
    12     6     1    1
    13     1     2    1
    14     2     3    2
    15     2     4    1
    16     5     4    1
