@<TRIPOS>MOLECULE
/home/cewinharhar/GITHUB/reincatalyze/data/processed/docking_pred/2023-May-17-1006_maxeplen10_maxtrainstep1000_seadep16_gamma099_lrac9e-4_lrcr1e-3_sub6/af9628f04dddfdfce7c60ac864c84e5664a7a69f_ligand_6.pdbqt
 15 16 0 0 0
SMALL
GASTEIGER

@<TRIPOS>ATOM
      1  C          8.3080   -0.3210   -2.8590 C.3     1  UNL1        0.1270
      2  C          8.4740   -1.7500   -3.0720 C.2     1  UNL1        0.3030
      3  O          9.5420   -2.3620   -3.0310 O.2     1  UNL1       -0.2520
      4  O          7.3190   -2.4990   -3.3500 O.3     1  UNL1       -0.4810
      5  H          6.4980   -1.9720   -3.6050 H       1  UNL1        0.2960
      6  C          8.7580    0.1430   -1.5290 C.3     1  UNL1        0.0470
      7  C          7.7880    0.1030   -0.4330 C.2     1  UNL1       -0.0430
      8  C          7.7360   -0.9650    0.4490 C.2     1  UNL1        0.0080
      9  C          6.8720    1.1080   -0.2710 C.2     1  UNL1        0.0540
     10  C          6.8010   -1.0220    1.4590 C.2     1  UNL1        0.0510
     11  C          5.9250    1.0730    0.7350 C.2     1  UNL1        0.1660
     12  C          5.8860    0.0090    1.6030 C.2     1  UNL1        0.1650
     13  O          4.9210    1.9600    1.0830 O.2     1  UNL1       -0.4540
     14  O          4.8390    0.2530    2.4930 O.2     1  UNL1       -0.4540
     15  C          4.0340    1.2980    1.9970 C.3     1  UNL1        0.4680
@<TRIPOS>BOND
     1     5     4    1
     2     4     2    1
     3     2     3    2
     4     2     1    1
     5     1     6    1
     6     6     7    1
     7     7     9    2
     8     7     8    1
     9     9    11    1
    10     8    10    2
    11    11    13    1
    12    11    12    2
    13    13    15    1
    14    10    12    1
    15    12    14    1
    16    15    14    1
