@<TRIPOS>MOLECULE
/home/cewinharhar/GITHUB/reincatalyze/data/processed/docking_pred/2023-May-17-1006_maxeplen10_maxtrainstep1000_seadep16_gamma099_lrac9e-4_lrcr1e-3_sub6/af9628f04dddfdfce7c60ac864c84e5664a7a69f_ligand_6.pdbqt
 15 16 0 0 0
SMALL
GASTEIGER

@<TRIPOS>ATOM
      1  C          5.3590    2.7580    0.1180 C.3     1  UNL1        0.1270
      2  C          6.1130    3.7340    0.8900 C.2     1  UNL1        0.3030
      3  O          6.1140    3.8310    2.1190 O.2     1  UNL1       -0.2520
      4  O          6.9080    4.6440    0.1770 O.3     1  UNL1       -0.4810
      5  H          6.8070    4.6330   -0.8270 H       1  UNL1        0.2960
      6  C          5.3290    1.4090    0.7220 C.3     1  UNL1        0.0470
      7  C          6.1790    0.3790    0.1220 C.2     1  UNL1       -0.0430
      8  C          6.4340    0.3530   -1.2400 C.2     1  UNL1        0.0080
      9  C          6.7200   -0.6180    0.8900 C.2     1  UNL1        0.0540
     10  C          7.2040   -0.6360   -1.8110 C.2     1  UNL1        0.0510
     11  C          7.4960   -1.6200    0.3390 C.2     1  UNL1        0.1660
     12  C          7.7410   -1.6320   -1.0130 C.2     1  UNL1        0.1650
     13  O          8.1330   -2.7070    0.9100 O.2     1  UNL1       -0.4540
     14  O          8.5410   -2.7470   -1.2670 O.2     1  UNL1       -0.4540
     15  C          8.5360   -3.5960   -0.1420 C.3     1  UNL1        0.4680
@<TRIPOS>BOND
     1    10     8    1
     2    10    12    2
     3    14    12    1
     4    14    15    1
     5     8     7    2
     6    12    11    1
     7     5     4    1
     8    15    13    1
     9     1     6    1
    10     1     2    1
    11     7     6    1
    12     7     9    1
    13     4     2    1
    14    11     9    2
    15    11    13    1
    16     2     3    2
