@<TRIPOS>MOLECULE
/home/cewinharhar/GITHUB/reincatalyze/data/processed/docking_pred/2023-May-17-1006_maxeplen10_maxtrainstep1000_seadep16_gamma099_lrac9e-4_lrcr1e-3_sub6/b0253e2818c1de1129519fa2afa58b59888d8d60_ligand_6.pdbqt
 15 16 0 0 0
SMALL
GASTEIGER

@<TRIPOS>ATOM
      1  C          5.3950    2.7770    0.1050 C.3     1  UNL1        0.1270
      2  C          6.1110    3.7760    0.8820 C.2     1  UNL1        0.3030
      3  O          6.0990    3.8730    2.1110 O.2     1  UNL1       -0.2520
      4  O          6.8830    4.7120    0.1750 O.3     1  UNL1       -0.4810
      5  H          6.5900    5.6740    0.2450 H       1  UNL1        0.2960
      6  C          5.3690    1.4370    0.7290 C.3     1  UNL1        0.0470
      7  C          6.2210    0.4000    0.1430 C.2     1  UNL1       -0.0430
      8  C          6.5320    0.3960   -1.2080 C.2     1  UNL1        0.0080
      9  C          6.7070   -0.6240    0.9110 C.2     1  UNL1        0.0540
     10  C          7.3030   -0.5990   -1.7680 C.2     1  UNL1        0.0510
     11  C          7.4830   -1.6320    0.3720 C.2     1  UNL1        0.1660
     12  C          7.7840   -1.6230   -0.9690 C.2     1  UNL1        0.1650
     13  O          8.0720   -2.7450    0.9460 O.2     1  UNL1       -0.4540
     14  O          8.5700   -2.7510   -1.2130 O.2     1  UNL1       -0.4540
     15  C          8.4980   -3.6220   -0.1080 C.3     1  UNL1        0.4680
@<TRIPOS>BOND
     1    10     8    1
     2    10    12    2
     3    14    12    1
     4    14    15    1
     5     8     7    2
     6    12    11    1
     7    15    13    1
     8     1     6    1
     9     1     2    1
    10     7     6    1
    11     7     9    1
    12     4     5    1
    13     4     2    1
    14    11     9    2
    15    11    13    1
    16     2     3    2
