@<TRIPOS>MOLECULE
/home/cewinharhar/GITHUB/reincatalyze/data/processed/docking_pred/2023-May-17-1006_maxeplen10_maxtrainstep1000_seadep16_gamma099_lrac9e-4_lrcr1e-3_sub6/b0253e2818c1de1129519fa2afa58b59888d8d60_ligand_6.pdbqt
 15 16 0 0 0
SMALL
GASTEIGER

@<TRIPOS>ATOM
      1  C          4.6950    1.8620    0.7060 C.3     1  UNL1        0.1270
      2  C          4.3920    1.1410    1.9330 C.2     1  UNL1        0.3030
      3  O          5.1180    0.3040    2.4710 O.2     1  UNL1       -0.2520
      4  O          3.1680    1.4230    2.5600 O.3     1  UNL1       -0.4810
      5  H          2.7360    2.3020    2.3190 H       1  UNL1        0.2960
      6  C          6.1210    2.2240    0.5600 C.3     1  UNL1        0.0470
      7  C          6.9730    1.3220   -0.2180 C.2     1  UNL1       -0.0430
      8  C          8.3330    1.5510   -0.3590 C.2     1  UNL1        0.0080
      9  C          6.4390    0.2400   -0.8660 C.2     1  UNL1        0.0540
     10  C          9.1280    0.7240   -1.1200 C.2     1  UNL1        0.0510
     11  C          7.2180   -0.6040   -1.6340 C.2     1  UNL1        0.1660
     12  C          8.5650   -0.3650   -1.7640 C.2     1  UNL1        0.1650
     13  O          6.9010   -1.7360   -2.3650 O.2     1  UNL1       -0.4540
     14  O          9.0740   -1.3700   -2.5880 O.2     1  UNL1       -0.4540
     15  C          8.0110   -2.0440   -3.2210 C.3     1  UNL1        0.4680
@<TRIPOS>BOND
     1    15    14    1
     2    15    13    1
     3    14    12    1
     4    13    11    1
     5    12    11    2
     6    12    10    1
     7    11     9    1
     8    10     8    2
     9     9     7    2
    10     8     7    1
    11     7     6    1
    12     6     1    1
    13     1     2    1
    14     2     3    2
    15     2     4    1
    16     5     4    1
