@<TRIPOS>MOLECULE
/home/cewinharhar/GITHUB/reincatalyze/data/processed/docking_pred/2023-May-17-1006_maxeplen10_maxtrainstep1000_seadep16_gamma099_lrac9e-4_lrcr1e-3_sub6/b0253e2818c1de1129519fa2afa58b59888d8d60_ligand_6.pdbqt
 15 16 0 0 0
SMALL
GASTEIGER

@<TRIPOS>ATOM
      1  C          5.4150    2.8720    0.1230 C.3     1  UNL1        0.1270
      2  C          6.2420    3.8560    0.8050 C.2     1  UNL1        0.3030
      3  O          6.8850    4.7540    0.2590 O.2     1  UNL1       -0.2520
      4  O          6.3150    3.7780    2.2050 O.3     1  UNL1       -0.4810
      5  H          5.4460    3.6040    2.6870 H       1  UNL1        0.2960
      6  C          5.3420    1.5670    0.8140 C.3     1  UNL1        0.0470
      7  C          6.1230    0.4610    0.2560 C.2     1  UNL1       -0.0430
      8  C          6.5740   -0.5810    1.0510 C.2     1  UNL1        0.0080
      9  C          6.4650    0.4450   -1.0700 C.2     1  UNL1        0.0540
     10  C          7.3380   -1.6030    0.5350 C.2     1  UNL1        0.0510
     11  C          7.2310   -0.5710   -1.6100 C.2     1  UNL1        0.1660
     12  C          7.6700   -1.5980   -0.8100 C.2     1  UNL1        0.1650
     13  O          7.6900   -0.7910   -2.8970 O.2     1  UNL1       -0.4540
     14  O          8.4080   -2.4570   -1.6260 O.2     1  UNL1       -0.4540
     15  C          8.6940   -1.8150   -2.8470 C.3     1  UNL1        0.4680
@<TRIPOS>BOND
     1    13    15    1
     2    13    11    1
     3    15    14    1
     4    14    12    1
     5    11     9    1
     6    11    12    2
     7     9     7    2
     8    12    10    1
     9     1     2    1
    10     1     6    1
    11     7     6    1
    12     7     8    1
    13     3     2    2
    14    10     8    2
    15     2     4    1
    16     4     5    1
