MODEL 1
REMARK VINA RESULT:      -7.7      0.000      0.000
REMARK SMILES O=C(O)CCc1ccc2c(c1)OCO2
REMARK SMILES IDX 4 1 2 2 1 3 3 4 5 6 6 7 7 8 11 9 8 10 10 11 9 12 12 13 14 14
REMARK SMILES IDX 13 15
REMARK H PARENT 3 5
REMARK Flexibility Score: inf
ROOT
ATOM      1  C   UNL     1       5.415   2.872   0.123  1.00  0.00     0.127 C 
ENDROOT
BRANCH   1   2
ATOM      2  C   UNL     1       6.242   3.856   0.805  1.00  0.00     0.303 C 
ATOM      3  O   UNL     1       6.885   4.754   0.259  1.00  0.00    -0.252 OA
BRANCH   2   4
ATOM      4  O   UNL     1       6.315   3.778   2.205  1.00  0.00    -0.481 OA
ATOM      5  H   UNL     1       5.446   3.604   2.687  1.00  0.00     0.296 HD
ENDBRANCH   2   4
ENDBRANCH   1   2
BRANCH   1   6
ATOM      6  C   UNL     1       5.342   1.567   0.814  1.00  0.00     0.047 C 
BRANCH   6   7
ATOM      7  C   UNL     1       6.123   0.461   0.256  1.00  0.00    -0.043 A 
ATOM      8  C   UNL     1       6.574  -0.581   1.051  1.00  0.00     0.008 A 
ATOM      9  C   UNL     1       6.465   0.445  -1.070  1.00  0.00     0.054 A 
ATOM     10  C   UNL     1       7.338  -1.603   0.535  1.00  0.00     0.051 A 
ATOM     11  C   UNL     1       7.231  -0.571  -1.610  1.00  0.00     0.166 A 
ATOM     12  C   UNL     1       7.670  -1.598  -0.810  1.00  0.00     0.165 A 
ATOM     13  O   UNL     1       7.690  -0.791  -2.897  1.00  0.00    -0.454 OA
ATOM     14  O   UNL     1       8.408  -2.457  -1.626  1.00  0.00    -0.454 OA
ATOM     15  C   UNL     1       8.694  -1.815  -2.847  1.00  0.00     0.468 C 
ENDBRANCH   6   7
ENDBRANCH   1   6
TORSDOF 4
ENDMDL
MODEL 2
REMARK VINA RESULT:      -7.6      2.142      2.528
REMARK SMILES O=C(O)CCc1ccc2c(c1)OCO2
REMARK SMILES IDX 4 1 2 2 1 3 3 4 5 6 6 7 7 8 11 9 8 10 10 11 9 12 12 13 14 14
REMARK SMILES IDX 13 15
REMARK H PARENT 3 5
REMARK Flexibility Score: inf
ROOT
ATOM      1  C   UNL     1       4.695   1.862   0.706  1.00  0.00     0.127 C 
ENDROOT
BRANCH   1   2
ATOM      2  C   UNL     1       4.392   1.141   1.933  1.00  0.00     0.303 C 
ATOM      3  O   UNL     1       5.118   0.304   2.471  1.00  0.00    -0.252 OA
BRANCH   2   4
ATOM      4  O   UNL     1       3.168   1.423   2.560  1.00  0.00    -0.481 OA
ATOM      5  H   UNL     1       2.736   2.302   2.319  1.00  0.00     0.296 HD
ENDBRANCH   2   4
ENDBRANCH   1   2
BRANCH   1   6
ATOM      6  C   UNL     1       6.121   2.224   0.560  1.00  0.00     0.047 C 
BRANCH   6   7
ATOM      7  C   UNL     1       6.973   1.322  -0.218  1.00  0.00    -0.043 A 
ATOM      8  C   UNL     1       8.333   1.551  -0.359  1.00  0.00     0.008 A 
ATOM      9  C   UNL     1       6.439   0.240  -0.866  1.00  0.00     0.054 A 
ATOM     10  C   UNL     1       9.128   0.724  -1.120  1.00  0.00     0.051 A 
ATOM     11  C   UNL     1       7.218  -0.604  -1.634  1.00  0.00     0.166 A 
ATOM     12  C   UNL     1       8.565  -0.365  -1.764  1.00  0.00     0.165 A 
ATOM     13  O   UNL     1       6.901  -1.736  -2.365  1.00  0.00    -0.454 OA
ATOM     14  O   UNL     1       9.074  -1.370  -2.588  1.00  0.00    -0.454 OA
ATOM     15  C   UNL     1       8.011  -2.044  -3.221  1.00  0.00     0.468 C 
ENDBRANCH   6   7
ENDBRANCH   1   6
TORSDOF 4
ENDMDL
MODEL 3
REMARK VINA RESULT:      -7.5      1.988      2.988
REMARK SMILES O=C(O)CCc1ccc2c(c1)OCO2
REMARK SMILES IDX 4 1 2 2 1 3 3 4 5 6 6 7 7 8 11 9 8 10 10 11 9 12 12 13 14 14
REMARK SMILES IDX 13 15
REMARK H PARENT 3 5
REMARK Flexibility Score: inf
ROOT
ATOM      1  C   UNL     1       6.441   1.249   0.732  1.00  0.00     0.127 C 
ENDROOT
BRANCH   1   2
ATOM      2  C   UNL     1       5.240   1.161   1.547  1.00  0.00     0.303 C 
ATOM      3  O   UNL     1       5.020   0.310   2.411  1.00  0.00    -0.252 OA
BRANCH   2   4
ATOM      4  O   UNL     1       4.244   2.128   1.334  1.00  0.00    -0.481 OA
ATOM      5  H   UNL     1       4.529   3.090   1.436  1.00  0.00     0.296 HD
ENDBRANCH   2   4
ENDBRANCH   1   2
BRANCH   1   6
ATOM      6  C   UNL     1       6.253   0.801  -0.664  1.00  0.00     0.047 C 
BRANCH   6   7
ATOM      7  C   UNL     1       6.998  -0.381  -1.103  1.00  0.00    -0.043 A 
ATOM      8  C   UNL     1       7.279  -0.604  -2.442  1.00  0.00     0.008 A 
ATOM      9  C   UNL     1       7.407  -1.326  -0.200  1.00  0.00     0.054 A 
ATOM     10  C   UNL     1       7.948  -1.733  -2.859  1.00  0.00     0.051 A 
ATOM     11  C   UNL     1       8.080  -2.466  -0.596  1.00  0.00     0.166 A 
ATOM     12  C   UNL     1       8.353  -2.674  -1.926  1.00  0.00     0.165 A 
ATOM     13  O   UNL     1       8.580  -3.535   0.127  1.00  0.00    -0.454 OA
ATOM     14  O   UNL     1       9.031  -3.891  -2.013  1.00  0.00    -0.454 OA
ATOM     15  C   UNL     1       8.906  -4.587  -0.794  1.00  0.00     0.468 C 
ENDBRANCH   6   7
ENDBRANCH   1   6
TORSDOF 4
ENDMDL
MODEL 4
REMARK VINA RESULT:      -7.5      0.953      2.116
REMARK SMILES O=C(O)CCc1ccc2c(c1)OCO2
REMARK SMILES IDX 4 1 2 2 1 3 3 4 5 6 6 7 7 8 11 9 8 10 10 11 9 12 12 13 14 14
REMARK SMILES IDX 13 15
REMARK H PARENT 3 5
REMARK Flexibility Score: inf
ROOT
ATOM      1  C   UNL     1       5.395   2.777   0.105  1.00  0.00     0.127 C 
ENDROOT
BRANCH   1   2
ATOM      2  C   UNL     1       6.111   3.776   0.882  1.00  0.00     0.303 C 
ATOM      3  O   UNL     1       6.099   3.873   2.111  1.00  0.00    -0.252 OA
BRANCH   2   4
ATOM      4  O   UNL     1       6.883   4.712   0.175  1.00  0.00    -0.481 OA
ATOM      5  H   UNL     1       6.590   5.674   0.245  1.00  0.00     0.296 HD
ENDBRANCH   2   4
ENDBRANCH   1   2
BRANCH   1   6
ATOM      6  C   UNL     1       5.369   1.437   0.729  1.00  0.00     0.047 C 
BRANCH   6   7
ATOM      7  C   UNL     1       6.221   0.400   0.143  1.00  0.00    -0.043 A 
ATOM      8  C   UNL     1       6.532   0.396  -1.208  1.00  0.00     0.008 A 
ATOM      9  C   UNL     1       6.707  -0.624   0.911  1.00  0.00     0.054 A 
ATOM     10  C   UNL     1       7.303  -0.599  -1.768  1.00  0.00     0.051 A 
ATOM     11  C   UNL     1       7.483  -1.632   0.372  1.00  0.00     0.166 A 
ATOM     12  C   UNL     1       7.784  -1.623  -0.969  1.00  0.00     0.165 A 
ATOM     13  O   UNL     1       8.072  -2.745   0.946  1.00  0.00    -0.454 OA
ATOM     14  O   UNL     1       8.570  -2.751  -1.213  1.00  0.00    -0.454 OA
ATOM     15  C   UNL     1       8.498  -3.622  -0.108  1.00  0.00     0.468 C 
ENDBRANCH   6   7
ENDBRANCH   1   6
TORSDOF 4
ENDMDL
MODEL 5
REMARK VINA RESULT:      -7.5      1.801      5.281
REMARK SMILES O=C(O)CCc1ccc2c(c1)OCO2
REMARK SMILES IDX 4 1 2 2 1 3 3 4 5 6 6 7 7 8 11 9 8 10 10 11 9 12 12 13 14 14
REMARK SMILES IDX 13 15
REMARK H PARENT 3 5
REMARK Flexibility Score: inf
ROOT
ATOM      1  C   UNL     1       8.312  -0.320  -2.819  1.00  0.00     0.127 C 
ENDROOT
BRANCH   1   2
ATOM      2  C   UNL     1       8.475  -1.745  -3.059  1.00  0.00     0.303 C 
ATOM      3  O   UNL     1       9.542  -2.359  -3.035  1.00  0.00    -0.252 OA
BRANCH   2   4
ATOM      4  O   UNL     1       7.317  -2.487  -3.342  1.00  0.00    -0.481 OA
ATOM      5  H   UNL     1       7.460  -3.393  -3.762  1.00  0.00     0.296 HD
ENDBRANCH   2   4
ENDBRANCH   1   2
BRANCH   1   6
ATOM      6  C   UNL     1       8.769   0.120  -1.484  1.00  0.00     0.047 C 
BRANCH   6   7
ATOM      7  C   UNL     1       7.796   0.086  -0.390  1.00  0.00    -0.043 A 
ATOM      8  C   UNL     1       7.746  -0.974   0.503  1.00  0.00     0.008 A 
ATOM      9  C   UNL     1       6.875   1.089  -0.240  1.00  0.00     0.054 A 
ATOM     10  C   UNL     1       6.807  -1.025   1.510  1.00  0.00     0.051 A 
ATOM     11  C   UNL     1       5.925   1.059   0.763  1.00  0.00     0.166 A 
ATOM     12  C   UNL     1       5.888   0.003   1.641  1.00  0.00     0.165 A 
ATOM     13  O   UNL     1       4.916   1.944   1.100  1.00  0.00    -0.454 OA
ATOM     14  O   UNL     1       4.837   0.251   2.526  1.00  0.00    -0.454 OA
ATOM     15  C   UNL     1       4.029   1.287   2.018  1.00  0.00     0.468 C 
ENDBRANCH   6   7
ENDBRANCH   1   6
TORSDOF 4
ENDMDL
