@<TRIPOS>MOLECULE
/home/cewinharhar/GITHUB/reincatalyze/data/processed/docking_pred/2023-May-17-1006_maxeplen10_maxtrainstep1000_seadep16_gamma099_lrac9e-4_lrcr1e-3_sub6/b0253e2818c1de1129519fa2afa58b59888d8d60_ligand_6.pdbqt
 15 16 0 0 0
SMALL
GASTEIGER

@<TRIPOS>ATOM
      1  C          6.4410    1.2490    0.7320 C.3     1  UNL1        0.1270
      2  C          5.2400    1.1610    1.5470 C.2     1  UNL1        0.3030
      3  O          5.0200    0.3100    2.4110 O.2     1  UNL1       -0.2520
      4  O          4.2440    2.1280    1.3340 O.3     1  UNL1       -0.4810
      5  H          4.5290    3.0900    1.4360 H       1  UNL1        0.2960
      6  C          6.2530    0.8010   -0.6640 C.3     1  UNL1        0.0470
      7  C          6.9980   -0.3810   -1.1030 C.2     1  UNL1       -0.0430
      8  C          7.2790   -0.6040   -2.4420 C.2     1  UNL1        0.0080
      9  C          7.4070   -1.3260   -0.2000 C.2     1  UNL1        0.0540
     10  C          7.9480   -1.7330   -2.8590 C.2     1  UNL1        0.0510
     11  C          8.0800   -2.4660   -0.5960 C.2     1  UNL1        0.1660
     12  C          8.3530   -2.6740   -1.9260 C.2     1  UNL1        0.1650
     13  O          8.5800   -3.5350    0.1270 O.2     1  UNL1       -0.4540
     14  O          9.0310   -3.8910   -2.0130 O.2     1  UNL1       -0.4540
     15  C          8.9060   -4.5870   -0.7940 C.3     1  UNL1        0.4680
@<TRIPOS>BOND
     1    10     8    1
     2    10    12    2
     3     8     7    2
     4    14    12    1
     5    14    15    1
     6    12    11    1
     7     7     6    1
     8     7     9    1
     9    15    13    1
    10     6     1    1
    11    11     9    2
    12    11    13    1
    13     1     2    1
    14     4     5    1
    15     4     2    1
    16     2     3    2
