@<TRIPOS>MOLECULE
/home/cewinharhar/GITHUB/reincatalyze/data/processed/docking_pred/2023-May-17-1006_maxeplen10_maxtrainstep1000_seadep16_gamma099_lrac9e-4_lrcr1e-3_sub6/b0253e2818c1de1129519fa2afa58b59888d8d60_ligand_6.pdbqt
 15 16 0 0 0
SMALL
GASTEIGER

@<TRIPOS>ATOM
      1  C          8.3120   -0.3200   -2.8190 C.3     1  UNL1        0.1270
      2  C          8.4750   -1.7450   -3.0590 C.2     1  UNL1        0.3030
      3  O          9.5420   -2.3590   -3.0350 O.2     1  UNL1       -0.2520
      4  O          7.3170   -2.4870   -3.3420 O.3     1  UNL1       -0.4810
      5  H          7.4600   -3.3930   -3.7620 H       1  UNL1        0.2960
      6  C          8.7690    0.1200   -1.4840 C.3     1  UNL1        0.0470
      7  C          7.7960    0.0860   -0.3900 C.2     1  UNL1       -0.0430
      8  C          7.7460   -0.9740    0.5030 C.2     1  UNL1        0.0080
      9  C          6.8750    1.0890   -0.2400 C.2     1  UNL1        0.0540
     10  C          6.8070   -1.0250    1.5100 C.2     1  UNL1        0.0510
     11  C          5.9250    1.0590    0.7630 C.2     1  UNL1        0.1660
     12  C          5.8880    0.0030    1.6410 C.2     1  UNL1        0.1650
     13  O          4.9160    1.9440    1.1000 O.2     1  UNL1       -0.4540
     14  O          4.8370    0.2510    2.5260 O.2     1  UNL1       -0.4540
     15  C          4.0290    1.2870    2.0180 C.3     1  UNL1        0.4680
@<TRIPOS>BOND
     1     5     4    1
     2     4     2    1
     3     2     3    2
     4     2     1    1
     5     1     6    1
     6     6     7    1
     7     7     9    2
     8     7     8    1
     9     9    11    1
    10     8    10    2
    11    11    13    1
    12    11    12    2
    13    13    15    1
    14    10    12    1
    15    12    14    1
    16    15    14    1
