@<TRIPOS>MOLECULE
/home/cewinharhar/GITHUB/reincatalyze/data/processed/docking_pred/2023-May-17-1006_maxeplen10_maxtrainstep1000_seadep16_gamma099_lrac9e-4_lrcr1e-3_sub6/b0dbf451e4e891e0fb60bf6ca530f921e690d9da_ligand_6.pdbqt
 15 16 0 0 0
SMALL
GASTEIGER

@<TRIPOS>ATOM
      1  C          5.5640    2.6290    0.0390 C.3     1  UNL1        0.1270
      2  C          6.1560    3.6870    0.8420 C.2     1  UNL1        0.3030
      3  O          6.1410    3.7470    2.0730 O.2     1  UNL1       -0.2520
      4  O          6.7990    4.7310    0.1590 O.3     1  UNL1       -0.4810
      5  H          6.2920    5.6000    0.0940 H       1  UNL1        0.2960
      6  C          5.6030    1.2960    0.6780 C.3     1  UNL1        0.0470
      7  C          6.3800    0.2480    0.0130 C.2     1  UNL1       -0.0430
      8  C          6.4730    0.1810   -1.3690 C.2     1  UNL1        0.0080
      9  C          7.0090   -0.7270    0.7410 C.2     1  UNL1        0.0540
     10  C          7.1720   -0.8250   -1.9970 C.2     1  UNL1        0.0510
     11  C          7.7170   -1.7450    0.1330 C.2     1  UNL1        0.1660
     12  C          7.8020   -1.7980   -1.2380 C.2     1  UNL1        0.1650
     13  O          8.4200   -2.8160    0.6570 O.2     1  UNL1       -0.4540
     14  O          8.5690   -2.9210   -1.5510 O.2     1  UNL1       -0.4540
     15  C          8.6970   -3.7370   -0.4090 C.3     1  UNL1        0.4680
@<TRIPOS>BOND
     1    10     8    1
     2    10    12    2
     3    14    12    1
     4    14    15    1
     5     8     7    2
     6    12    11    1
     7    15    13    1
     8     7     6    1
     9     7     9    1
    10     1     6    1
    11     1     2    1
    12     5     4    1
    13    11    13    1
    14    11     9    2
    15     4     2    1
    16     2     3    2
