@<TRIPOS>MOLECULE
/home/cewinharhar/GITHUB/reincatalyze/data/processed/docking_pred/2023-May-17-1006_maxeplen10_maxtrainstep1000_seadep16_gamma099_lrac9e-4_lrcr1e-3_sub6/b0dbf451e4e891e0fb60bf6ca530f921e690d9da_ligand_6.pdbqt
 15 16 0 0 0
SMALL
GASTEIGER

@<TRIPOS>ATOM
      1  C          5.4290    2.8780    0.1120 C.3     1  UNL1        0.1270
      2  C          6.2510    3.8570    0.8060 C.2     1  UNL1        0.3030
      3  O          6.8790    4.7730    0.2730 O.2     1  UNL1       -0.2520
      4  O          6.3380    3.7510    2.2030 O.3     1  UNL1       -0.4810
      5  H          5.9210    2.9300    2.6140 H       1  UNL1        0.2960
      6  C          5.3600    1.5650    0.7880 C.3     1  UNL1        0.0470
      7  C          6.1410    0.4660    0.2160 C.2     1  UNL1       -0.0430
      8  C          6.6030   -0.5800    0.9990 C.2     1  UNL1        0.0080
      9  C          6.4720    0.4610   -1.1130 C.2     1  UNL1        0.0540
     10  C          7.3690   -1.5950    0.4690 C.2     1  UNL1        0.0510
     11  C          7.2380   -0.5470   -1.6670 C.2     1  UNL1        0.1660
     12  C          7.6890   -1.5780   -0.8790 C.2     1  UNL1        0.1650
     13  O          7.6860   -0.7560   -2.9600 O.2     1  UNL1       -0.4540
     14  O          8.4240   -2.4280   -1.7070 O.2     1  UNL1       -0.4540
     15  C          8.6960   -1.7760   -2.9260 C.3     1  UNL1        0.4680
@<TRIPOS>BOND
     1    13    15    1
     2    13    11    1
     3    15    14    1
     4    14    12    1
     5    11     9    1
     6    11    12    2
     7     9     7    2
     8    12    10    1
     9     1     6    1
    10     1     2    1
    11     7     6    1
    12     7     8    1
    13     3     2    2
    14    10     8    2
    15     2     4    1
    16     4     5    1
