@<TRIPOS>MOLECULE
/home/cewinharhar/GITHUB/reincatalyze/data/processed/docking_pred/2023-May-17-1006_maxeplen10_maxtrainstep1000_seadep16_gamma099_lrac9e-4_lrcr1e-3_sub6/b0dbf451e4e891e0fb60bf6ca530f921e690d9da_ligand_6.pdbqt
 15 16 0 0 0
SMALL
GASTEIGER

@<TRIPOS>ATOM
      1  C          8.3130   -0.3220   -2.8560 C.3     1  UNL1        0.1270
      2  C          8.4750   -1.7510   -3.0730 C.2     1  UNL1        0.3030
      3  O          9.5430   -2.3660   -3.0360 O.2     1  UNL1       -0.2520
      4  O          7.3180   -2.4970   -3.3480 O.3     1  UNL1       -0.4810
      5  H          7.3720   -3.4870   -3.1650 H       1  UNL1        0.2960
      6  C          8.7630    0.1380   -1.5250 C.3     1  UNL1        0.0470
      7  C          7.7900    0.0980   -0.4310 C.2     1  UNL1       -0.0430
      8  C          7.7330   -0.9720    0.4490 C.2     1  UNL1        0.0080
      9  C          6.8780    1.1060   -0.2680 C.2     1  UNL1        0.0540
     10  C          6.7960   -1.0280    1.4560 C.2     1  UNL1        0.0510
     11  C          5.9280    1.0710    0.7360 C.2     1  UNL1        0.1660
     12  C          5.8840    0.0050    1.6020 C.2     1  UNL1        0.1650
     13  O          4.9260    1.9600    1.0840 O.2     1  UNL1       -0.4540
     14  O          4.8360    0.2500    2.4910 O.2     1  UNL1       -0.4540
     15  C          4.0360    1.2990    1.9960 C.3     1  UNL1        0.4680
@<TRIPOS>BOND
     1     4     5    1
     2     4     2    1
     3     2     3    2
     4     2     1    1
     5     1     6    1
     6     6     7    1
     7     7     9    2
     8     7     8    1
     9     9    11    1
    10     8    10    2
    11    11    13    1
    12    11    12    2
    13    13    15    1
    14    10    12    1
    15    12    14    1
    16    15    14    1
