@<TRIPOS>MOLECULE
/home/cewinharhar/GITHUB/reincatalyze/data/processed/docking_pred/2023-May-17-1006_maxeplen10_maxtrainstep1000_seadep16_gamma099_lrac9e-4_lrcr1e-3_sub6/b0dbf451e4e891e0fb60bf6ca530f921e690d9da_ligand_6.pdbqt
 15 16 0 0 0
SMALL
GASTEIGER

@<TRIPOS>ATOM
      1  C          6.4150    1.3520    0.6120 C.3     1  UNL1        0.1270
      2  C          5.1990    1.3280    1.4100 C.2     1  UNL1        0.3030
      3  O          4.2550    2.1120    1.3000 O.2     1  UNL1       -0.2520
      4  O          5.0900    0.3290    2.3890 O.3     1  UNL1       -0.4810
      5  H          5.5810    0.4970    3.2540 H       1  UNL1        0.2960
      6  C          6.2400    0.8420   -0.7650 C.3     1  UNL1        0.0470
      7  C          6.9900   -0.3570   -1.1440 C.2     1  UNL1       -0.0430
      8  C          7.3030   -0.6280   -2.4670 C.2     1  UNL1        0.0080
      9  C          7.3730   -1.2720   -0.1990 C.2     1  UNL1        0.0540
     10  C          7.9760   -1.7730   -2.8290 C.2     1  UNL1        0.0510
     11  C          8.0500   -2.4270   -0.5390 C.2     1  UNL1        0.1660
     12  C          8.3540   -2.6820   -1.8540 C.2     1  UNL1        0.1650
     13  O          8.5270   -3.4730    0.2320 O.2     1  UNL1       -0.4540
     14  O          9.0280   -3.9040   -1.8820 O.2     1  UNL1       -0.4540
     15  C          8.8700   -4.5570   -0.6440 C.3     1  UNL1        0.4680
@<TRIPOS>BOND
     1    10     8    1
     2    10    12    2
     3     8     7    2
     4    14    12    1
     5    14    15    1
     6    12    11    1
     7     7     6    1
     8     7     9    1
     9     6     1    1
    10    15    13    1
    11    11     9    2
    12    11    13    1
    13     1     2    1
    14     3     2    2
    15     2     4    1
    16     4     5    1
