MODEL 1
REMARK VINA RESULT:      -7.7      0.000      0.000
REMARK SMILES O=C(O)CCc1ccc2c(c1)OCO2
REMARK SMILES IDX 4 1 2 2 1 3 3 4 5 6 6 7 7 8 11 9 8 10 10 11 9 12 12 13 14 14
REMARK SMILES IDX 13 15
REMARK H PARENT 3 5
REMARK Flexibility Score: inf
ROOT
ATOM      1  C   UNL     1       5.429   2.878   0.112  1.00  0.00     0.127 C 
ENDROOT
BRANCH   1   2
ATOM      2  C   UNL     1       6.251   3.857   0.806  1.00  0.00     0.303 C 
ATOM      3  O   UNL     1       6.879   4.773   0.273  1.00  0.00    -0.252 OA
BRANCH   2   4
ATOM      4  O   UNL     1       6.338   3.751   2.203  1.00  0.00    -0.481 OA
ATOM      5  H   UNL     1       5.921   2.930   2.614  1.00  0.00     0.296 HD
ENDBRANCH   2   4
ENDBRANCH   1   2
BRANCH   1   6
ATOM      6  C   UNL     1       5.360   1.565   0.788  1.00  0.00     0.047 C 
BRANCH   6   7
ATOM      7  C   UNL     1       6.141   0.466   0.216  1.00  0.00    -0.043 A 
ATOM      8  C   UNL     1       6.603  -0.580   0.999  1.00  0.00     0.008 A 
ATOM      9  C   UNL     1       6.472   0.461  -1.113  1.00  0.00     0.054 A 
ATOM     10  C   UNL     1       7.369  -1.595   0.469  1.00  0.00     0.051 A 
ATOM     11  C   UNL     1       7.238  -0.547  -1.667  1.00  0.00     0.166 A 
ATOM     12  C   UNL     1       7.689  -1.578  -0.879  1.00  0.00     0.165 A 
ATOM     13  O   UNL     1       7.686  -0.756  -2.960  1.00  0.00    -0.454 OA
ATOM     14  O   UNL     1       8.424  -2.428  -1.707  1.00  0.00    -0.454 OA
ATOM     15  C   UNL     1       8.696  -1.776  -2.926  1.00  0.00     0.468 C 
ENDBRANCH   6   7
ENDBRANCH   1   6
TORSDOF 4
ENDMDL
MODEL 2
REMARK VINA RESULT:      -7.6      2.129      2.514
REMARK SMILES O=C(O)CCc1ccc2c(c1)OCO2
REMARK SMILES IDX 4 1 2 2 1 3 3 4 5 6 6 7 7 8 11 9 8 10 10 11 9 12 12 13 14 14
REMARK SMILES IDX 13 15
REMARK H PARENT 3 5
REMARK Flexibility Score: inf
ROOT
ATOM      1  C   UNL     1       4.718   1.883   0.681  1.00  0.00     0.127 C 
ENDROOT
BRANCH   1   2
ATOM      2  C   UNL     1       4.387   1.167   1.904  1.00  0.00     0.303 C 
ATOM      3  O   UNL     1       5.089   0.312   2.446  1.00  0.00    -0.252 OA
BRANCH   2   4
ATOM      4  O   UNL     1       3.164   1.476   2.520  1.00  0.00    -0.481 OA
ATOM      5  H   UNL     1       2.909   0.907   3.312  1.00  0.00     0.296 HD
ENDBRANCH   2   4
ENDBRANCH   1   2
BRANCH   1   6
ATOM      6  C   UNL     1       6.152   2.223   0.554  1.00  0.00     0.047 C 
BRANCH   6   7
ATOM      7  C   UNL     1       6.995   1.319  -0.231  1.00  0.00    -0.043 A 
ATOM      8  C   UNL     1       8.353   1.549  -0.388  1.00  0.00     0.008 A 
ATOM      9  C   UNL     1       6.454   0.235  -0.870  1.00  0.00     0.054 A 
ATOM     10  C   UNL     1       9.141   0.720  -1.157  1.00  0.00     0.051 A 
ATOM     11  C   UNL     1       7.225  -0.610  -1.646  1.00  0.00     0.166 A 
ATOM     12  C   UNL     1       8.570  -0.371  -1.792  1.00  0.00     0.165 A 
ATOM     13  O   UNL     1       6.901  -1.744  -2.369  1.00  0.00    -0.454 OA
ATOM     14  O   UNL     1       9.071  -1.378  -2.619  1.00  0.00    -0.454 OA
ATOM     15  C   UNL     1       8.001  -2.054  -3.237  1.00  0.00     0.468 C 
ENDBRANCH   6   7
ENDBRANCH   1   6
TORSDOF 4
ENDMDL
MODEL 3
REMARK VINA RESULT:      -7.5      1.975      2.891
REMARK SMILES O=C(O)CCc1ccc2c(c1)OCO2
REMARK SMILES IDX 4 1 2 2 1 3 3 4 5 6 6 7 7 8 11 9 8 10 10 11 9 12 12 13 14 14
REMARK SMILES IDX 13 15
REMARK H PARENT 3 5
REMARK Flexibility Score: inf
ROOT
ATOM      1  C   UNL     1       6.415   1.352   0.612  1.00  0.00     0.127 C 
ENDROOT
BRANCH   1   2
ATOM      2  C   UNL     1       5.199   1.328   1.410  1.00  0.00     0.303 C 
ATOM      3  O   UNL     1       4.255   2.112   1.300  1.00  0.00    -0.252 OA
BRANCH   2   4
ATOM      4  O   UNL     1       5.090   0.329   2.389  1.00  0.00    -0.481 OA
ATOM      5  H   UNL     1       5.581   0.497   3.254  1.00  0.00     0.296 HD
ENDBRANCH   2   4
ENDBRANCH   1   2
BRANCH   1   6
ATOM      6  C   UNL     1       6.240   0.842  -0.765  1.00  0.00     0.047 C 
BRANCH   6   7
ATOM      7  C   UNL     1       6.990  -0.357  -1.144  1.00  0.00    -0.043 A 
ATOM      8  C   UNL     1       7.303  -0.628  -2.467  1.00  0.00     0.008 A 
ATOM      9  C   UNL     1       7.373  -1.272  -0.199  1.00  0.00     0.054 A 
ATOM     10  C   UNL     1       7.976  -1.773  -2.829  1.00  0.00     0.051 A 
ATOM     11  C   UNL     1       8.050  -2.427  -0.539  1.00  0.00     0.166 A 
ATOM     12  C   UNL     1       8.354  -2.682  -1.854  1.00  0.00     0.165 A 
ATOM     13  O   UNL     1       8.527  -3.473   0.232  1.00  0.00    -0.454 OA
ATOM     14  O   UNL     1       9.028  -3.904  -1.882  1.00  0.00    -0.454 OA
ATOM     15  C   UNL     1       8.870  -4.557  -0.644  1.00  0.00     0.468 C 
ENDBRANCH   6   7
ENDBRANCH   1   6
TORSDOF 4
ENDMDL
MODEL 4
REMARK VINA RESULT:      -7.4      1.791      5.291
REMARK SMILES O=C(O)CCc1ccc2c(c1)OCO2
REMARK SMILES IDX 4 1 2 2 1 3 3 4 5 6 6 7 7 8 11 9 8 10 10 11 9 12 12 13 14 14
REMARK SMILES IDX 13 15
REMARK H PARENT 3 5
REMARK Flexibility Score: inf
ROOT
ATOM      1  C   UNL     1       8.313  -0.322  -2.856  1.00  0.00     0.127 C 
ENDROOT
BRANCH   1   2
ATOM      2  C   UNL     1       8.475  -1.751  -3.073  1.00  0.00     0.303 C 
ATOM      3  O   UNL     1       9.543  -2.366  -3.036  1.00  0.00    -0.252 OA
BRANCH   2   4
ATOM      4  O   UNL     1       7.318  -2.497  -3.348  1.00  0.00    -0.481 OA
ATOM      5  H   UNL     1       7.372  -3.487  -3.165  1.00  0.00     0.296 HD
ENDBRANCH   2   4
ENDBRANCH   1   2
BRANCH   1   6
ATOM      6  C   UNL     1       8.763   0.138  -1.525  1.00  0.00     0.047 C 
BRANCH   6   7
ATOM      7  C   UNL     1       7.790   0.098  -0.431  1.00  0.00    -0.043 A 
ATOM      8  C   UNL     1       7.733  -0.972   0.449  1.00  0.00     0.008 A 
ATOM      9  C   UNL     1       6.878   1.106  -0.268  1.00  0.00     0.054 A 
ATOM     10  C   UNL     1       6.796  -1.028   1.456  1.00  0.00     0.051 A 
ATOM     11  C   UNL     1       5.928   1.071   0.736  1.00  0.00     0.166 A 
ATOM     12  C   UNL     1       5.884   0.005   1.602  1.00  0.00     0.165 A 
ATOM     13  O   UNL     1       4.926   1.960   1.084  1.00  0.00    -0.454 OA
ATOM     14  O   UNL     1       4.836   0.250   2.491  1.00  0.00    -0.454 OA
ATOM     15  C   UNL     1       4.036   1.299   1.996  1.00  0.00     0.468 C 
ENDBRANCH   6   7
ENDBRANCH   1   6
TORSDOF 4
ENDMDL
MODEL 5
REMARK VINA RESULT:      -7.4      0.980      2.106
REMARK SMILES O=C(O)CCc1ccc2c(c1)OCO2
REMARK SMILES IDX 4 1 2 2 1 3 3 4 5 6 6 7 7 8 11 9 8 10 10 11 9 12 12 13 14 14
REMARK SMILES IDX 13 15
REMARK H PARENT 3 5
REMARK Flexibility Score: inf
ROOT
ATOM      1  C   UNL     1       5.564   2.629   0.039  1.00  0.00     0.127 C 
ENDROOT
BRANCH   1   2
ATOM      2  C   UNL     1       6.156   3.687   0.842  1.00  0.00     0.303 C 
ATOM      3  O   UNL     1       6.141   3.747   2.073  1.00  0.00    -0.252 OA
BRANCH   2   4
ATOM      4  O   UNL     1       6.799   4.731   0.159  1.00  0.00    -0.481 OA
ATOM      5  H   UNL     1       6.292   5.600   0.094  1.00  0.00     0.296 HD
ENDBRANCH   2   4
ENDBRANCH   1   2
BRANCH   1   6
ATOM      6  C   UNL     1       5.603   1.296   0.678  1.00  0.00     0.047 C 
BRANCH   6   7
ATOM      7  C   UNL     1       6.380   0.248   0.013  1.00  0.00    -0.043 A 
ATOM      8  C   UNL     1       6.473   0.181  -1.369  1.00  0.00     0.008 A 
ATOM      9  C   UNL     1       7.009  -0.727   0.741  1.00  0.00     0.054 A 
ATOM     10  C   UNL     1       7.172  -0.825  -1.997  1.00  0.00     0.051 A 
ATOM     11  C   UNL     1       7.717  -1.745   0.133  1.00  0.00     0.166 A 
ATOM     12  C   UNL     1       7.802  -1.798  -1.238  1.00  0.00     0.165 A 
ATOM     13  O   UNL     1       8.420  -2.816   0.657  1.00  0.00    -0.454 OA
ATOM     14  O   UNL     1       8.569  -2.921  -1.551  1.00  0.00    -0.454 OA
ATOM     15  C   UNL     1       8.697  -3.737  -0.409  1.00  0.00     0.468 C 
ENDBRANCH   6   7
ENDBRANCH   1   6
TORSDOF 4
ENDMDL
