@<TRIPOS>MOLECULE
/home/cewinharhar/GITHUB/reincatalyze/data/processed/docking_pred/2023-May-17-1006_maxeplen10_maxtrainstep1000_seadep16_gamma099_lrac9e-4_lrcr1e-3_sub6/b1cc709a4c09585943c6b669d8b61c6b26bf0288_ligand_6.pdbqt
 15 16 0 0 0
SMALL
GASTEIGER

@<TRIPOS>ATOM
      1  C          5.4130    2.8170    0.0500 C.3     1  UNL1        0.1270
      2  C          6.1250    3.8150    0.8330 C.2     1  UNL1        0.3030
      3  O          6.1320    3.8900    2.0630 O.2     1  UNL1       -0.2520
      4  O          6.8700    4.7750    0.1300 O.3     1  UNL1       -0.4810
      5  H          7.8130    4.5150   -0.1150 H       1  UNL1        0.2960
      6  C          5.3790    1.4770    0.6740 C.3     1  UNL1        0.0470
      7  C          6.2230    0.4340    0.0850 C.2     1  UNL1       -0.0430
      8  C          6.5110    0.4150   -1.2710 C.2     1  UNL1        0.0080
      9  C          6.7220   -0.5810    0.8570 C.2     1  UNL1        0.0540
     10  C          7.2730   -0.5850   -1.8320 C.2     1  UNL1        0.0510
     11  C          7.4900   -1.5940    0.3160 C.2     1  UNL1        0.1660
     12  C          7.7690   -1.6000   -1.0300 C.2     1  UNL1        0.1650
     13  O          8.0900   -2.7010    0.8920 O.2     1  UNL1       -0.4540
     14  O          8.5510   -2.7300   -1.2750 O.2     1  UNL1       -0.4540
     15  C          8.4990   -3.5890   -0.1590 C.3     1  UNL1        0.4680
@<TRIPOS>BOND
     1    10     8    1
     2    10    12    2
     3    14    12    1
     4    14    15    1
     5     8     7    2
     6    12    11    1
     7    15    13    1
     8     5     4    1
     9     1     6    1
    10     1     2    1
    11     7     6    1
    12     7     9    1
    13     4     2    1
    14    11     9    2
    15    11    13    1
    16     2     3    2
