@<TRIPOS>MOLECULE
/home/cewinharhar/GITHUB/reincatalyze/data/processed/docking_pred/2023-May-17-1006_maxeplen10_maxtrainstep1000_seadep16_gamma099_lrac9e-4_lrcr1e-3_sub6/b1cc709a4c09585943c6b669d8b61c6b26bf0288_ligand_6.pdbqt
 15 16 0 0 0
SMALL
GASTEIGER

@<TRIPOS>ATOM
      1  C          8.2660   -0.3110   -2.8190 C.3     1  UNL1        0.1270
      2  C          8.4590   -1.7350   -3.0470 C.2     1  UNL1        0.3030
      3  O          9.5350   -2.3320   -2.9840 O.2     1  UNL1       -0.2520
      4  O          7.3230   -2.4960   -3.3660 O.3     1  UNL1       -0.4810
      5  H          6.5010   -1.9770   -3.6370 H       1  UNL1        0.2960
      6  C          8.7170    0.1500   -1.4880 C.3     1  UNL1        0.0470
      7  C          7.7450    0.1150   -0.3940 C.2     1  UNL1       -0.0430
      8  C          7.6870   -0.9510    0.4910 C.2     1  UNL1        0.0080
      9  C          6.8330    1.1240   -0.2350 C.2     1  UNL1        0.0540
     10  C          6.7500   -1.0030    1.4980 C.2     1  UNL1        0.0510
     11  C          5.8830    1.0940    0.7690 C.2     1  UNL1        0.1660
     12  C          5.8390    0.0320    1.6390 C.2     1  UNL1        0.1650
     13  O          4.8820    1.9850    1.1140 O.2     1  UNL1       -0.4540
     14  O          4.7910    0.2820    2.5270 O.2     1  UNL1       -0.4540
     15  C          3.9910    1.3280    2.0280 C.3     1  UNL1        0.4680
@<TRIPOS>BOND
     1     5     4    1
     2     4     2    1
     3     2     3    2
     4     2     1    1
     5     1     6    1
     6     6     7    1
     7     7     9    2
     8     7     8    1
     9     9    11    1
    10     8    10    2
    11    11    13    1
    12    11    12    2
    13    13    15    1
    14    10    12    1
    15    12    14    1
    16    15    14    1
