@<TRIPOS>MOLECULE
/home/cewinharhar/GITHUB/reincatalyze/data/processed/docking_pred/2023-May-17-1006_maxeplen10_maxtrainstep1000_seadep16_gamma099_lrac9e-4_lrcr1e-3_sub6/b1cc709a4c09585943c6b669d8b61c6b26bf0288_ligand_6.pdbqt
 15 16 0 0 0
SMALL
GASTEIGER

@<TRIPOS>ATOM
      1  C          5.4110    2.8790    0.1300 C.3     1  UNL1        0.1270
      2  C          6.2430    3.8540    0.8180 C.2     1  UNL1        0.3030
      3  O          6.8660    4.7720    0.2810 O.2     1  UNL1       -0.2520
      4  O          6.3470    3.7420    2.2130 O.3     1  UNL1       -0.4810
      5  H          5.9190    4.4780    2.7520 H       1  UNL1        0.2960
      6  C          5.3180    1.5750    0.8210 C.3     1  UNL1        0.0470
      7  C          6.1010    0.4630    0.2780 C.2     1  UNL1       -0.0430
      8  C          6.5850   -0.5490    1.0920 C.2     1  UNL1        0.0080
      9  C          6.4120    0.4120   -1.0550 C.2     1  UNL1        0.0540
     10  C          7.3520   -1.5750    0.5880 C.2     1  UNL1        0.0510
     11  C          7.1790   -0.6090   -1.5830 C.2     1  UNL1        0.1660
     12  C          7.6520   -1.6060   -0.7640 C.2     1  UNL1        0.1650
     13  O          7.6100   -0.8620   -2.8740 O.2     1  UNL1       -0.4540
     14  O          8.3820   -2.4790   -1.5720 O.2     1  UNL1       -0.4540
     15  C          8.6300   -1.8710   -2.8180 C.3     1  UNL1        0.4680
@<TRIPOS>BOND
     1    13    15    1
     2    13    11    1
     3    15    14    1
     4    11     9    1
     5    11    12    2
     6    14    12    1
     7     9     7    2
     8    12    10    1
     9     1     2    1
    10     1     6    1
    11     7     6    1
    12     7     8    1
    13     3     2    2
    14    10     8    2
    15     2     4    1
    16     4     5    1
