@<TRIPOS>MOLECULE
/home/cewinharhar/GITHUB/reincatalyze/data/processed/docking_pred/2023-May-17-1006_maxeplen10_maxtrainstep1000_seadep16_gamma099_lrac9e-4_lrcr1e-3_sub6/b1cc709a4c09585943c6b669d8b61c6b26bf0288_ligand_6.pdbqt
 15 16 0 0 0
SMALL
GASTEIGER

@<TRIPOS>ATOM
      1  C          4.7150    1.8750    0.6830 C.3     1  UNL1        0.1270
      2  C          4.4140    1.1620    1.9150 C.2     1  UNL1        0.3030
      3  O          5.1450    0.3340    2.4610 O.2     1  UNL1       -0.2520
      4  O          3.1860    1.4390    2.5350 O.3     1  UNL1       -0.4810
      5  H          2.4100    0.8520    2.2690 H       1  UNL1        0.2960
      6  C          6.1410    2.2360    0.5330 C.3     1  UNL1        0.0470
      7  C          6.9910    1.3300   -0.2430 C.2     1  UNL1       -0.0430
      8  C          8.3520    1.5550   -0.3830 C.2     1  UNL1        0.0080
      9  C          6.4550    0.2470   -0.8880 C.2     1  UNL1        0.0540
     10  C          9.1460    0.7240   -1.1410 C.2     1  UNL1        0.0510
     11  C          7.2320   -0.6010   -1.6540 C.2     1  UNL1        0.1660
     12  C          8.5800   -0.3660   -1.7830 C.2     1  UNL1        0.1650
     13  O          6.9130   -1.7340   -2.3810 O.2     1  UNL1       -0.4540
     14  O          9.0880   -1.3740   -2.6040 O.2     1  UNL1       -0.4540
     15  C          8.0230   -2.0470   -3.2350 C.3     1  UNL1        0.4680
@<TRIPOS>BOND
     1    15    14    1
     2    15    13    1
     3    14    12    1
     4    13    11    1
     5    12    11    2
     6    12    10    1
     7    11     9    1
     8    10     8    2
     9     9     7    2
    10     8     7    1
    11     7     6    1
    12     6     1    1
    13     1     2    1
    14     2     3    2
    15     2     4    1
    16     5     4    1
