@<TRIPOS>MOLECULE
/home/cewinharhar/GITHUB/reincatalyze/data/processed/docking_pred/2023-May-17-1006_maxeplen10_maxtrainstep1000_seadep16_gamma099_lrac9e-4_lrcr1e-3_sub6/b1cc709a4c09585943c6b669d8b61c6b26bf0288_ligand_6.pdbqt
 15 16 0 0 0
SMALL
GASTEIGER

@<TRIPOS>ATOM
      1  C          6.3950    1.3320    0.6610 C.3     1  UNL1        0.1270
      2  C          5.1980    1.2960    1.4870 C.2     1  UNL1        0.3030
      3  O          4.2490    2.0790    1.4090 O.2     1  UNL1       -0.2520
      4  O          5.1140    0.2850    2.4570 O.3     1  UNL1       -0.4810
      5  H          4.1890    0.0690    2.7960 H       1  UNL1        0.2960
      6  C          6.1820    0.8620   -0.7240 C.3     1  UNL1        0.0470
      7  C          6.9540   -0.2990   -1.1720 C.2     1  UNL1       -0.0430
      8  C          7.2730   -0.4870   -2.5080 C.2     1  UNL1        0.0080
      9  C          7.3530   -1.2600   -0.2810 C.2     1  UNL1        0.0540
     10  C          7.9680   -1.5970   -2.9340 C.2     1  UNL1        0.0510
     11  C          8.0520   -2.3820   -0.6860 C.2     1  UNL1        0.1660
     12  C          8.3620   -2.5540   -2.0130 C.2     1  UNL1        0.1650
     13  O          8.5480   -3.4610    0.0240 O.2     1  UNL1       -0.4540
     14  O          9.0580   -3.7590   -2.1120 O.2     1  UNL1       -0.4540
     15  C          8.9120   -4.4860   -0.9140 C.3     1  UNL1        0.4680
@<TRIPOS>BOND
     1    10     8    1
     2    10    12    2
     3     8     7    2
     4    14    12    1
     5    14    15    1
     6    12    11    1
     7     7     6    1
     8     7     9    1
     9    15    13    1
    10     6     1    1
    11    11     9    2
    12    11    13    1
    13     1     2    1
    14     3     2    2
    15     2     4    1
    16     4     5    1
