MODEL 1
REMARK VINA RESULT:      -7.7      0.000      0.000
REMARK SMILES O=C(O)CCc1ccc2c(c1)OCO2
REMARK SMILES IDX 4 1 2 2 1 3 3 4 5 6 6 7 7 8 11 9 8 10 10 11 9 12 12 13 14 14
REMARK SMILES IDX 13 15
REMARK H PARENT 3 5
REMARK Flexibility Score: inf
ROOT
ATOM      1  C   UNL     1       5.411   2.879   0.130  1.00  0.00     0.127 C 
ENDROOT
BRANCH   1   2
ATOM      2  C   UNL     1       6.243   3.854   0.818  1.00  0.00     0.303 C 
ATOM      3  O   UNL     1       6.866   4.772   0.281  1.00  0.00    -0.252 OA
BRANCH   2   4
ATOM      4  O   UNL     1       6.347   3.742   2.213  1.00  0.00    -0.481 OA
ATOM      5  H   UNL     1       5.919   4.478   2.752  1.00  0.00     0.296 HD
ENDBRANCH   2   4
ENDBRANCH   1   2
BRANCH   1   6
ATOM      6  C   UNL     1       5.318   1.575   0.821  1.00  0.00     0.047 C 
BRANCH   6   7
ATOM      7  C   UNL     1       6.101   0.463   0.278  1.00  0.00    -0.043 A 
ATOM      8  C   UNL     1       6.585  -0.549   1.092  1.00  0.00     0.008 A 
ATOM      9  C   UNL     1       6.412   0.412  -1.055  1.00  0.00     0.054 A 
ATOM     10  C   UNL     1       7.352  -1.575   0.588  1.00  0.00     0.051 A 
ATOM     11  C   UNL     1       7.179  -0.609  -1.583  1.00  0.00     0.166 A 
ATOM     12  C   UNL     1       7.652  -1.606  -0.764  1.00  0.00     0.165 A 
ATOM     13  O   UNL     1       7.610  -0.862  -2.874  1.00  0.00    -0.454 OA
ATOM     14  O   UNL     1       8.382  -2.479  -1.572  1.00  0.00    -0.454 OA
ATOM     15  C   UNL     1       8.630  -1.871  -2.818  1.00  0.00     0.468 C 
ENDBRANCH   6   7
ENDBRANCH   1   6
TORSDOF 4
ENDMDL
MODEL 2
REMARK VINA RESULT:      -7.6      2.135      2.521
REMARK SMILES O=C(O)CCc1ccc2c(c1)OCO2
REMARK SMILES IDX 4 1 2 2 1 3 3 4 5 6 6 7 7 8 11 9 8 10 10 11 9 12 12 13 14 14
REMARK SMILES IDX 13 15
REMARK H PARENT 3 5
REMARK Flexibility Score: inf
ROOT
ATOM      1  C   UNL     1       4.715   1.875   0.683  1.00  0.00     0.127 C 
ENDROOT
BRANCH   1   2
ATOM      2  C   UNL     1       4.414   1.162   1.915  1.00  0.00     0.303 C 
ATOM      3  O   UNL     1       5.145   0.334   2.461  1.00  0.00    -0.252 OA
BRANCH   2   4
ATOM      4  O   UNL     1       3.186   1.439   2.535  1.00  0.00    -0.481 OA
ATOM      5  H   UNL     1       2.410   0.852   2.269  1.00  0.00     0.296 HD
ENDBRANCH   2   4
ENDBRANCH   1   2
BRANCH   1   6
ATOM      6  C   UNL     1       6.141   2.236   0.533  1.00  0.00     0.047 C 
BRANCH   6   7
ATOM      7  C   UNL     1       6.991   1.330  -0.243  1.00  0.00    -0.043 A 
ATOM      8  C   UNL     1       8.352   1.555  -0.383  1.00  0.00     0.008 A 
ATOM      9  C   UNL     1       6.455   0.247  -0.888  1.00  0.00     0.054 A 
ATOM     10  C   UNL     1       9.146   0.724  -1.141  1.00  0.00     0.051 A 
ATOM     11  C   UNL     1       7.232  -0.601  -1.654  1.00  0.00     0.166 A 
ATOM     12  C   UNL     1       8.580  -0.366  -1.783  1.00  0.00     0.165 A 
ATOM     13  O   UNL     1       6.913  -1.734  -2.381  1.00  0.00    -0.454 OA
ATOM     14  O   UNL     1       9.088  -1.374  -2.604  1.00  0.00    -0.454 OA
ATOM     15  C   UNL     1       8.023  -2.047  -3.235  1.00  0.00     0.468 C 
ENDBRANCH   6   7
ENDBRANCH   1   6
TORSDOF 4
ENDMDL
MODEL 3
REMARK VINA RESULT:      -7.5      1.959      2.864
REMARK SMILES O=C(O)CCc1ccc2c(c1)OCO2
REMARK SMILES IDX 4 1 2 2 1 3 3 4 5 6 6 7 7 8 11 9 8 10 10 11 9 12 12 13 14 14
REMARK SMILES IDX 13 15
REMARK H PARENT 3 5
REMARK Flexibility Score: inf
ROOT
ATOM      1  C   UNL     1       6.395   1.332   0.661  1.00  0.00     0.127 C 
ENDROOT
BRANCH   1   2
ATOM      2  C   UNL     1       5.198   1.296   1.487  1.00  0.00     0.303 C 
ATOM      3  O   UNL     1       4.249   2.079   1.409  1.00  0.00    -0.252 OA
BRANCH   2   4
ATOM      4  O   UNL     1       5.114   0.285   2.457  1.00  0.00    -0.481 OA
ATOM      5  H   UNL     1       4.189   0.069   2.796  1.00  0.00     0.296 HD
ENDBRANCH   2   4
ENDBRANCH   1   2
BRANCH   1   6
ATOM      6  C   UNL     1       6.182   0.862  -0.724  1.00  0.00     0.047 C 
BRANCH   6   7
ATOM      7  C   UNL     1       6.954  -0.299  -1.172  1.00  0.00    -0.043 A 
ATOM      8  C   UNL     1       7.273  -0.487  -2.508  1.00  0.00     0.008 A 
ATOM      9  C   UNL     1       7.353  -1.260  -0.281  1.00  0.00     0.054 A 
ATOM     10  C   UNL     1       7.968  -1.597  -2.934  1.00  0.00     0.051 A 
ATOM     11  C   UNL     1       8.052  -2.382  -0.686  1.00  0.00     0.166 A 
ATOM     12  C   UNL     1       8.362  -2.554  -2.013  1.00  0.00     0.165 A 
ATOM     13  O   UNL     1       8.548  -3.461   0.024  1.00  0.00    -0.454 OA
ATOM     14  O   UNL     1       9.058  -3.759  -2.112  1.00  0.00    -0.454 OA
ATOM     15  C   UNL     1       8.912  -4.486  -0.914  1.00  0.00     0.468 C 
ENDBRANCH   6   7
ENDBRANCH   1   6
TORSDOF 4
ENDMDL
MODEL 4
REMARK VINA RESULT:      -7.5      0.926      2.090
REMARK SMILES O=C(O)CCc1ccc2c(c1)OCO2
REMARK SMILES IDX 4 1 2 2 1 3 3 4 5 6 6 7 7 8 11 9 8 10 10 11 9 12 12 13 14 14
REMARK SMILES IDX 13 15
REMARK H PARENT 3 5
REMARK Flexibility Score: inf
ROOT
ATOM      1  C   UNL     1       5.413   2.817   0.050  1.00  0.00     0.127 C 
ENDROOT
BRANCH   1   2
ATOM      2  C   UNL     1       6.125   3.815   0.833  1.00  0.00     0.303 C 
ATOM      3  O   UNL     1       6.132   3.890   2.063  1.00  0.00    -0.252 OA
BRANCH   2   4
ATOM      4  O   UNL     1       6.870   4.775   0.130  1.00  0.00    -0.481 OA
ATOM      5  H   UNL     1       7.813   4.515  -0.115  1.00  0.00     0.296 HD
ENDBRANCH   2   4
ENDBRANCH   1   2
BRANCH   1   6
ATOM      6  C   UNL     1       5.379   1.477   0.674  1.00  0.00     0.047 C 
BRANCH   6   7
ATOM      7  C   UNL     1       6.223   0.434   0.085  1.00  0.00    -0.043 A 
ATOM      8  C   UNL     1       6.511   0.415  -1.271  1.00  0.00     0.008 A 
ATOM      9  C   UNL     1       6.722  -0.581   0.857  1.00  0.00     0.054 A 
ATOM     10  C   UNL     1       7.273  -0.585  -1.832  1.00  0.00     0.051 A 
ATOM     11  C   UNL     1       7.490  -1.594   0.316  1.00  0.00     0.166 A 
ATOM     12  C   UNL     1       7.769  -1.600  -1.030  1.00  0.00     0.165 A 
ATOM     13  O   UNL     1       8.090  -2.701   0.892  1.00  0.00    -0.454 OA
ATOM     14  O   UNL     1       8.551  -2.730  -1.275  1.00  0.00    -0.454 OA
ATOM     15  C   UNL     1       8.499  -3.589  -0.159  1.00  0.00     0.468 C 
ENDBRANCH   6   7
ENDBRANCH   1   6
TORSDOF 4
ENDMDL
MODEL 5
REMARK VINA RESULT:      -7.4      1.785      5.278
REMARK SMILES O=C(O)CCc1ccc2c(c1)OCO2
REMARK SMILES IDX 4 1 2 2 1 3 3 4 5 6 6 7 7 8 11 9 8 10 10 11 9 12 12 13 14 14
REMARK SMILES IDX 13 15
REMARK H PARENT 3 5
REMARK Flexibility Score: inf
ROOT
ATOM      1  C   UNL     1       8.266  -0.311  -2.819  1.00  0.00     0.127 C 
ENDROOT
BRANCH   1   2
ATOM      2  C   UNL     1       8.459  -1.735  -3.047  1.00  0.00     0.303 C 
ATOM      3  O   UNL     1       9.535  -2.332  -2.984  1.00  0.00    -0.252 OA
BRANCH   2   4
ATOM      4  O   UNL     1       7.323  -2.496  -3.366  1.00  0.00    -0.481 OA
ATOM      5  H   UNL     1       6.501  -1.977  -3.637  1.00  0.00     0.296 HD
ENDBRANCH   2   4
ENDBRANCH   1   2
BRANCH   1   6
ATOM      6  C   UNL     1       8.717   0.150  -1.488  1.00  0.00     0.047 C 
BRANCH   6   7
ATOM      7  C   UNL     1       7.745   0.115  -0.394  1.00  0.00    -0.043 A 
ATOM      8  C   UNL     1       7.687  -0.951   0.491  1.00  0.00     0.008 A 
ATOM      9  C   UNL     1       6.833   1.124  -0.235  1.00  0.00     0.054 A 
ATOM     10  C   UNL     1       6.750  -1.003   1.498  1.00  0.00     0.051 A 
ATOM     11  C   UNL     1       5.883   1.094   0.769  1.00  0.00     0.166 A 
ATOM     12  C   UNL     1       5.839   0.032   1.639  1.00  0.00     0.165 A 
ATOM     13  O   UNL     1       4.882   1.985   1.114  1.00  0.00    -0.454 OA
ATOM     14  O   UNL     1       4.791   0.282   2.527  1.00  0.00    -0.454 OA
ATOM     15  C   UNL     1       3.991   1.328   2.028  1.00  0.00     0.468 C 
ENDBRANCH   6   7
ENDBRANCH   1   6
TORSDOF 4
ENDMDL
