MODEL 1
REMARK VINA RESULT:      -7.7      0.000      0.000
REMARK SMILES O=C(O)CCc1ccc2c(c1)OCO2
REMARK SMILES IDX 4 1 2 2 1 3 3 4 5 6 6 7 7 8 11 9 8 10 10 11 9 12 12 13 14 14
REMARK SMILES IDX 13 15
REMARK H PARENT 3 5
REMARK Flexibility Score: inf
ROOT
ATOM      1  C   UNL     1       5.415   2.869   0.129  1.00  0.00     0.127 C 
ENDROOT
BRANCH   1   2
ATOM      2  C   UNL     1       6.245   3.845   0.817  1.00  0.00     0.303 C 
ATOM      3  O   UNL     1       6.872   4.760   0.280  1.00  0.00    -0.252 OA
BRANCH   2   4
ATOM      4  O   UNL     1       6.343   3.737   2.213  1.00  0.00    -0.481 OA
ATOM      5  H   UNL     1       5.797   3.006   2.643  1.00  0.00     0.296 HD
ENDBRANCH   2   4
ENDBRANCH   1   2
BRANCH   1   6
ATOM      6  C   UNL     1       5.344   1.557   0.806  1.00  0.00     0.047 C 
BRANCH   6   7
ATOM      7  C   UNL     1       6.128   0.458   0.239  1.00  0.00    -0.043 A 
ATOM      8  C   UNL     1       6.590  -0.585   1.027  1.00  0.00     0.008 A 
ATOM      9  C   UNL     1       6.463   0.450  -1.089  1.00  0.00     0.054 A 
ATOM     10  C   UNL     1       7.359  -1.600   0.502  1.00  0.00     0.051 A 
ATOM     11  C   UNL     1       7.232  -0.559  -1.638  1.00  0.00     0.166 A 
ATOM     12  C   UNL     1       7.682  -1.587  -0.845  1.00  0.00     0.165 A 
ATOM     13  O   UNL     1       7.684  -0.771  -2.929  1.00  0.00    -0.454 OA
ATOM     14  O   UNL     1       8.421  -2.437  -1.669  1.00  0.00    -0.454 OA
ATOM     15  C   UNL     1       8.695  -1.789  -2.890  1.00  0.00     0.468 C 
ENDBRANCH   6   7
ENDBRANCH   1   6
TORSDOF 4
ENDMDL
MODEL 2
REMARK VINA RESULT:      -7.6      2.113      2.508
REMARK SMILES O=C(O)CCc1ccc2c(c1)OCO2
REMARK SMILES IDX 4 1 2 2 1 3 3 4 5 6 6 7 7 8 11 9 8 10 10 11 9 12 12 13 14 14
REMARK SMILES IDX 13 15
REMARK H PARENT 3 5
REMARK Flexibility Score: inf
ROOT
ATOM      1  C   UNL     1       4.655   1.846   0.659  1.00  0.00     0.127 C 
ENDROOT
BRANCH   1   2
ATOM      2  C   UNL     1       4.388   1.162   1.915  1.00  0.00     0.303 C 
ATOM      3  O   UNL     1       5.143   0.361   2.470  1.00  0.00    -0.252 OA
BRANCH   2   4
ATOM      4  O   UNL     1       3.167   1.436   2.551  1.00  0.00    -0.481 OA
ATOM      5  H   UNL     1       3.160   2.223   3.181  1.00  0.00     0.296 HD
ENDBRANCH   2   4
ENDBRANCH   1   2
BRANCH   1   6
ATOM      6  C   UNL     1       6.067   2.248   0.483  1.00  0.00     0.047 C 
BRANCH   6   7
ATOM      7  C   UNL     1       6.941   1.343  -0.266  1.00  0.00    -0.043 A 
ATOM      8  C   UNL     1       8.301   1.581  -0.383  1.00  0.00     0.008 A 
ATOM      9  C   UNL     1       6.428   0.248  -0.909  1.00  0.00     0.054 A 
ATOM     10  C   UNL     1       9.118   0.750  -1.117  1.00  0.00     0.051 A 
ATOM     11  C   UNL     1       7.228  -0.600  -1.651  1.00  0.00     0.166 A 
ATOM     12  C   UNL     1       8.576  -0.352  -1.758  1.00  0.00     0.165 A 
ATOM     13  O   UNL     1       6.935  -1.744  -2.372  1.00  0.00    -0.454 OA
ATOM     14  O   UNL     1       9.109  -1.364  -2.557  1.00  0.00    -0.454 OA
ATOM     15  C   UNL     1       8.064  -2.055  -3.202  1.00  0.00     0.468 C 
ENDBRANCH   6   7
ENDBRANCH   1   6
TORSDOF 4
ENDMDL
MODEL 3
REMARK VINA RESULT:      -7.5      1.806      5.286
REMARK SMILES O=C(O)CCc1ccc2c(c1)OCO2
REMARK SMILES IDX 4 1 2 2 1 3 3 4 5 6 6 7 7 8 11 9 8 10 10 11 9 12 12 13 14 14
REMARK SMILES IDX 13 15
REMARK H PARENT 3 5
REMARK Flexibility Score: inf
ROOT
ATOM      1  C   UNL     1       8.292  -0.328  -2.845  1.00  0.00     0.127 C 
ENDROOT
BRANCH   1   2
ATOM      2  C   UNL     1       8.466  -1.754  -3.075  1.00  0.00     0.303 C 
ATOM      3  O   UNL     1       9.538  -2.361  -3.039  1.00  0.00    -0.252 OA
BRANCH   2   4
ATOM      4  O   UNL     1       7.316  -2.505  -3.363  1.00  0.00    -0.481 OA
ATOM      5  H   UNL     1       7.376  -3.497  -3.189  1.00  0.00     0.296 HD
ENDBRANCH   2   4
ENDBRANCH   1   2
BRANCH   1   6
ATOM      6  C   UNL     1       8.756   0.126  -1.516  1.00  0.00     0.047 C 
BRANCH   6   7
ATOM      7  C   UNL     1       7.793   0.088  -0.414  1.00  0.00    -0.043 A 
ATOM      8  C   UNL     1       7.767  -0.962   0.490  1.00  0.00     0.008 A 
ATOM      9  C   UNL     1       6.859   1.079  -0.266  1.00  0.00     0.054 A 
ATOM     10  C   UNL     1       6.839  -1.017   1.506  1.00  0.00     0.051 A 
ATOM     11  C   UNL     1       5.919   1.046   0.746  1.00  0.00     0.166 A 
ATOM     12  C   UNL     1       5.905  -0.002   1.636  1.00  0.00     0.165 A 
ATOM     13  O   UNL     1       4.899   1.919   1.082  1.00  0.00    -0.454 OA
ATOM     14  O   UNL     1       4.859   0.240   2.527  1.00  0.00    -0.454 OA
ATOM     15  C   UNL     1       4.031   1.259   2.016  1.00  0.00     0.468 C 
ENDBRANCH   6   7
ENDBRANCH   1   6
TORSDOF 4
ENDMDL
MODEL 4
REMARK VINA RESULT:      -7.4      1.954      2.855
REMARK SMILES O=C(O)CCc1ccc2c(c1)OCO2
REMARK SMILES IDX 4 1 2 2 1 3 3 4 5 6 6 7 7 8 11 9 8 10 10 11 9 12 12 13 14 14
REMARK SMILES IDX 13 15
REMARK H PARENT 3 5
REMARK Flexibility Score: inf
ROOT
ATOM      1  C   UNL     1       6.452   1.306   0.743  1.00  0.00     0.127 C 
ENDROOT
BRANCH   1   2
ATOM      2  C   UNL     1       5.198   1.333   1.478  1.00  0.00     0.303 C 
ATOM      3  O   UNL     1       4.287   2.147   1.314  1.00  0.00    -0.252 OA
BRANCH   2   4
ATOM      4  O   UNL     1       5.005   0.348   2.460  1.00  0.00    -0.481 OA
ATOM      5  H   UNL     1       4.335  -0.373   2.242  1.00  0.00     0.296 HD
ENDBRANCH   2   4
ENDBRANCH   1   2
BRANCH   1   6
ATOM      6  C   UNL     1       6.308   0.920  -0.677  1.00  0.00     0.047 C 
BRANCH   6   7
ATOM      7  C   UNL     1       7.035  -0.266  -1.134  1.00  0.00    -0.043 A 
ATOM      8  C   UNL     1       7.306  -0.477  -2.477  1.00  0.00     0.008 A 
ATOM      9  C   UNL     1       7.437  -1.226  -0.244  1.00  0.00     0.054 A 
ATOM     10  C   UNL     1       7.958  -1.610  -2.911  1.00  0.00     0.051 A 
ATOM     11  C   UNL     1       8.094  -2.370  -0.657  1.00  0.00     0.166 A 
ATOM     12  C   UNL     1       8.357  -2.566  -1.991  1.00  0.00     0.165 A 
ATOM     13  O   UNL     1       8.584  -3.454   0.050  1.00  0.00    -0.454 OA
ATOM     14  O   UNL     1       9.018  -3.791  -2.096  1.00  0.00    -0.454 OA
ATOM     15  C   UNL     1       8.891  -4.499  -0.885  1.00  0.00     0.468 C 
ENDBRANCH   6   7
ENDBRANCH   1   6
TORSDOF 4
ENDMDL
MODEL 5
REMARK VINA RESULT:      -7.4      1.029      2.134
REMARK SMILES O=C(O)CCc1ccc2c(c1)OCO2
REMARK SMILES IDX 4 1 2 2 1 3 3 4 5 6 6 7 7 8 11 9 8 10 10 11 9 12 12 13 14 14
REMARK SMILES IDX 13 15
REMARK H PARENT 3 5
REMARK Flexibility Score: inf
ROOT
ATOM      1  C   UNL     1       5.574   2.499   0.140  1.00  0.00     0.127 C 
ENDROOT
BRANCH   1   2
ATOM      2  C   UNL     1       6.137   3.635   0.853  1.00  0.00     0.303 C 
ATOM      3  O   UNL     1       6.105   3.804   2.073  1.00  0.00    -0.252 OA
BRANCH   2   4
ATOM      4  O   UNL     1       6.770   4.627   0.087  1.00  0.00    -0.481 OA
ATOM      5  H   UNL     1       6.419   4.758  -0.849  1.00  0.00     0.296 HD
ENDBRANCH   2   4
ENDBRANCH   1   2
BRANCH   1   6
ATOM      6  C   UNL     1       5.752   1.206   0.836  1.00  0.00     0.047 C 
BRANCH   6   7
ATOM      7  C   UNL     1       6.494   0.156   0.136  1.00  0.00    -0.043 A 
ATOM      8  C   UNL     1       6.572   0.124  -1.248  1.00  0.00     0.008 A 
ATOM      9  C   UNL     1       7.104  -0.854   0.832  1.00  0.00     0.054 A 
ATOM     10  C   UNL     1       7.239  -0.884  -1.910  1.00  0.00     0.051 A 
ATOM     11  C   UNL     1       7.779  -1.874   0.189  1.00  0.00     0.166 A 
ATOM     12  C   UNL     1       7.849  -1.893  -1.183  1.00  0.00     0.165 A 
ATOM     13  O   UNL     1       8.458  -2.977   0.677  1.00  0.00    -0.454 OA
ATOM     14  O   UNL     1       8.583  -3.027  -1.534  1.00  0.00    -0.454 OA
ATOM     15  C   UNL     1       8.701  -3.875  -0.415  1.00  0.00     0.468 C 
ENDBRANCH   6   7
ENDBRANCH   1   6
TORSDOF 4
ENDMDL
