@<TRIPOS>MOLECULE
/home/cewinharhar/GITHUB/reincatalyze/data/processed/docking_pred/2023-May-17-1006_maxeplen10_maxtrainstep1000_seadep16_gamma099_lrac9e-4_lrcr1e-3_sub6/b393d0f0af23d36e99ef7bf88514b4beffd0378d_ligand_6.pdbqt
 15 16 0 0 0
SMALL
GASTEIGER

@<TRIPOS>ATOM
      1  C          6.4520    1.3060    0.7430 C.3     1  UNL1        0.1270
      2  C          5.1980    1.3330    1.4780 C.2     1  UNL1        0.3030
      3  O          4.2870    2.1470    1.3140 O.2     1  UNL1       -0.2520
      4  O          5.0050    0.3480    2.4600 O.3     1  UNL1       -0.4810
      5  H          4.3350   -0.3730    2.2420 H       1  UNL1        0.2960
      6  C          6.3080    0.9200   -0.6770 C.3     1  UNL1        0.0470
      7  C          7.0350   -0.2660   -1.1340 C.2     1  UNL1       -0.0430
      8  C          7.3060   -0.4770   -2.4770 C.2     1  UNL1        0.0080
      9  C          7.4370   -1.2260   -0.2440 C.2     1  UNL1        0.0540
     10  C          7.9580   -1.6100   -2.9110 C.2     1  UNL1        0.0510
     11  C          8.0940   -2.3700   -0.6570 C.2     1  UNL1        0.1660
     12  C          8.3570   -2.5660   -1.9910 C.2     1  UNL1        0.1650
     13  O          8.5840   -3.4540    0.0500 O.2     1  UNL1       -0.4540
     14  O          9.0180   -3.7910   -2.0960 O.2     1  UNL1       -0.4540
     15  C          8.8910   -4.4990   -0.8850 C.3     1  UNL1        0.4680
@<TRIPOS>BOND
     1    10     8    1
     2    10    12    2
     3     8     7    2
     4    14    12    1
     5    14    15    1
     6    12    11    1
     7     7     6    1
     8     7     9    1
     9    15    13    1
    10     6     1    1
    11    11     9    2
    12    11    13    1
    13     1     2    1
    14     3     2    2
    15     2     4    1
    16     5     4    1
