@<TRIPOS>MOLECULE
/home/cewinharhar/GITHUB/reincatalyze/data/processed/docking_pred/2023-May-17-1006_maxeplen10_maxtrainstep1000_seadep16_gamma099_lrac9e-4_lrcr1e-3_sub6/b393d0f0af23d36e99ef7bf88514b4beffd0378d_ligand_6.pdbqt
 15 16 0 0 0
SMALL
GASTEIGER

@<TRIPOS>ATOM
      1  C          5.5740    2.4990    0.1400 C.3     1  UNL1        0.1270
      2  C          6.1370    3.6350    0.8530 C.2     1  UNL1        0.3030
      3  O          6.1050    3.8040    2.0730 O.2     1  UNL1       -0.2520
      4  O          6.7700    4.6270    0.0870 O.3     1  UNL1       -0.4810
      5  H          6.4190    4.7580   -0.8490 H       1  UNL1        0.2960
      6  C          5.7520    1.2060    0.8360 C.3     1  UNL1        0.0470
      7  C          6.4940    0.1560    0.1360 C.2     1  UNL1       -0.0430
      8  C          6.5720    0.1240   -1.2480 C.2     1  UNL1        0.0080
      9  C          7.1040   -0.8540    0.8320 C.2     1  UNL1        0.0540
     10  C          7.2390   -0.8840   -1.9100 C.2     1  UNL1        0.0510
     11  C          7.7790   -1.8740    0.1890 C.2     1  UNL1        0.1660
     12  C          7.8490   -1.8930   -1.1830 C.2     1  UNL1        0.1650
     13  O          8.4580   -2.9770    0.6770 O.2     1  UNL1       -0.4540
     14  O          8.5830   -3.0270   -1.5340 O.2     1  UNL1       -0.4540
     15  C          8.7010   -3.8750   -0.4150 C.3     1  UNL1        0.4680
@<TRIPOS>BOND
     1    10     8    1
     2    10    12    2
     3    14    12    1
     4    14    15    1
     5     8     7    2
     6    12    11    1
     7     5     4    1
     8    15    13    1
     9     4     2    1
    10     7     9    1
    11     7     6    1
    12     1     6    1
    13     1     2    1
    14    11    13    1
    15    11     9    2
    16     2     3    2
