@<TRIPOS>MOLECULE
/home/cewinharhar/GITHUB/reincatalyze/data/processed/docking_pred/2023-May-17-1006_maxeplen10_maxtrainstep1000_seadep16_gamma099_lrac9e-4_lrcr1e-3_sub6/b393d0f0af23d36e99ef7bf88514b4beffd0378d_ligand_6.pdbqt
 15 16 0 0 0
SMALL
GASTEIGER

@<TRIPOS>ATOM
      1  C          4.6550    1.8460    0.6590 C.3     1  UNL1        0.1270
      2  C          4.3880    1.1620    1.9150 C.2     1  UNL1        0.3030
      3  O          5.1430    0.3610    2.4700 O.2     1  UNL1       -0.2520
      4  O          3.1670    1.4360    2.5510 O.3     1  UNL1       -0.4810
      5  H          3.1600    2.2230    3.1810 H       1  UNL1        0.2960
      6  C          6.0670    2.2480    0.4830 C.3     1  UNL1        0.0470
      7  C          6.9410    1.3430   -0.2660 C.2     1  UNL1       -0.0430
      8  C          8.3010    1.5810   -0.3830 C.2     1  UNL1        0.0080
      9  C          6.4280    0.2480   -0.9090 C.2     1  UNL1        0.0540
     10  C          9.1180    0.7500   -1.1170 C.2     1  UNL1        0.0510
     11  C          7.2280   -0.6000   -1.6510 C.2     1  UNL1        0.1660
     12  C          8.5760   -0.3520   -1.7580 C.2     1  UNL1        0.1650
     13  O          6.9350   -1.7440   -2.3720 O.2     1  UNL1       -0.4540
     14  O          9.1090   -1.3640   -2.5570 O.2     1  UNL1       -0.4540
     15  C          8.0640   -2.0550   -3.2020 C.3     1  UNL1        0.4680
@<TRIPOS>BOND
     1    15    14    1
     2    15    13    1
     3    14    12    1
     4    13    11    1
     5    12    11    2
     6    12    10    1
     7    11     9    1
     8    10     8    2
     9     9     7    2
    10     8     7    1
    11     7     6    1
    12     6     1    1
    13     1     2    1
    14     2     3    2
    15     2     4    1
    16     4     5    1
