@<TRIPOS>MOLECULE
/home/cewinharhar/GITHUB/reincatalyze/data/processed/docking_pred/2023-May-17-1006_maxeplen10_maxtrainstep1000_seadep16_gamma099_lrac9e-4_lrcr1e-3_sub6/b3ccd1df948aefc26948fdc9bbc960af2f6fd47d_ligand_6.pdbqt
 15 16 0 0 0
SMALL
GASTEIGER

@<TRIPOS>ATOM
      1  C          8.3070   -0.3250   -2.8310 C.3     1  UNL1        0.1270
      2  C          8.4690   -1.7520   -3.0620 C.2     1  UNL1        0.3030
      3  O          9.5360   -2.3660   -3.0320 O.2     1  UNL1       -0.2520
      4  O          7.3110   -2.4940   -3.3430 O.3     1  UNL1       -0.4810
      5  H          6.4690   -1.9630   -3.5010 H       1  UNL1        0.2960
      6  C          8.7640    0.1240   -1.4990 C.3     1  UNL1        0.0470
      7  C          7.7940    0.0890   -0.4020 C.2     1  UNL1       -0.0430
      8  C          7.7480   -0.9690    0.4920 C.2     1  UNL1        0.0080
      9  C          6.8720    1.0910   -0.2520 C.2     1  UNL1        0.0540
     10  C          6.8130   -1.0200    1.5010 C.2     1  UNL1        0.0510
     11  C          5.9250    1.0610    0.7540 C.2     1  UNL1        0.1660
     12  C          5.8920    0.0060    1.6340 C.2     1  UNL1        0.1650
     13  O          4.9150    1.9450    1.0920 O.2     1  UNL1       -0.4540
     14  O          4.8430    0.2540    2.5210 O.2     1  UNL1       -0.4540
     15  C          4.0320    1.2880    2.0130 C.3     1  UNL1        0.4680
@<TRIPOS>BOND
     1     5     4    1
     2     4     2    1
     3     2     3    2
     4     2     1    1
     5     1     6    1
     6     6     7    1
     7     7     9    2
     8     7     8    1
     9     9    11    1
    10     8    10    2
    11    11    13    1
    12    11    12    2
    13    13    15    1
    14    10    12    1
    15    12    14    1
    16    15    14    1
