@<TRIPOS>MOLECULE
/home/cewinharhar/GITHUB/reincatalyze/data/processed/docking_pred/2023-May-17-1006_maxeplen10_maxtrainstep1000_seadep16_gamma099_lrac9e-4_lrcr1e-3_sub6/b3ccd1df948aefc26948fdc9bbc960af2f6fd47d_ligand_6.pdbqt
 15 16 0 0 0
SMALL
GASTEIGER

@<TRIPOS>ATOM
      1  C          4.6560    1.8610    0.6590 C.3     1  UNL1        0.1270
      2  C          4.3910    1.1750    1.9140 C.2     1  UNL1        0.3030
      3  O          5.1490    0.3780    2.4690 O.2     1  UNL1       -0.2520
      4  O          3.1680    1.4420    2.5490 O.3     1  UNL1       -0.4810
      5  H          3.1940    2.1130    3.3020 H       1  UNL1        0.2960
      6  C          6.0680    2.2620    0.4810 C.3     1  UNL1        0.0470
      7  C          6.9400    1.3560   -0.2700 C.2     1  UNL1       -0.0430
      8  C          8.3010    1.5920   -0.3880 C.2     1  UNL1        0.0080
      9  C          6.4250    0.2630   -0.9150 C.2     1  UNL1        0.0540
     10  C          9.1160    0.7610   -1.1230 C.2     1  UNL1        0.0510
     11  C          7.2240   -0.5850   -1.6580 C.2     1  UNL1        0.1660
     12  C          8.5710   -0.3400   -1.7650 C.2     1  UNL1        0.1650
     13  O          6.9280   -1.7280   -2.3810 O.2     1  UNL1       -0.4540
     14  O          9.1030   -1.3510   -2.5660 O.2     1  UNL1       -0.4540
     15  C          8.0560   -2.0390   -3.2110 C.3     1  UNL1        0.4680
@<TRIPOS>BOND
     1    15    14    1
     2    15    13    1
     3    14    12    1
     4    13    11    1
     5    12    11    2
     6    12    10    1
     7    11     9    1
     8    10     8    2
     9     9     7    2
    10     8     7    1
    11     7     6    1
    12     6     1    1
    13     1     2    1
    14     2     3    2
    15     2     4    1
    16     4     5    1
