@<TRIPOS>MOLECULE
/home/cewinharhar/GITHUB/reincatalyze/data/processed/docking_pred/2023-May-17-1006_maxeplen10_maxtrainstep1000_seadep16_gamma099_lrac9e-4_lrcr1e-3_sub6/b3ccd1df948aefc26948fdc9bbc960af2f6fd47d_ligand_6.pdbqt
 15 16 0 0 0
SMALL
GASTEIGER

@<TRIPOS>ATOM
      1  C          5.6830    2.5310   -0.0860 C.3     1  UNL1        0.1270
      2  C          6.1810    3.5860    0.7830 C.2     1  UNL1        0.3030
      3  O          6.1340    3.5840    2.0140 O.2     1  UNL1       -0.2520
      4  O          6.7670    4.7040    0.1680 O.3     1  UNL1       -0.4810
      5  H          6.2100    5.5440    0.1490 H       1  UNL1        0.2960
      6  C          5.6490    1.1970    0.5500 C.3     1  UNL1        0.0470
      7  C          6.4350    0.1290   -0.0740 C.2     1  UNL1       -0.0430
      8  C          6.5750    0.0420   -1.4500 C.2     1  UNL1        0.0080
      9  C          7.0260   -0.8420    0.6900 C.2     1  UNL1        0.0540
     10  C          7.2830   -0.9820   -2.0390 C.2     1  UNL1        0.0510
     11  C          7.7420   -1.8780    0.1210 C.2     1  UNL1        0.1660
     12  C          7.8730   -1.9520   -1.2450 C.2     1  UNL1        0.1650
     13  O          8.4130   -2.9500    0.6830 O.2     1  UNL1       -0.4540
     14  O          8.6360   -3.0880   -1.5160 O.2     1  UNL1       -0.4540
     15  C          8.7150   -3.8890   -0.3590 C.3     1  UNL1        0.4680
@<TRIPOS>BOND
     1    10     8    1
     2    10    12    2
     3    14    12    1
     4    14    15    1
     5     8     7    2
     6    12    11    1
     7    15    13    1
     8     1     6    1
     9     1     2    1
    10     7     6    1
    11     7     9    1
    12    11    13    1
    13    11     9    2
    14     5     4    1
    15     4     2    1
    16     2     3    2
