MODEL 1
REMARK VINA RESULT:      -7.7      0.000      0.000
REMARK SMILES O=C(O)CCc1ccc2c(c1)OCO2
REMARK SMILES IDX 4 1 2 2 1 3 3 4 5 6 6 7 7 8 11 9 8 10 10 11 9 12 12 13 14 14
REMARK SMILES IDX 13 15
REMARK H PARENT 3 5
REMARK Flexibility Score: inf
ROOT
ATOM      1  C   UNL     1       5.416   2.871   0.121  1.00  0.00     0.127 C 
ENDROOT
BRANCH   1   2
ATOM      2  C   UNL     1       6.241   3.857   0.800  1.00  0.00     0.303 C 
ATOM      3  O   UNL     1       6.878   4.759   0.253  1.00  0.00    -0.252 OA
BRANCH   2   4
ATOM      4  O   UNL     1       6.321   3.776   2.199  1.00  0.00    -0.481 OA
ATOM      5  H   UNL     1       6.860   4.496   2.657  1.00  0.00     0.296 HD
ENDBRANCH   2   4
ENDBRANCH   1   2
BRANCH   1   6
ATOM      6  C   UNL     1       5.352   1.564   0.810  1.00  0.00     0.047 C 
BRANCH   6   7
ATOM      7  C   UNL     1       6.133   0.462   0.244  1.00  0.00    -0.043 A 
ATOM      8  C   UNL     1       6.592  -0.581   1.034  1.00  0.00     0.008 A 
ATOM      9  C   UNL     1       6.466   0.449  -1.084  1.00  0.00     0.054 A 
ATOM     10  C   UNL     1       7.357  -1.599   0.511  1.00  0.00     0.051 A 
ATOM     11  C   UNL     1       7.231  -0.563  -1.632  1.00  0.00     0.166 A 
ATOM     12  C   UNL     1       7.679  -1.590  -0.837  1.00  0.00     0.165 A 
ATOM     13  O   UNL     1       7.682  -0.779  -2.922  1.00  0.00    -0.454 OA
ATOM     14  O   UNL     1       8.415  -2.445  -1.660  1.00  0.00    -0.454 OA
ATOM     15  C   UNL     1       8.690  -1.800  -2.882  1.00  0.00     0.468 C 
ENDBRANCH   6   7
ENDBRANCH   1   6
TORSDOF 4
ENDMDL
MODEL 2
REMARK VINA RESULT:      -7.5      2.118      2.511
REMARK SMILES O=C(O)CCc1ccc2c(c1)OCO2
REMARK SMILES IDX 4 1 2 2 1 3 3 4 5 6 6 7 7 8 11 9 8 10 10 11 9 12 12 13 14 14
REMARK SMILES IDX 13 15
REMARK H PARENT 3 5
REMARK Flexibility Score: inf
ROOT
ATOM      1  C   UNL     1       4.656   1.861   0.659  1.00  0.00     0.127 C 
ENDROOT
BRANCH   1   2
ATOM      2  C   UNL     1       4.391   1.175   1.914  1.00  0.00     0.303 C 
ATOM      3  O   UNL     1       5.149   0.378   2.469  1.00  0.00    -0.252 OA
BRANCH   2   4
ATOM      4  O   UNL     1       3.168   1.442   2.549  1.00  0.00    -0.481 OA
ATOM      5  H   UNL     1       3.194   2.113   3.302  1.00  0.00     0.296 HD
ENDBRANCH   2   4
ENDBRANCH   1   2
BRANCH   1   6
ATOM      6  C   UNL     1       6.068   2.262   0.481  1.00  0.00     0.047 C 
BRANCH   6   7
ATOM      7  C   UNL     1       6.940   1.356  -0.270  1.00  0.00    -0.043 A 
ATOM      8  C   UNL     1       8.301   1.592  -0.388  1.00  0.00     0.008 A 
ATOM      9  C   UNL     1       6.425   0.263  -0.915  1.00  0.00     0.054 A 
ATOM     10  C   UNL     1       9.116   0.761  -1.123  1.00  0.00     0.051 A 
ATOM     11  C   UNL     1       7.224  -0.585  -1.658  1.00  0.00     0.166 A 
ATOM     12  C   UNL     1       8.571  -0.340  -1.765  1.00  0.00     0.165 A 
ATOM     13  O   UNL     1       6.928  -1.728  -2.381  1.00  0.00    -0.454 OA
ATOM     14  O   UNL     1       9.103  -1.351  -2.566  1.00  0.00    -0.454 OA
ATOM     15  C   UNL     1       8.056  -2.039  -3.211  1.00  0.00     0.468 C 
ENDBRANCH   6   7
ENDBRANCH   1   6
TORSDOF 4
ENDMDL
MODEL 3
REMARK VINA RESULT:      -7.5      1.969      2.877
REMARK SMILES O=C(O)CCc1ccc2c(c1)OCO2
REMARK SMILES IDX 4 1 2 2 1 3 3 4 5 6 6 7 7 8 11 9 8 10 10 11 9 12 12 13 14 14
REMARK SMILES IDX 13 15
REMARK H PARENT 3 5
REMARK Flexibility Score: inf
ROOT
ATOM      1  C   UNL     1       6.400   1.303   0.673  1.00  0.00     0.127 C 
ENDROOT
BRANCH   1   2
ATOM      2  C   UNL     1       5.184   1.306   1.471  1.00  0.00     0.303 C 
ATOM      3  O   UNL     1       4.256   2.109   1.361  1.00  0.00    -0.252 OA
BRANCH   2   4
ATOM      4  O   UNL     1       5.054   0.310   2.452  1.00  0.00    -0.481 OA
ATOM      5  H   UNL     1       4.550  -0.520   2.179  1.00  0.00     0.296 HD
ENDBRANCH   2   4
ENDBRANCH   1   2
BRANCH   1   6
ATOM      6  C   UNL     1       6.205   0.840  -0.717  1.00  0.00     0.047 C 
BRANCH   6   7
ATOM      7  C   UNL     1       6.963  -0.335  -1.152  1.00  0.00    -0.043 A 
ATOM      8  C   UNL     1       7.242  -0.562  -2.491  1.00  0.00     0.008 A 
ATOM      9  C   UNL     1       7.386  -1.270  -0.245  1.00  0.00     0.054 A 
ATOM     10  C   UNL     1       7.923  -1.685  -2.905  1.00  0.00     0.051 A 
ATOM     11  C   UNL     1       8.072  -2.404  -0.638  1.00  0.00     0.166 A 
ATOM     12  C   UNL     1       8.343  -2.616  -1.968  1.00  0.00     0.165 A 
ATOM     13  O   UNL     1       8.588  -3.463   0.088  1.00  0.00    -0.454 OA
ATOM     14  O   UNL     1       9.035  -3.825  -2.051  1.00  0.00    -0.454 OA
ATOM     15  C   UNL     1       8.922  -4.516  -0.828  1.00  0.00     0.468 C 
ENDBRANCH   6   7
ENDBRANCH   1   6
TORSDOF 4
ENDMDL
MODEL 4
REMARK VINA RESULT:      -7.5      1.799      5.285
REMARK SMILES O=C(O)CCc1ccc2c(c1)OCO2
REMARK SMILES IDX 4 1 2 2 1 3 3 4 5 6 6 7 7 8 11 9 8 10 10 11 9 12 12 13 14 14
REMARK SMILES IDX 13 15
REMARK H PARENT 3 5
REMARK Flexibility Score: inf
ROOT
ATOM      1  C   UNL     1       8.307  -0.325  -2.831  1.00  0.00     0.127 C 
ENDROOT
BRANCH   1   2
ATOM      2  C   UNL     1       8.469  -1.752  -3.062  1.00  0.00     0.303 C 
ATOM      3  O   UNL     1       9.536  -2.366  -3.032  1.00  0.00    -0.252 OA
BRANCH   2   4
ATOM      4  O   UNL     1       7.311  -2.494  -3.343  1.00  0.00    -0.481 OA
ATOM      5  H   UNL     1       6.469  -1.963  -3.501  1.00  0.00     0.296 HD
ENDBRANCH   2   4
ENDBRANCH   1   2
BRANCH   1   6
ATOM      6  C   UNL     1       8.764   0.124  -1.499  1.00  0.00     0.047 C 
BRANCH   6   7
ATOM      7  C   UNL     1       7.794   0.089  -0.402  1.00  0.00    -0.043 A 
ATOM      8  C   UNL     1       7.748  -0.969   0.492  1.00  0.00     0.008 A 
ATOM      9  C   UNL     1       6.872   1.091  -0.252  1.00  0.00     0.054 A 
ATOM     10  C   UNL     1       6.813  -1.020   1.501  1.00  0.00     0.051 A 
ATOM     11  C   UNL     1       5.925   1.061   0.754  1.00  0.00     0.166 A 
ATOM     12  C   UNL     1       5.892   0.006   1.634  1.00  0.00     0.165 A 
ATOM     13  O   UNL     1       4.915   1.945   1.092  1.00  0.00    -0.454 OA
ATOM     14  O   UNL     1       4.843   0.254   2.521  1.00  0.00    -0.454 OA
ATOM     15  C   UNL     1       4.032   1.288   2.013  1.00  0.00     0.468 C 
ENDBRANCH   6   7
ENDBRANCH   1   6
TORSDOF 4
ENDMDL
MODEL 5
REMARK VINA RESULT:      -7.4      1.055      2.147
REMARK SMILES O=C(O)CCc1ccc2c(c1)OCO2
REMARK SMILES IDX 4 1 2 2 1 3 3 4 5 6 6 7 7 8 11 9 8 10 10 11 9 12 12 13 14 14
REMARK SMILES IDX 13 15
REMARK H PARENT 3 5
REMARK Flexibility Score: inf
ROOT
ATOM      1  C   UNL     1       5.683   2.531  -0.086  1.00  0.00     0.127 C 
ENDROOT
BRANCH   1   2
ATOM      2  C   UNL     1       6.181   3.586   0.783  1.00  0.00     0.303 C 
ATOM      3  O   UNL     1       6.134   3.584   2.014  1.00  0.00    -0.252 OA
BRANCH   2   4
ATOM      4  O   UNL     1       6.767   4.704   0.168  1.00  0.00    -0.481 OA
ATOM      5  H   UNL     1       6.210   5.544   0.149  1.00  0.00     0.296 HD
ENDBRANCH   2   4
ENDBRANCH   1   2
BRANCH   1   6
ATOM      6  C   UNL     1       5.649   1.197   0.550  1.00  0.00     0.047 C 
BRANCH   6   7
ATOM      7  C   UNL     1       6.435   0.129  -0.074  1.00  0.00    -0.043 A 
ATOM      8  C   UNL     1       6.575   0.042  -1.450  1.00  0.00     0.008 A 
ATOM      9  C   UNL     1       7.026  -0.842   0.690  1.00  0.00     0.054 A 
ATOM     10  C   UNL     1       7.283  -0.982  -2.039  1.00  0.00     0.051 A 
ATOM     11  C   UNL     1       7.742  -1.878   0.121  1.00  0.00     0.166 A 
ATOM     12  C   UNL     1       7.873  -1.952  -1.245  1.00  0.00     0.165 A 
ATOM     13  O   UNL     1       8.413  -2.950   0.683  1.00  0.00    -0.454 OA
ATOM     14  O   UNL     1       8.636  -3.088  -1.516  1.00  0.00    -0.454 OA
ATOM     15  C   UNL     1       8.715  -3.889  -0.359  1.00  0.00     0.468 C 
ENDBRANCH   6   7
ENDBRANCH   1   6
TORSDOF 4
ENDMDL
