@<TRIPOS>MOLECULE
/home/cewinharhar/GITHUB/reincatalyze/data/processed/docking_pred/2023-May-17-1006_maxeplen10_maxtrainstep1000_seadep16_gamma099_lrac9e-4_lrcr1e-3_sub6/b3ccd1df948aefc26948fdc9bbc960af2f6fd47d_ligand_6.pdbqt
 15 16 0 0 0
SMALL
GASTEIGER

@<TRIPOS>ATOM
      1  C          6.4000    1.3030    0.6730 C.3     1  UNL1        0.1270
      2  C          5.1840    1.3060    1.4710 C.2     1  UNL1        0.3030
      3  O          4.2560    2.1090    1.3610 O.2     1  UNL1       -0.2520
      4  O          5.0540    0.3100    2.4520 O.3     1  UNL1       -0.4810
      5  H          4.5500   -0.5200    2.1790 H       1  UNL1        0.2960
      6  C          6.2050    0.8400   -0.7170 C.3     1  UNL1        0.0470
      7  C          6.9630   -0.3350   -1.1520 C.2     1  UNL1       -0.0430
      8  C          7.2420   -0.5620   -2.4910 C.2     1  UNL1        0.0080
      9  C          7.3860   -1.2700   -0.2450 C.2     1  UNL1        0.0540
     10  C          7.9230   -1.6850   -2.9050 C.2     1  UNL1        0.0510
     11  C          8.0720   -2.4040   -0.6380 C.2     1  UNL1        0.1660
     12  C          8.3430   -2.6160   -1.9680 C.2     1  UNL1        0.1650
     13  O          8.5880   -3.4630    0.0880 O.2     1  UNL1       -0.4540
     14  O          9.0350   -3.8250   -2.0510 O.2     1  UNL1       -0.4540
     15  C          8.9220   -4.5160   -0.8280 C.3     1  UNL1        0.4680
@<TRIPOS>BOND
     1    10     8    1
     2    10    12    2
     3     8     7    2
     4    14    12    1
     5    14    15    1
     6    12    11    1
     7     7     6    1
     8     7     9    1
     9    15    13    1
    10     6     1    1
    11    11     9    2
    12    11    13    1
    13     1     2    1
    14     3     2    2
    15     2     4    1
    16     5     4    1
