@<TRIPOS>MOLECULE
/home/cewinharhar/GITHUB/reincatalyze/data/processed/docking_pred/2023-May-17-1006_maxeplen10_maxtrainstep1000_seadep16_gamma099_lrac9e-4_lrcr1e-3_sub6/b3ccd1df948aefc26948fdc9bbc960af2f6fd47d_ligand_6.pdbqt
 15 16 0 0 0
SMALL
GASTEIGER

@<TRIPOS>ATOM
      1  C          5.4160    2.8710    0.1210 C.3     1  UNL1        0.1270
      2  C          6.2410    3.8570    0.8000 C.2     1  UNL1        0.3030
      3  O          6.8780    4.7590    0.2530 O.2     1  UNL1       -0.2520
      4  O          6.3210    3.7760    2.1990 O.3     1  UNL1       -0.4810
      5  H          6.8600    4.4960    2.6570 H       1  UNL1        0.2960
      6  C          5.3520    1.5640    0.8100 C.3     1  UNL1        0.0470
      7  C          6.1330    0.4620    0.2440 C.2     1  UNL1       -0.0430
      8  C          6.5920   -0.5810    1.0340 C.2     1  UNL1        0.0080
      9  C          6.4660    0.4490   -1.0840 C.2     1  UNL1        0.0540
     10  C          7.3570   -1.5990    0.5110 C.2     1  UNL1        0.0510
     11  C          7.2310   -0.5630   -1.6320 C.2     1  UNL1        0.1660
     12  C          7.6790   -1.5900   -0.8370 C.2     1  UNL1        0.1650
     13  O          7.6820   -0.7790   -2.9220 O.2     1  UNL1       -0.4540
     14  O          8.4150   -2.4450   -1.6600 O.2     1  UNL1       -0.4540
     15  C          8.6900   -1.8000   -2.8820 C.3     1  UNL1        0.4680
@<TRIPOS>BOND
     1    13    15    1
     2    13    11    1
     3    15    14    1
     4    14    12    1
     5    11     9    1
     6    11    12    2
     7     9     7    2
     8    12    10    1
     9     1     2    1
    10     1     6    1
    11     7     6    1
    12     7     8    1
    13     3     2    2
    14    10     8    2
    15     2     4    1
    16     4     5    1
