@<TRIPOS>MOLECULE
/home/cewinharhar/GITHUB/reincatalyze/data/processed/docking_pred/2023-May-17-1006_maxeplen10_maxtrainstep1000_seadep16_gamma099_lrac9e-4_lrcr1e-3_sub6/b3efa5aa79561967f2a1346927635c3d7bfec8a2_ligand_6.pdbqt
 15 16 0 0 0
SMALL
GASTEIGER

@<TRIPOS>ATOM
      1  C          4.9960    1.7330    0.7480 C.3     1  UNL1        0.1270
      2  C          4.5800    1.1620    2.0190 C.2     1  UNL1        0.3030
      3  O          5.2070    0.3210    2.6670 O.2     1  UNL1       -0.2520
      4  O          3.3610    1.6040    2.5570 O.3     1  UNL1       -0.4810
      5  H          3.4160    2.3590    3.2240 H       1  UNL1        0.2960
      6  C          6.4480    1.6330    0.4910 C.3     1  UNL1        0.0470
      7  C          6.9390    0.4160   -0.1590 C.2     1  UNL1       -0.0430
      8  C          6.7070    0.1680   -1.5030 C.2     1  UNL1        0.0080
      9  C          7.6120   -0.5380    0.5580 C.2     1  UNL1        0.0540
     10  C          7.1360   -0.9930   -2.1070 C.2     1  UNL1        0.0510
     11  C          8.0530   -1.7100   -0.0270 C.2     1  UNL1        0.1660
     12  C          7.8170   -1.9420   -1.3610 C.2     1  UNL1        0.1650
     13  O          8.7410   -2.7930    0.4910 O.2     1  UNL1       -0.4540
     14  O          8.3710   -3.1880   -1.6570 O.2     1  UNL1       -0.4540
     15  C          8.6700   -3.8670   -0.4600 C.3     1  UNL1        0.4680
@<TRIPOS>BOND
     1    10     8    1
     2    10    12    2
     3    14    12    1
     4    14    15    1
     5     8     7    2
     6    12    11    1
     7    15    13    1
     8     7     6    1
     9     7     9    1
    10    11    13    1
    11    11     9    2
    12     6     1    1
    13     1     2    1
    14     2     4    1
    15     2     3    2
    16     4     5    1
