@<TRIPOS>MOLECULE
/home/cewinharhar/GITHUB/reincatalyze/data/processed/docking_pred/2023-May-17-1006_maxeplen10_maxtrainstep1000_seadep16_gamma099_lrac9e-4_lrcr1e-3_sub6/b3efa5aa79561967f2a1346927635c3d7bfec8a2_ligand_6.pdbqt
 15 16 0 0 0
SMALL
GASTEIGER

@<TRIPOS>ATOM
      1  C          5.4450    2.8530   -0.0280 C.3     1  UNL1        0.1270
      2  C          6.2030    3.8050    0.7680 C.2     1  UNL1        0.3030
      3  O          6.8470    4.7580    0.3260 O.2     1  UNL1       -0.2520
      4  O          6.2040    3.6240    2.1600 O.3     1  UNL1       -0.4810
      5  H          6.8070    4.2360    2.6880 H       1  UNL1        0.2960
      6  C          5.2820    1.5300    0.6120 C.3     1  UNL1        0.0470
      7  C          6.0890    0.4230    0.0950 C.2     1  UNL1       -0.0430
      8  C          6.5280   -0.6010    0.9200 C.2     1  UNL1        0.0080
      9  C          6.4690    0.3880   -1.2210 C.2     1  UNL1        0.0540
     10  C          7.3170   -1.6240    0.4420 C.2     1  UNL1        0.0510
     11  C          7.2600   -0.6280   -1.7220 C.2     1  UNL1        0.1660
     12  C          7.6860   -1.6380   -0.8930 C.2     1  UNL1        0.1650
     13  O          7.7560   -0.8650   -2.9920 O.2     1  UNL1       -0.4540
     14  O          8.4550   -2.5020   -1.6730 O.2     1  UNL1       -0.4540
     15  C          8.7690   -1.8780   -2.8970 C.3     1  UNL1        0.4680
@<TRIPOS>BOND
     1    13    15    1
     2    13    11    1
     3    15    14    1
     4    11     9    1
     5    11    12    2
     6    14    12    1
     7     9     7    2
     8    12    10    1
     9     1     6    1
    10     1     2    1
    11     7     6    1
    12     7     8    1
    13     3     2    2
    14    10     8    2
    15     2     4    1
    16     4     5    1
