@<TRIPOS>MOLECULE
/home/cewinharhar/GITHUB/reincatalyze/data/processed/docking_pred/2023-May-17-1006_maxeplen10_maxtrainstep1000_seadep16_gamma099_lrac9e-4_lrcr1e-3_sub6/b3efa5aa79561967f2a1346927635c3d7bfec8a2_ligand_6.pdbqt
 15 16 0 0 0
SMALL
GASTEIGER

@<TRIPOS>ATOM
      1  C          8.1800   -0.9520   -1.9030 C.3     1  UNL1        0.1270
      2  C          8.3770   -2.0630   -2.8200 C.2     1  UNL1        0.3030
      3  O          9.4460   -2.6400   -3.0290 O.2     1  UNL1       -0.2520
      4  O          7.2550   -2.5190   -3.5300 O.3     1  UNL1       -0.4810
      5  H          7.4420   -3.1120   -4.3250 H       1  UNL1        0.2960
      6  C          6.9940   -1.0950   -1.0320 C.3     1  UNL1        0.0470
      7  C          6.6980   -0.0010   -0.1050 C.2     1  UNL1       -0.0430
      8  C          5.9520   -0.2070    1.0450 C.2     1  UNL1        0.0080
      9  C          7.1200    1.2750   -0.3700 C.2     1  UNL1        0.0540
     10  C          5.6430    0.8280    1.9000 C.2     1  UNL1        0.0510
     11  C          6.8220    2.3290    0.4730 C.2     1  UNL1        0.1660
     12  C          6.0830    2.1090    1.6110 C.2     1  UNL1        0.1650
     13  O          7.1380    3.6750    0.4090 O.2     1  UNL1       -0.4540
     14  O          5.9470    3.3440    2.2480 O.2     1  UNL1       -0.4540
     15  C          6.3240    4.3730    1.3630 C.3     1  UNL1        0.4680
@<TRIPOS>BOND
     1     5     4    1
     2     4     2    1
     3     3     2    2
     4     2     1    1
     5     1     6    1
     6     6     7    1
     7     9     7    2
     8     9    11    1
     9     7     8    1
    10    13    11    1
    11    13    15    1
    12    11    12    2
    13     8    10    2
    14    15    14    1
    15    12    10    1
    16    12    14    1
