@<TRIPOS>MOLECULE
/home/cewinharhar/GITHUB/reincatalyze/data/processed/docking_pred/2023-May-17-1006_maxeplen10_maxtrainstep1000_seadep16_gamma099_lrac9e-4_lrcr1e-3_sub6/b3efa5aa79561967f2a1346927635c3d7bfec8a2_ligand_6.pdbqt
 15 16 0 0 0
SMALL
GASTEIGER

@<TRIPOS>ATOM
      1  C          8.8140   -0.6350   -2.4390 C.3     1  UNL1        0.1270
      2  C          8.8060   -1.9700   -3.0170 C.2     1  UNL1        0.3030
      3  O          9.8020   -2.6590   -3.2430 O.2     1  UNL1       -0.2520
      4  O          7.5580   -2.5230   -3.3450 O.3     1  UNL1       -0.4810
      5  H          6.8210   -2.3910   -2.6700 H       1  UNL1        0.2960
      6  C          7.4760   -0.0120   -2.3510 C.3     1  UNL1        0.0470
      7  C          6.8270    0.0160   -1.0380 C.2     1  UNL1       -0.0430
      8  C          6.9450   -1.0410   -0.1490 C.2     1  UNL1        0.0080
      9  C          6.0470    1.0780   -0.6660 C.2     1  UNL1        0.0540
     10  C          6.3050   -1.0320    1.0700 C.2     1  UNL1        0.0510
     11  C          5.3960    1.1090    0.5530 C.2     1  UNL1        0.1660
     12  C          5.5230    0.0550    1.4250 C.2     1  UNL1        0.1650
     13  O          4.5720    2.0590    1.1310 O.2     1  UNL1       -0.4540
     14  O          4.7620    0.3700    2.5520 O.2     1  UNL1       -0.4540
     15  C          3.9180    1.4600    2.2600 C.3     1  UNL1        0.4680
@<TRIPOS>BOND
     1     4     2    1
     2     4     5    1
     3     3     2    2
     4     2     1    1
     5     1     6    1
     6     6     7    1
     7     7     9    2
     8     7     8    1
     9     9    11    1
    10     8    10    2
    11    11    13    1
    12    11    12    2
    13    10    12    1
    14    13    15    1
    15    12    14    1
    16    15    14    1
