MODEL 1
REMARK VINA RESULT:      -8.0      0.000      0.000
REMARK SMILES O=C(O)CCc1ccc2c(c1)OCO2
REMARK SMILES IDX 4 1 2 2 1 3 3 4 5 6 6 7 7 8 11 9 8 10 10 11 9 12 12 13 14 14
REMARK SMILES IDX 13 15
REMARK H PARENT 3 5
REMARK Flexibility Score: inf
ROOT
ATOM      1  C   UNL     1       5.283   2.171   1.352  1.00  0.00     0.127 C 
ENDROOT
BRANCH   1   2
ATOM      2  C   UNL     1       4.566   1.161   2.115  1.00  0.00     0.303 C 
ATOM      3  O   UNL     1       4.961   0.015   2.337  1.00  0.00    -0.252 OA
BRANCH   2   4
ATOM      4  O   UNL     1       3.316   1.520   2.644  1.00  0.00    -0.481 OA
ATOM      5  H   UNL     1       3.331   2.020   3.520  1.00  0.00     0.296 HD
ENDBRANCH   2   4
ENDBRANCH   1   2
BRANCH   1   6
ATOM      6  C   UNL     1       5.312   1.915  -0.104  1.00  0.00     0.047 C 
BRANCH   6   7
ATOM      7  C   UNL     1       6.451   1.165  -0.637  1.00  0.00    -0.043 A 
ATOM      8  C   UNL     1       7.756   1.587  -0.435  1.00  0.00     0.008 A 
ATOM      9  C   UNL     1       6.256   0.037  -1.390  1.00  0.00     0.054 A 
ATOM     10  C   UNL     1       8.826   0.902  -0.967  1.00  0.00     0.051 A 
ATOM     11  C   UNL     1       7.314  -0.667  -1.932  1.00  0.00     0.166 A 
ATOM     12  C   UNL     1       8.602  -0.237  -1.723  1.00  0.00     0.165 A 
ATOM     13  O   UNL     1       7.355  -1.811  -2.710  1.00  0.00    -0.454 OA
ATOM     14  O   UNL     1       9.440  -1.136  -2.385  1.00  0.00    -0.454 OA
ATOM     15  C   UNL     1       8.675  -1.935  -3.259  1.00  0.00     0.468 C 
ENDBRANCH   6   7
ENDBRANCH   1   6
TORSDOF 4
ENDMDL
MODEL 2
REMARK VINA RESULT:      -7.8      1.340      5.622
REMARK SMILES O=C(O)CCc1ccc2c(c1)OCO2
REMARK SMILES IDX 4 1 2 2 1 3 3 4 5 6 6 7 7 8 11 9 8 10 10 11 9 12 12 13 14 14
REMARK SMILES IDX 13 15
REMARK H PARENT 3 5
REMARK Flexibility Score: inf
ROOT
ATOM      1  C   UNL     1       8.814  -0.635  -2.439  1.00  0.00     0.127 C 
ENDROOT
BRANCH   1   2
ATOM      2  C   UNL     1       8.806  -1.970  -3.017  1.00  0.00     0.303 C 
ATOM      3  O   UNL     1       9.802  -2.659  -3.243  1.00  0.00    -0.252 OA
BRANCH   2   4
ATOM      4  O   UNL     1       7.558  -2.523  -3.345  1.00  0.00    -0.481 OA
ATOM      5  H   UNL     1       6.821  -2.391  -2.670  1.00  0.00     0.296 HD
ENDBRANCH   2   4
ENDBRANCH   1   2
BRANCH   1   6
ATOM      6  C   UNL     1       7.476  -0.012  -2.351  1.00  0.00     0.047 C 
BRANCH   6   7
ATOM      7  C   UNL     1       6.827   0.016  -1.038  1.00  0.00    -0.043 A 
ATOM      8  C   UNL     1       6.945  -1.041  -0.149  1.00  0.00     0.008 A 
ATOM      9  C   UNL     1       6.047   1.078  -0.666  1.00  0.00     0.054 A 
ATOM     10  C   UNL     1       6.305  -1.032   1.070  1.00  0.00     0.051 A 
ATOM     11  C   UNL     1       5.396   1.109   0.553  1.00  0.00     0.166 A 
ATOM     12  C   UNL     1       5.523   0.055   1.425  1.00  0.00     0.165 A 
ATOM     13  O   UNL     1       4.572   2.059   1.131  1.00  0.00    -0.454 OA
ATOM     14  O   UNL     1       4.762   0.370   2.552  1.00  0.00    -0.454 OA
ATOM     15  C   UNL     1       3.918   1.460   2.260  1.00  0.00     0.468 C 
ENDBRANCH   6   7
ENDBRANCH   1   6
TORSDOF 4
ENDMDL
MODEL 3
REMARK VINA RESULT:      -7.6      1.772      2.090
REMARK SMILES O=C(O)CCc1ccc2c(c1)OCO2
REMARK SMILES IDX 4 1 2 2 1 3 3 4 5 6 6 7 7 8 11 9 8 10 10 11 9 12 12 13 14 14
REMARK SMILES IDX 13 15
REMARK H PARENT 3 5
REMARK Flexibility Score: inf
ROOT
ATOM      1  C   UNL     1       4.996   1.733   0.748  1.00  0.00     0.127 C 
ENDROOT
BRANCH   1   2
ATOM      2  C   UNL     1       4.580   1.162   2.019  1.00  0.00     0.303 C 
ATOM      3  O   UNL     1       5.207   0.321   2.667  1.00  0.00    -0.252 OA
BRANCH   2   4
ATOM      4  O   UNL     1       3.361   1.604   2.557  1.00  0.00    -0.481 OA
ATOM      5  H   UNL     1       3.416   2.359   3.224  1.00  0.00     0.296 HD
ENDBRANCH   2   4
ENDBRANCH   1   2
BRANCH   1   6
ATOM      6  C   UNL     1       6.448   1.633   0.491  1.00  0.00     0.047 C 
BRANCH   6   7
ATOM      7  C   UNL     1       6.939   0.416  -0.159  1.00  0.00    -0.043 A 
ATOM      8  C   UNL     1       6.707   0.168  -1.503  1.00  0.00     0.008 A 
ATOM      9  C   UNL     1       7.612  -0.538   0.558  1.00  0.00     0.054 A 
ATOM     10  C   UNL     1       7.136  -0.993  -2.107  1.00  0.00     0.051 A 
ATOM     11  C   UNL     1       8.053  -1.710  -0.027  1.00  0.00     0.166 A 
ATOM     12  C   UNL     1       7.817  -1.942  -1.361  1.00  0.00     0.165 A 
ATOM     13  O   UNL     1       8.741  -2.793   0.491  1.00  0.00    -0.454 OA
ATOM     14  O   UNL     1       8.371  -3.188  -1.657  1.00  0.00    -0.454 OA
ATOM     15  C   UNL     1       8.670  -3.867  -0.460  1.00  0.00     0.468 C 
ENDBRANCH   6   7
ENDBRANCH   1   6
TORSDOF 4
ENDMDL
MODEL 4
REMARK VINA RESULT:      -7.4      1.993      5.650
REMARK SMILES O=C(O)CCc1ccc2c(c1)OCO2
REMARK SMILES IDX 4 1 2 2 1 3 3 4 5 6 6 7 7 8 11 9 8 10 10 11 9 12 12 13 14 14
REMARK SMILES IDX 13 15
REMARK H PARENT 3 5
REMARK Flexibility Score: inf
ROOT
ATOM      1  C   UNL     1       8.180  -0.952  -1.903  1.00  0.00     0.127 C 
ENDROOT
BRANCH   1   2
ATOM      2  C   UNL     1       8.377  -2.063  -2.820  1.00  0.00     0.303 C 
ATOM      3  O   UNL     1       9.446  -2.640  -3.029  1.00  0.00    -0.252 OA
BRANCH   2   4
ATOM      4  O   UNL     1       7.255  -2.519  -3.530  1.00  0.00    -0.481 OA
ATOM      5  H   UNL     1       7.442  -3.112  -4.325  1.00  0.00     0.296 HD
ENDBRANCH   2   4
ENDBRANCH   1   2
BRANCH   1   6
ATOM      6  C   UNL     1       6.994  -1.095  -1.032  1.00  0.00     0.047 C 
BRANCH   6   7
ATOM      7  C   UNL     1       6.698  -0.001  -0.105  1.00  0.00    -0.043 A 
ATOM      8  C   UNL     1       5.952  -0.207   1.045  1.00  0.00     0.008 A 
ATOM      9  C   UNL     1       7.120   1.275  -0.370  1.00  0.00     0.054 A 
ATOM     10  C   UNL     1       5.643   0.828   1.900  1.00  0.00     0.051 A 
ATOM     11  C   UNL     1       6.822   2.329   0.473  1.00  0.00     0.166 A 
ATOM     12  C   UNL     1       6.083   2.109   1.611  1.00  0.00     0.165 A 
ATOM     13  O   UNL     1       7.138   3.675   0.409  1.00  0.00    -0.454 OA
ATOM     14  O   UNL     1       5.947   3.344   2.248  1.00  0.00    -0.454 OA
ATOM     15  C   UNL     1       6.324   4.373   1.363  1.00  0.00     0.468 C 
ENDBRANCH   6   7
ENDBRANCH   1   6
TORSDOF 4
ENDMDL
MODEL 5
REMARK VINA RESULT:      -7.4      2.180      2.478
REMARK SMILES O=C(O)CCc1ccc2c(c1)OCO2
REMARK SMILES IDX 4 1 2 2 1 3 3 4 5 6 6 7 7 8 11 9 8 10 10 11 9 12 12 13 14 14
REMARK SMILES IDX 13 15
REMARK H PARENT 3 5
REMARK Flexibility Score: inf
ROOT
ATOM      1  C   UNL     1       5.445   2.853  -0.028  1.00  0.00     0.127 C 
ENDROOT
BRANCH   1   2
ATOM      2  C   UNL     1       6.203   3.805   0.768  1.00  0.00     0.303 C 
ATOM      3  O   UNL     1       6.847   4.758   0.326  1.00  0.00    -0.252 OA
BRANCH   2   4
ATOM      4  O   UNL     1       6.204   3.624   2.160  1.00  0.00    -0.481 OA
ATOM      5  H   UNL     1       6.807   4.236   2.688  1.00  0.00     0.296 HD
ENDBRANCH   2   4
ENDBRANCH   1   2
BRANCH   1   6
ATOM      6  C   UNL     1       5.282   1.530   0.612  1.00  0.00     0.047 C 
BRANCH   6   7
ATOM      7  C   UNL     1       6.089   0.423   0.095  1.00  0.00    -0.043 A 
ATOM      8  C   UNL     1       6.528  -0.601   0.920  1.00  0.00     0.008 A 
ATOM      9  C   UNL     1       6.469   0.388  -1.221  1.00  0.00     0.054 A 
ATOM     10  C   UNL     1       7.317  -1.624   0.442  1.00  0.00     0.051 A 
ATOM     11  C   UNL     1       7.260  -0.628  -1.722  1.00  0.00     0.166 A 
ATOM     12  C   UNL     1       7.686  -1.638  -0.893  1.00  0.00     0.165 A 
ATOM     13  O   UNL     1       7.756  -0.865  -2.992  1.00  0.00    -0.454 OA
ATOM     14  O   UNL     1       8.455  -2.502  -1.673  1.00  0.00    -0.454 OA
ATOM     15  C   UNL     1       8.769  -1.878  -2.897  1.00  0.00     0.468 C 
ENDBRANCH   6   7
ENDBRANCH   1   6
TORSDOF 4
ENDMDL
