@<TRIPOS>MOLECULE
/home/cewinharhar/GITHUB/reincatalyze/data/processed/docking_pred/2023-May-17-1006_maxeplen10_maxtrainstep1000_seadep16_gamma099_lrac9e-4_lrcr1e-3_sub6/b3efa5aa79561967f2a1346927635c3d7bfec8a2_ligand_6.pdbqt
 15 16 0 0 0
SMALL
GASTEIGER

@<TRIPOS>ATOM
      1  C          5.2830    2.1710    1.3520 C.3     1  UNL1        0.1270
      2  C          4.5660    1.1610    2.1150 C.2     1  UNL1        0.3030
      3  O          4.9610    0.0150    2.3370 O.2     1  UNL1       -0.2520
      4  O          3.3160    1.5200    2.6440 O.3     1  UNL1       -0.4810
      5  H          3.3310    2.0200    3.5200 H       1  UNL1        0.2960
      6  C          5.3120    1.9150   -0.1040 C.3     1  UNL1        0.0470
      7  C          6.4510    1.1650   -0.6370 C.2     1  UNL1       -0.0430
      8  C          7.7560    1.5870   -0.4350 C.2     1  UNL1        0.0080
      9  C          6.2560    0.0370   -1.3900 C.2     1  UNL1        0.0540
     10  C          8.8260    0.9020   -0.9670 C.2     1  UNL1        0.0510
     11  C          7.3140   -0.6670   -1.9320 C.2     1  UNL1        0.1660
     12  C          8.6020   -0.2370   -1.7230 C.2     1  UNL1        0.1650
     13  O          7.3550   -1.8110   -2.7100 O.2     1  UNL1       -0.4540
     14  O          9.4400   -1.1360   -2.3850 O.2     1  UNL1       -0.4540
     15  C          8.6750   -1.9350   -3.2590 C.3     1  UNL1        0.4680
@<TRIPOS>BOND
     1    15    13    1
     2    15    14    1
     3    13    11    1
     4    14    12    1
     5    11    12    2
     6    11     9    1
     7    12    10    1
     8     9     7    2
     9    10     8    2
    10     7     8    1
    11     7     6    1
    12     6     1    1
    13     1     2    1
    14     2     3    2
    15     2     4    1
    16     4     5    1
