@<TRIPOS>MOLECULE
/home/cewinharhar/GITHUB/reincatalyze/data/processed/docking_pred/2023-May-17-1006_maxeplen10_maxtrainstep1000_seadep16_gamma099_lrac9e-4_lrcr1e-3_sub6/b58c38953477011b0b30fd8623da0ee842eab33b_ligand_6.pdbqt
 15 16 0 0 0
SMALL
GASTEIGER

@<TRIPOS>ATOM
      1  C          5.4030    2.7720    0.1850 C.3     1  UNL1        0.1270
      2  C          6.1690    3.7500    0.9410 C.2     1  UNL1        0.3030
      3  O          6.2280    3.8190    2.1700 O.2     1  UNL1       -0.2520
      4  O          6.9050    4.6970    0.2120 O.3     1  UNL1       -0.4810
      5  H          7.8420    4.8790    0.5370 H       1  UNL1        0.2960
      6  C          5.3810    1.4250    0.7940 C.3     1  UNL1        0.0470
      7  C          6.2100    0.3880    0.1760 C.2     1  UNL1       -0.0430
      8  C          6.4380    0.3620   -1.1920 C.2     1  UNL1        0.0080
      9  C          6.7560   -0.6150    0.9320 C.2     1  UNL1        0.0540
     10  C          7.1880   -0.6320   -1.7790 C.2     1  UNL1        0.0510
     11  C          7.5120   -1.6230    0.3640 C.2     1  UNL1        0.1660
     12  C          7.7310   -1.6350   -0.9930 C.2     1  UNL1        0.1650
     13  O          8.1500   -2.7170    0.9210 O.2     1  UNL1       -0.4540
     14  O          8.5150   -2.7570   -1.2640 O.2     1  UNL1       -0.4540
     15  C          8.5240   -3.6080   -0.1410 C.3     1  UNL1        0.4680
@<TRIPOS>BOND
     1    10     8    1
     2    10    12    2
     3    14    12    1
     4    14    15    1
     5     8     7    2
     6    12    11    1
     7    15    13    1
     8     7     6    1
     9     7     9    1
    10     1     6    1
    11     1     2    1
    12     4     5    1
    13     4     2    1
    14    11    13    1
    15    11     9    2
    16     2     3    2
