@<TRIPOS>MOLECULE
/home/cewinharhar/GITHUB/reincatalyze/data/processed/docking_pred/2023-May-17-1006_maxeplen10_maxtrainstep1000_seadep16_gamma099_lrac9e-4_lrcr1e-3_sub6/b58c38953477011b0b30fd8623da0ee842eab33b_ligand_6.pdbqt
 15 16 0 0 0
SMALL
GASTEIGER

@<TRIPOS>ATOM
      1  C          5.4120    2.8680    0.1300 C.3     1  UNL1        0.1270
      2  C          6.2370    3.8470    0.8200 C.2     1  UNL1        0.3030
      3  O          6.8810    4.7500    0.2820 O.2     1  UNL1       -0.2520
      4  O          6.3090    3.7580    2.2190 O.3     1  UNL1       -0.4810
      5  H          7.1200    3.2900    2.5940 H       1  UNL1        0.2960
      6  C          5.3330    1.5600    0.8140 C.3     1  UNL1        0.0470
      7  C          6.1180    0.4560    0.2570 C.2     1  UNL1       -0.0430
      8  C          6.5700   -0.5850    1.0530 C.2     1  UNL1        0.0080
      9  C          6.4620    0.4410   -1.0680 C.2     1  UNL1        0.0540
     10  C          7.3380   -1.6050    0.5370 C.2     1  UNL1        0.0510
     11  C          7.2320   -0.5720   -1.6080 C.2     1  UNL1        0.1660
     12  C          7.6720   -1.5990   -0.8070 C.2     1  UNL1        0.1650
     13  O          7.6930   -0.7910   -2.8940 O.2     1  UNL1       -0.4540
     14  O          8.4140   -2.4550   -1.6220 O.2     1  UNL1       -0.4540
     15  C          8.7000   -1.8130   -2.8430 C.3     1  UNL1        0.4680
@<TRIPOS>BOND
     1    13    15    1
     2    13    11    1
     3    15    14    1
     4    14    12    1
     5    11     9    1
     6    11    12    2
     7     9     7    2
     8    12    10    1
     9     1     6    1
    10     1     2    1
    11     7     6    1
    12     7     8    1
    13     3     2    2
    14    10     8    2
    15     2     4    1
    16     4     5    1
