MODEL 1
REMARK VINA RESULT:      -7.6      0.000      0.000
REMARK SMILES O=C(O)CCc1ccc2c(c1)OCO2
REMARK SMILES IDX 4 1 2 2 1 3 3 4 5 6 6 7 7 8 11 9 8 10 10 11 9 12 12 13 14 14
REMARK SMILES IDX 13 15
REMARK H PARENT 3 5
REMARK Flexibility Score: inf
ROOT
ATOM      1  C   UNL     1       5.412   2.868   0.130  1.00  0.00     0.127 C 
ENDROOT
BRANCH   1   2
ATOM      2  C   UNL     1       6.237   3.847   0.820  1.00  0.00     0.303 C 
ATOM      3  O   UNL     1       6.881   4.750   0.282  1.00  0.00    -0.252 OA
BRANCH   2   4
ATOM      4  O   UNL     1       6.309   3.758   2.219  1.00  0.00    -0.481 OA
ATOM      5  H   UNL     1       7.120   3.290   2.594  1.00  0.00     0.296 HD
ENDBRANCH   2   4
ENDBRANCH   1   2
BRANCH   1   6
ATOM      6  C   UNL     1       5.333   1.560   0.814  1.00  0.00     0.047 C 
BRANCH   6   7
ATOM      7  C   UNL     1       6.118   0.456   0.257  1.00  0.00    -0.043 A 
ATOM      8  C   UNL     1       6.570  -0.585   1.053  1.00  0.00     0.008 A 
ATOM      9  C   UNL     1       6.462   0.441  -1.068  1.00  0.00     0.054 A 
ATOM     10  C   UNL     1       7.338  -1.605   0.537  1.00  0.00     0.051 A 
ATOM     11  C   UNL     1       7.232  -0.572  -1.608  1.00  0.00     0.166 A 
ATOM     12  C   UNL     1       7.672  -1.599  -0.807  1.00  0.00     0.165 A 
ATOM     13  O   UNL     1       7.693  -0.791  -2.894  1.00  0.00    -0.454 OA
ATOM     14  O   UNL     1       8.414  -2.455  -1.622  1.00  0.00    -0.454 OA
ATOM     15  C   UNL     1       8.700  -1.813  -2.843  1.00  0.00     0.468 C 
ENDBRANCH   6   7
ENDBRANCH   1   6
TORSDOF 4
ENDMDL
MODEL 2
REMARK VINA RESULT:      -7.6      2.131      2.518
REMARK SMILES O=C(O)CCc1ccc2c(c1)OCO2
REMARK SMILES IDX 4 1 2 2 1 3 3 4 5 6 6 7 7 8 11 9 8 10 10 11 9 12 12 13 14 14
REMARK SMILES IDX 13 15
REMARK H PARENT 3 5
REMARK Flexibility Score: inf
ROOT
ATOM      1  C   UNL     1       4.721   1.859   0.688  1.00  0.00     0.127 C 
ENDROOT
BRANCH   1   2
ATOM      2  C   UNL     1       4.420   1.147   1.920  1.00  0.00     0.303 C 
ATOM      3  O   UNL     1       5.152   0.321   2.468  1.00  0.00    -0.252 OA
BRANCH   2   4
ATOM      4  O   UNL     1       3.191   1.423   2.540  1.00  0.00    -0.481 OA
ATOM      5  H   UNL     1       2.773   2.315   2.323  1.00  0.00     0.296 HD
ENDBRANCH   2   4
ENDBRANCH   1   2
BRANCH   1   6
ATOM      6  C   UNL     1       6.146   2.221   0.536  1.00  0.00     0.047 C 
BRANCH   6   7
ATOM      7  C   UNL     1       6.996   1.315  -0.239  1.00  0.00    -0.043 A 
ATOM      8  C   UNL     1       8.357   1.540  -0.379  1.00  0.00     0.008 A 
ATOM      9  C   UNL     1       6.460   0.232  -0.884  1.00  0.00     0.054 A 
ATOM     10  C   UNL     1       9.151   0.709  -1.138  1.00  0.00     0.051 A 
ATOM     11  C   UNL     1       7.238  -0.616  -1.650  1.00  0.00     0.166 A 
ATOM     12  C   UNL     1       8.585  -0.381  -1.779  1.00  0.00     0.165 A 
ATOM     13  O   UNL     1       6.918  -1.749  -2.377  1.00  0.00    -0.454 OA
ATOM     14  O   UNL     1       9.093  -1.389  -2.600  1.00  0.00    -0.454 OA
ATOM     15  C   UNL     1       8.029  -2.063  -3.232  1.00  0.00     0.468 C 
ENDBRANCH   6   7
ENDBRANCH   1   6
TORSDOF 4
ENDMDL
MODEL 3
REMARK VINA RESULT:      -7.5      1.957      2.870
REMARK SMILES O=C(O)CCc1ccc2c(c1)OCO2
REMARK SMILES IDX 4 1 2 2 1 3 3 4 5 6 6 7 7 8 11 9 8 10 10 11 9 12 12 13 14 14
REMARK SMILES IDX 13 15
REMARK H PARENT 3 5
REMARK Flexibility Score: inf
ROOT
ATOM      1  C   UNL     1       6.412   1.330   0.655  1.00  0.00     0.127 C 
ENDROOT
BRANCH   1   2
ATOM      2  C   UNL     1       5.182   1.341   1.432  1.00  0.00     0.303 C 
ATOM      3  O   UNL     1       4.253   2.138   1.293  1.00  0.00    -0.252 OA
BRANCH   2   4
ATOM      4  O   UNL     1       5.040   0.361   2.426  1.00  0.00    -0.481 OA
ATOM      5  H   UNL     1       5.895  -0.028   2.794  1.00  0.00     0.296 HD
ENDBRANCH   2   4
ENDBRANCH   1   2
BRANCH   1   6
ATOM      6  C   UNL     1       6.239   0.856  -0.735  1.00  0.00     0.047 C 
BRANCH   6   7
ATOM      7  C   UNL     1       6.994  -0.331  -1.144  1.00  0.00    -0.043 A 
ATOM      8  C   UNL     1       7.317  -0.562  -2.472  1.00  0.00     0.008 A 
ATOM      9  C   UNL     1       7.372  -1.272  -0.224  1.00  0.00     0.054 A 
ATOM     10  C   UNL     1       7.995  -1.695  -2.863  1.00  0.00     0.051 A 
ATOM     11  C   UNL     1       8.054  -2.416  -0.592  1.00  0.00     0.166 A 
ATOM     12  C   UNL     1       8.368  -2.632  -1.913  1.00  0.00     0.165 A 
ATOM     13  O   UNL     1       8.528  -3.483   0.151  1.00  0.00    -0.454 OA
ATOM     14  O   UNL     1       9.045  -3.851  -1.972  1.00  0.00    -0.454 OA
ATOM     15  C   UNL     1       8.879  -4.540  -0.754  1.00  0.00     0.468 C 
ENDBRANCH   6   7
ENDBRANCH   1   6
TORSDOF 4
ENDMDL
MODEL 4
REMARK VINA RESULT:      -7.5      0.939      2.106
REMARK SMILES O=C(O)CCc1ccc2c(c1)OCO2
REMARK SMILES IDX 4 1 2 2 1 3 3 4 5 6 6 7 7 8 11 9 8 10 10 11 9 12 12 13 14 14
REMARK SMILES IDX 13 15
REMARK H PARENT 3 5
REMARK Flexibility Score: inf
ROOT
ATOM      1  C   UNL     1       5.403   2.772   0.185  1.00  0.00     0.127 C 
ENDROOT
BRANCH   1   2
ATOM      2  C   UNL     1       6.169   3.750   0.941  1.00  0.00     0.303 C 
ATOM      3  O   UNL     1       6.228   3.819   2.170  1.00  0.00    -0.252 OA
BRANCH   2   4
ATOM      4  O   UNL     1       6.905   4.697   0.212  1.00  0.00    -0.481 OA
ATOM      5  H   UNL     1       7.842   4.879   0.537  1.00  0.00     0.296 HD
ENDBRANCH   2   4
ENDBRANCH   1   2
BRANCH   1   6
ATOM      6  C   UNL     1       5.381   1.425   0.794  1.00  0.00     0.047 C 
BRANCH   6   7
ATOM      7  C   UNL     1       6.210   0.388   0.176  1.00  0.00    -0.043 A 
ATOM      8  C   UNL     1       6.438   0.362  -1.192  1.00  0.00     0.008 A 
ATOM      9  C   UNL     1       6.756  -0.615   0.932  1.00  0.00     0.054 A 
ATOM     10  C   UNL     1       7.188  -0.632  -1.779  1.00  0.00     0.051 A 
ATOM     11  C   UNL     1       7.512  -1.623   0.364  1.00  0.00     0.166 A 
ATOM     12  C   UNL     1       7.731  -1.635  -0.993  1.00  0.00     0.165 A 
ATOM     13  O   UNL     1       8.150  -2.717   0.921  1.00  0.00    -0.454 OA
ATOM     14  O   UNL     1       8.515  -2.757  -1.264  1.00  0.00    -0.454 OA
ATOM     15  C   UNL     1       8.524  -3.608  -0.141  1.00  0.00     0.468 C 
ENDBRANCH   6   7
ENDBRANCH   1   6
TORSDOF 4
ENDMDL
MODEL 5
REMARK VINA RESULT:      -7.4      1.784      5.282
REMARK SMILES O=C(O)CCc1ccc2c(c1)OCO2
REMARK SMILES IDX 4 1 2 2 1 3 3 4 5 6 6 7 7 8 11 9 8 10 10 11 9 12 12 13 14 14
REMARK SMILES IDX 13 15
REMARK H PARENT 3 5
REMARK Flexibility Score: inf
ROOT
ATOM      1  C   UNL     1       8.317  -0.323  -2.851  1.00  0.00     0.127 C 
ENDROOT
BRANCH   1   2
ATOM      2  C   UNL     1       8.476  -1.752  -3.071  1.00  0.00     0.303 C 
ATOM      3  O   UNL     1       9.542  -2.369  -3.038  1.00  0.00    -0.252 OA
BRANCH   2   4
ATOM      4  O   UNL     1       7.316  -2.495  -3.344  1.00  0.00    -0.481 OA
ATOM      5  H   UNL     1       6.443  -2.077  -3.061  1.00  0.00     0.296 HD
ENDBRANCH   2   4
ENDBRANCH   1   2
BRANCH   1   6
ATOM      6  C   UNL     1       8.766   0.132  -1.518  1.00  0.00     0.047 C 
BRANCH   6   7
ATOM      7  C   UNL     1       7.792   0.093  -0.425  1.00  0.00    -0.043 A 
ATOM      8  C   UNL     1       7.730  -0.978   0.453  1.00  0.00     0.008 A 
ATOM      9  C   UNL     1       6.882   1.104  -0.262  1.00  0.00     0.054 A 
ATOM     10  C   UNL     1       6.791  -1.032   1.459  1.00  0.00     0.051 A 
ATOM     11  C   UNL     1       5.931   1.071   0.740  1.00  0.00     0.166 A 
ATOM     12  C   UNL     1       5.882   0.004   1.604  1.00  0.00     0.165 A 
ATOM     13  O   UNL     1       4.931   1.962   1.088  1.00  0.00    -0.454 OA
ATOM     14  O   UNL     1       4.834   0.251   2.491  1.00  0.00    -0.454 OA
ATOM     15  C   UNL     1       4.037   1.303   1.997  1.00  0.00     0.468 C 
ENDBRANCH   6   7
ENDBRANCH   1   6
TORSDOF 4
ENDMDL
