@<TRIPOS>MOLECULE
/home/cewinharhar/GITHUB/reincatalyze/data/processed/docking_pred/2023-May-17-1006_maxeplen10_maxtrainstep1000_seadep16_gamma099_lrac9e-4_lrcr1e-3_sub6/b58c38953477011b0b30fd8623da0ee842eab33b_ligand_6.pdbqt
 15 16 0 0 0
SMALL
GASTEIGER

@<TRIPOS>ATOM
      1  C          6.4120    1.3300    0.6550 C.3     1  UNL1        0.1270
      2  C          5.1820    1.3410    1.4320 C.2     1  UNL1        0.3030
      3  O          4.2530    2.1380    1.2930 O.2     1  UNL1       -0.2520
      4  O          5.0400    0.3610    2.4260 O.3     1  UNL1       -0.4810
      5  H          5.8950   -0.0280    2.7940 H       1  UNL1        0.2960
      6  C          6.2390    0.8560   -0.7350 C.3     1  UNL1        0.0470
      7  C          6.9940   -0.3310   -1.1440 C.2     1  UNL1       -0.0430
      8  C          7.3170   -0.5620   -2.4720 C.2     1  UNL1        0.0080
      9  C          7.3720   -1.2720   -0.2240 C.2     1  UNL1        0.0540
     10  C          7.9950   -1.6950   -2.8630 C.2     1  UNL1        0.0510
     11  C          8.0540   -2.4160   -0.5920 C.2     1  UNL1        0.1660
     12  C          8.3680   -2.6320   -1.9130 C.2     1  UNL1        0.1650
     13  O          8.5280   -3.4830    0.1510 O.2     1  UNL1       -0.4540
     14  O          9.0450   -3.8510   -1.9720 O.2     1  UNL1       -0.4540
     15  C          8.8790   -4.5400   -0.7540 C.3     1  UNL1        0.4680
@<TRIPOS>BOND
     1    10     8    1
     2    10    12    2
     3     8     7    2
     4    14    12    1
     5    14    15    1
     6    12    11    1
     7     7     6    1
     8     7     9    1
     9    15    13    1
    10     6     1    1
    11    11     9    2
    12    11    13    1
    13     1     2    1
    14     3     2    2
    15     2     4    1
    16     4     5    1
