@<TRIPOS>MOLECULE
/home/cewinharhar/GITHUB/reincatalyze/data/processed/docking_pred/2023-May-17-1006_maxeplen10_maxtrainstep1000_seadep16_gamma099_lrac9e-4_lrcr1e-3_sub6/b58c38953477011b0b30fd8623da0ee842eab33b_ligand_6.pdbqt
 15 16 0 0 0
SMALL
GASTEIGER

@<TRIPOS>ATOM
      1  C          8.3170   -0.3230   -2.8510 C.3     1  UNL1        0.1270
      2  C          8.4760   -1.7520   -3.0710 C.2     1  UNL1        0.3030
      3  O          9.5420   -2.3690   -3.0380 O.2     1  UNL1       -0.2520
      4  O          7.3160   -2.4950   -3.3440 O.3     1  UNL1       -0.4810
      5  H          6.4430   -2.0770   -3.0610 H       1  UNL1        0.2960
      6  C          8.7660    0.1320   -1.5180 C.3     1  UNL1        0.0470
      7  C          7.7920    0.0930   -0.4250 C.2     1  UNL1       -0.0430
      8  C          7.7300   -0.9780    0.4530 C.2     1  UNL1        0.0080
      9  C          6.8820    1.1040   -0.2620 C.2     1  UNL1        0.0540
     10  C          6.7910   -1.0320    1.4590 C.2     1  UNL1        0.0510
     11  C          5.9310    1.0710    0.7400 C.2     1  UNL1        0.1660
     12  C          5.8820    0.0040    1.6040 C.2     1  UNL1        0.1650
     13  O          4.9310    1.9620    1.0880 O.2     1  UNL1       -0.4540
     14  O          4.8340    0.2510    2.4910 O.2     1  UNL1       -0.4540
     15  C          4.0370    1.3030    1.9970 C.3     1  UNL1        0.4680
@<TRIPOS>BOND
     1     4     2    1
     2     4     5    1
     3     2     3    2
     4     2     1    1
     5     1     6    1
     6     6     7    1
     7     7     9    2
     8     7     8    1
     9     9    11    1
    10     8    10    2
    11    11    13    1
    12    11    12    2
    13    13    15    1
    14    10    12    1
    15    12    14    1
    16    15    14    1
