@<TRIPOS>MOLECULE
/home/cewinharhar/GITHUB/reincatalyze/data/processed/docking_pred/2023-May-17-1006_maxeplen10_maxtrainstep1000_seadep16_gamma099_lrac9e-4_lrcr1e-3_sub6/b58c38953477011b0b30fd8623da0ee842eab33b_ligand_6.pdbqt
 15 16 0 0 0
SMALL
GASTEIGER

@<TRIPOS>ATOM
      1  C          4.7210    1.8590    0.6880 C.3     1  UNL1        0.1270
      2  C          4.4200    1.1470    1.9200 C.2     1  UNL1        0.3030
      3  O          5.1520    0.3210    2.4680 O.2     1  UNL1       -0.2520
      4  O          3.1910    1.4230    2.5400 O.3     1  UNL1       -0.4810
      5  H          2.7730    2.3150    2.3230 H       1  UNL1        0.2960
      6  C          6.1460    2.2210    0.5360 C.3     1  UNL1        0.0470
      7  C          6.9960    1.3150   -0.2390 C.2     1  UNL1       -0.0430
      8  C          8.3570    1.5400   -0.3790 C.2     1  UNL1        0.0080
      9  C          6.4600    0.2320   -0.8840 C.2     1  UNL1        0.0540
     10  C          9.1510    0.7090   -1.1380 C.2     1  UNL1        0.0510
     11  C          7.2380   -0.6160   -1.6500 C.2     1  UNL1        0.1660
     12  C          8.5850   -0.3810   -1.7790 C.2     1  UNL1        0.1650
     13  O          6.9180   -1.7490   -2.3770 O.2     1  UNL1       -0.4540
     14  O          9.0930   -1.3890   -2.6000 O.2     1  UNL1       -0.4540
     15  C          8.0290   -2.0630   -3.2320 C.3     1  UNL1        0.4680
@<TRIPOS>BOND
     1    15    14    1
     2    15    13    1
     3    14    12    1
     4    13    11    1
     5    12    11    2
     6    12    10    1
     7    11     9    1
     8    10     8    2
     9     9     7    2
    10     8     7    1
    11     7     6    1
    12     6     1    1
    13     1     2    1
    14     2     3    2
    15     2     4    1
    16     5     4    1
