@<TRIPOS>MOLECULE
/home/cewinharhar/GITHUB/reincatalyze/data/processed/docking_pred/2023-May-17-1006_maxeplen10_maxtrainstep1000_seadep16_gamma099_lrac9e-4_lrcr1e-3_sub6/b590df4aad401e291154b1741be08749940afe84_ligand_6.pdbqt
 15 16 0 0 0
SMALL
GASTEIGER

@<TRIPOS>ATOM
      1  C          6.3780    1.3090    0.6670 C.3     1  UNL1        0.1270
      2  C          5.1750    1.2820    1.4850 C.2     1  UNL1        0.3030
      3  O          4.2270    2.0640    1.3920 O.2     1  UNL1       -0.2520
      4  O          5.0860    0.2820    2.4660 O.3     1  UNL1       -0.4810
      5  H          4.1750   -0.1290    2.6000 H       1  UNL1        0.2960
      6  C          6.1800    0.8000   -0.7070 C.3     1  UNL1        0.0470
      7  C          6.9530   -0.3760   -1.1120 C.2     1  UNL1       -0.0430
      8  C          7.2840   -0.6040   -2.4390 C.2     1  UNL1        0.0080
      9  C          7.3400   -1.3110   -0.1890 C.2     1  UNL1        0.0540
     10  C          7.9790   -1.7280   -2.8260 C.2     1  UNL1        0.0510
     11  C          8.0390   -2.4460   -0.5540 C.2     1  UNL1        0.1660
     12  C          8.3610   -2.6590   -1.8730 C.2     1  UNL1        0.1650
     13  O          8.5240   -3.5060    0.1920 O.2     1  UNL1       -0.4540
     14  O          9.0550   -3.8690   -1.9280 O.2     1  UNL1       -0.4540
     15  C          8.8940   -4.5590   -0.7110 C.3     1  UNL1        0.4680
@<TRIPOS>BOND
     1    10     8    1
     2    10    12    2
     3     8     7    2
     4    14    12    1
     5    14    15    1
     6    12    11    1
     7     7     6    1
     8     7     9    1
     9    15    13    1
    10     6     1    1
    11    11     9    2
    12    11    13    1
    13     1     2    1
    14     3     2    2
    15     2     4    1
    16     4     5    1
