@<TRIPOS>MOLECULE
/home/cewinharhar/GITHUB/reincatalyze/data/processed/docking_pred/2023-May-17-1006_maxeplen10_maxtrainstep1000_seadep16_gamma099_lrac9e-4_lrcr1e-3_sub6/b590df4aad401e291154b1741be08749940afe84_ligand_6.pdbqt
 15 16 0 0 0
SMALL
GASTEIGER

@<TRIPOS>ATOM
      1  C          8.3250   -0.1960   -2.8330 C.3     1  UNL1        0.1270
      2  C          8.5320   -1.6250   -3.0120 C.2     1  UNL1        0.3030
      3  O          9.6150   -2.2080   -2.9380 O.2     1  UNL1       -0.2520
      4  O          7.4010   -2.4090   -3.2920 O.3     1  UNL1       -0.4810
      5  H          6.8420   -2.6830   -2.4990 H       1  UNL1        0.2960
      6  C          8.7420    0.3090   -1.5080 C.3     1  UNL1        0.0470
      7  C          7.7710    0.2240   -0.4150 C.2     1  UNL1       -0.0430
      8  C          7.7350   -0.8680    0.4390 C.2     1  UNL1        0.0080
      9  C          6.8400    1.2100   -0.2270 C.2     1  UNL1        0.0540
     10  C          6.8000   -0.9670    1.4440 C.2     1  UNL1        0.0510
     11  C          5.8920    1.1330    0.7760 C.2     1  UNL1        0.1660
     12  C          5.8680    0.0450    1.6150 C.2     1  UNL1        0.1650
     13  O          4.8730    1.9930    1.1460 O.2     1  UNL1       -0.4540
     14  O          4.8170    0.2480    2.5100 O.2     1  UNL1       -0.4540
     15  C          3.9960    1.2930    2.0410 C.3     1  UNL1        0.4680
@<TRIPOS>BOND
     1     4     2    1
     2     4     5    1
     3     2     3    2
     4     2     1    1
     5     1     6    1
     6     6     7    1
     7     7     9    2
     8     7     8    1
     9     9    11    1
    10     8    10    2
    11    11    13    1
    12    11    12    2
    13    13    15    1
    14    10    12    1
    15    12    14    1
    16    15    14    1
