MODEL 1
REMARK VINA RESULT:      -7.6      0.000      0.000
REMARK SMILES O=C(O)CCc1ccc2c(c1)OCO2
REMARK SMILES IDX 4 1 2 2 1 3 3 4 5 6 6 7 7 8 11 9 8 10 10 11 9 12 12 13 14 14
REMARK SMILES IDX 13 15
REMARK H PARENT 3 5
REMARK Flexibility Score: inf
ROOT
ATOM      1  C   UNL     1       5.416   2.864   0.131  1.00  0.00     0.127 C 
ENDROOT
BRANCH   1   2
ATOM      2  C   UNL     1       6.251   3.849   0.799  1.00  0.00     0.303 C 
ATOM      3  O   UNL     1       6.907   4.731   0.241  1.00  0.00    -0.252 OA
BRANCH   2   4
ATOM      4  O   UNL     1       6.316   3.794   2.200  1.00  0.00    -0.481 OA
ATOM      5  H   UNL     1       5.559   4.235   2.699  1.00  0.00     0.296 HD
ENDBRANCH   2   4
ENDBRANCH   1   2
BRANCH   1   6
ATOM      6  C   UNL     1       5.362   1.557   0.820  1.00  0.00     0.047 C 
BRANCH   6   7
ATOM      7  C   UNL     1       6.135   0.455   0.244  1.00  0.00    -0.043 A 
ATOM      8  C   UNL     1       6.581  -0.603   1.022  1.00  0.00     0.008 A 
ATOM      9  C   UNL     1       6.476   0.457  -1.083  1.00  0.00     0.054 A 
ATOM     10  C   UNL     1       7.339  -1.621   0.489  1.00  0.00     0.051 A 
ATOM     11  C   UNL     1       7.236  -0.555  -1.640  1.00  0.00     0.166 A 
ATOM     12  C   UNL     1       7.670  -1.597  -0.856  1.00  0.00     0.165 A 
ATOM     13  O   UNL     1       7.691  -0.758  -2.931  1.00  0.00    -0.454 OA
ATOM     14  O   UNL     1       8.402  -2.447  -1.686  1.00  0.00    -0.454 OA
ATOM     15  C   UNL     1       8.690  -1.789  -2.898  1.00  0.00     0.468 C 
ENDBRANCH   6   7
ENDBRANCH   1   6
TORSDOF 4
ENDMDL
MODEL 2
REMARK VINA RESULT:      -7.6      2.132      2.524
REMARK SMILES O=C(O)CCc1ccc2c(c1)OCO2
REMARK SMILES IDX 4 1 2 2 1 3 3 4 5 6 6 7 7 8 11 9 8 10 10 11 9 12 12 13 14 14
REMARK SMILES IDX 13 15
REMARK H PARENT 3 5
REMARK Flexibility Score: inf
ROOT
ATOM      1  C   UNL     1       4.688   1.852   0.679  1.00  0.00     0.127 C 
ENDROOT
BRANCH   1   2
ATOM      2  C   UNL     1       4.389   1.156   1.921  1.00  0.00     0.303 C 
ATOM      3  O   UNL     1       5.118   0.330   2.474  1.00  0.00    -0.252 OA
BRANCH   2   4
ATOM      4  O   UNL     1       3.165   1.447   2.544  1.00  0.00    -0.481 OA
ATOM      5  H   UNL     1       3.121   2.316   3.053  1.00  0.00     0.296 HD
ENDBRANCH   2   4
ENDBRANCH   1   2
BRANCH   1   6
ATOM      6  C   UNL     1       6.111   2.224   0.528  1.00  0.00     0.047 C 
BRANCH   6   7
ATOM      7  C   UNL     1       6.968   1.324  -0.246  1.00  0.00    -0.043 A 
ATOM      8  C   UNL     1       8.326   1.564  -0.393  1.00  0.00     0.008 A 
ATOM      9  C   UNL     1       6.442   0.232  -0.884  1.00  0.00     0.054 A 
ATOM     10  C   UNL     1       9.126   0.738  -1.151  1.00  0.00     0.051 A 
ATOM     11  C   UNL     1       7.226  -0.611  -1.648  1.00  0.00     0.166 A 
ATOM     12  C   UNL     1       8.570  -0.361  -1.784  1.00  0.00     0.165 A 
ATOM     13  O   UNL     1       6.916  -1.751  -2.369  1.00  0.00    -0.454 OA
ATOM     14  O   UNL     1       9.086  -1.368  -2.602  1.00  0.00    -0.454 OA
ATOM     15  C   UNL     1       8.027  -2.056  -3.226  1.00  0.00     0.468 C 
ENDBRANCH   6   7
ENDBRANCH   1   6
TORSDOF 4
ENDMDL
MODEL 3
REMARK VINA RESULT:      -7.5      1.988      2.900
REMARK SMILES O=C(O)CCc1ccc2c(c1)OCO2
REMARK SMILES IDX 4 1 2 2 1 3 3 4 5 6 6 7 7 8 11 9 8 10 10 11 9 12 12 13 14 14
REMARK SMILES IDX 13 15
REMARK H PARENT 3 5
REMARK Flexibility Score: inf
ROOT
ATOM      1  C   UNL     1       6.378   1.309   0.667  1.00  0.00     0.127 C 
ENDROOT
BRANCH   1   2
ATOM      2  C   UNL     1       5.175   1.282   1.485  1.00  0.00     0.303 C 
ATOM      3  O   UNL     1       4.227   2.064   1.392  1.00  0.00    -0.252 OA
BRANCH   2   4
ATOM      4  O   UNL     1       5.086   0.282   2.466  1.00  0.00    -0.481 OA
ATOM      5  H   UNL     1       4.175  -0.129   2.600  1.00  0.00     0.296 HD
ENDBRANCH   2   4
ENDBRANCH   1   2
BRANCH   1   6
ATOM      6  C   UNL     1       6.180   0.800  -0.707  1.00  0.00     0.047 C 
BRANCH   6   7
ATOM      7  C   UNL     1       6.953  -0.376  -1.112  1.00  0.00    -0.043 A 
ATOM      8  C   UNL     1       7.284  -0.604  -2.439  1.00  0.00     0.008 A 
ATOM      9  C   UNL     1       7.340  -1.311  -0.189  1.00  0.00     0.054 A 
ATOM     10  C   UNL     1       7.979  -1.728  -2.826  1.00  0.00     0.051 A 
ATOM     11  C   UNL     1       8.039  -2.446  -0.554  1.00  0.00     0.166 A 
ATOM     12  C   UNL     1       8.361  -2.659  -1.873  1.00  0.00     0.165 A 
ATOM     13  O   UNL     1       8.524  -3.506   0.192  1.00  0.00    -0.454 OA
ATOM     14  O   UNL     1       9.055  -3.869  -1.928  1.00  0.00    -0.454 OA
ATOM     15  C   UNL     1       8.894  -4.559  -0.711  1.00  0.00     0.468 C 
ENDBRANCH   6   7
ENDBRANCH   1   6
TORSDOF 4
ENDMDL
MODEL 4
REMARK VINA RESULT:      -7.4      1.783      5.254
REMARK SMILES O=C(O)CCc1ccc2c(c1)OCO2
REMARK SMILES IDX 4 1 2 2 1 3 3 4 5 6 6 7 7 8 11 9 8 10 10 11 9 12 12 13 14 14
REMARK SMILES IDX 13 15
REMARK H PARENT 3 5
REMARK Flexibility Score: inf
ROOT
ATOM      1  C   UNL     1       8.325  -0.196  -2.833  1.00  0.00     0.127 C 
ENDROOT
BRANCH   1   2
ATOM      2  C   UNL     1       8.532  -1.625  -3.012  1.00  0.00     0.303 C 
ATOM      3  O   UNL     1       9.615  -2.208  -2.938  1.00  0.00    -0.252 OA
BRANCH   2   4
ATOM      4  O   UNL     1       7.401  -2.409  -3.292  1.00  0.00    -0.481 OA
ATOM      5  H   UNL     1       6.842  -2.683  -2.499  1.00  0.00     0.296 HD
ENDBRANCH   2   4
ENDBRANCH   1   2
BRANCH   1   6
ATOM      6  C   UNL     1       8.742   0.309  -1.508  1.00  0.00     0.047 C 
BRANCH   6   7
ATOM      7  C   UNL     1       7.771   0.224  -0.415  1.00  0.00    -0.043 A 
ATOM      8  C   UNL     1       7.735  -0.868   0.439  1.00  0.00     0.008 A 
ATOM      9  C   UNL     1       6.840   1.210  -0.227  1.00  0.00     0.054 A 
ATOM     10  C   UNL     1       6.800  -0.967   1.444  1.00  0.00     0.051 A 
ATOM     11  C   UNL     1       5.892   1.133   0.776  1.00  0.00     0.166 A 
ATOM     12  C   UNL     1       5.868   0.045   1.615  1.00  0.00     0.165 A 
ATOM     13  O   UNL     1       4.873   1.993   1.146  1.00  0.00    -0.454 OA
ATOM     14  O   UNL     1       4.817   0.248   2.510  1.00  0.00    -0.454 OA
ATOM     15  C   UNL     1       3.996   1.293   2.041  1.00  0.00     0.468 C 
ENDBRANCH   6   7
ENDBRANCH   1   6
TORSDOF 4
ENDMDL
MODEL 5
REMARK VINA RESULT:      -7.2      1.146      2.018
REMARK SMILES O=C(O)CCc1ccc2c(c1)OCO2
REMARK SMILES IDX 4 1 2 2 1 3 3 4 5 6 6 7 7 8 11 9 8 10 10 11 9 12 12 13 14 14
REMARK SMILES IDX 13 15
REMARK H PARENT 3 5
REMARK Flexibility Score: inf
ROOT
ATOM      1  C   UNL     1       6.500   2.606   1.266  1.00  0.00     0.127 C 
ENDROOT
BRANCH   1   2
ATOM      2  C   UNL     1       6.467   4.057   1.165  1.00  0.00     0.303 C 
ATOM      3  O   UNL     1       6.838   4.717   0.193  1.00  0.00    -0.252 OA
BRANCH   2   4
ATOM      4  O   UNL     1       5.969   4.768   2.268  1.00  0.00    -0.481 OA
ATOM      5  H   UNL     1       5.636   5.702   2.082  1.00  0.00     0.296 HD
ENDBRANCH   2   4
ENDBRANCH   1   2
BRANCH   1   6
ATOM      6  C   UNL     1       5.905   1.910   0.106  1.00  0.00     0.047 C 
BRANCH   6   7
ATOM      7  C   UNL     1       6.562   0.686  -0.359  1.00  0.00    -0.043 A 
ATOM      8  C   UNL     1       6.539   0.313  -1.694  1.00  0.00     0.008 A 
ATOM      9  C   UNL     1       7.189  -0.151   0.525  1.00  0.00     0.054 A 
ATOM     10  C   UNL     1       7.124  -0.856  -2.127  1.00  0.00     0.051 A 
ATOM     11  C   UNL     1       7.784  -1.329   0.114  1.00  0.00     0.166 A 
ATOM     12  C   UNL     1       7.754  -1.685  -1.213  1.00  0.00     0.165 A 
ATOM     13  O   UNL     1       8.461  -2.310   0.816  1.00  0.00    -0.454 OA
ATOM     14  O   UNL     1       8.425  -2.905  -1.318  1.00  0.00    -0.454 OA
ATOM     15  C   UNL     1       8.597  -3.459  -0.034  1.00  0.00     0.468 C 
ENDBRANCH   6   7
ENDBRANCH   1   6
TORSDOF 4
ENDMDL
