@<TRIPOS>MOLECULE
/home/cewinharhar/GITHUB/reincatalyze/data/processed/docking_pred/2023-May-17-1006_maxeplen10_maxtrainstep1000_seadep16_gamma099_lrac9e-4_lrcr1e-3_sub6/b590df4aad401e291154b1741be08749940afe84_ligand_6.pdbqt
 15 16 0 0 0
SMALL
GASTEIGER

@<TRIPOS>ATOM
      1  C          4.6880    1.8520    0.6790 C.3     1  UNL1        0.1270
      2  C          4.3890    1.1560    1.9210 C.2     1  UNL1        0.3030
      3  O          5.1180    0.3300    2.4740 O.2     1  UNL1       -0.2520
      4  O          3.1650    1.4470    2.5440 O.3     1  UNL1       -0.4810
      5  H          3.1210    2.3160    3.0530 H       1  UNL1        0.2960
      6  C          6.1110    2.2240    0.5280 C.3     1  UNL1        0.0470
      7  C          6.9680    1.3240   -0.2460 C.2     1  UNL1       -0.0430
      8  C          8.3260    1.5640   -0.3930 C.2     1  UNL1        0.0080
      9  C          6.4420    0.2320   -0.8840 C.2     1  UNL1        0.0540
     10  C          9.1260    0.7380   -1.1510 C.2     1  UNL1        0.0510
     11  C          7.2260   -0.6110   -1.6480 C.2     1  UNL1        0.1660
     12  C          8.5700   -0.3610   -1.7840 C.2     1  UNL1        0.1650
     13  O          6.9160   -1.7510   -2.3690 O.2     1  UNL1       -0.4540
     14  O          9.0860   -1.3680   -2.6020 O.2     1  UNL1       -0.4540
     15  C          8.0270   -2.0560   -3.2260 C.3     1  UNL1        0.4680
@<TRIPOS>BOND
     1    15    14    1
     2    15    13    1
     3    14    12    1
     4    13    11    1
     5    12    11    2
     6    12    10    1
     7    11     9    1
     8    10     8    2
     9     9     7    2
    10     8     7    1
    11     7     6    1
    12     6     1    1
    13     1     2    1
    14     2     3    2
    15     2     4    1
    16     4     5    1
