@<TRIPOS>MOLECULE
/home/cewinharhar/GITHUB/reincatalyze/data/processed/docking_pred/2023-May-17-1006_maxeplen10_maxtrainstep1000_seadep16_gamma099_lrac9e-4_lrcr1e-3_sub6/b590df4aad401e291154b1741be08749940afe84_ligand_6.pdbqt
 15 16 0 0 0
SMALL
GASTEIGER

@<TRIPOS>ATOM
      1  C          6.5000    2.6060    1.2660 C.3     1  UNL1        0.1270
      2  C          6.4670    4.0570    1.1650 C.2     1  UNL1        0.3030
      3  O          6.8380    4.7170    0.1930 O.2     1  UNL1       -0.2520
      4  O          5.9690    4.7680    2.2680 O.3     1  UNL1       -0.4810
      5  H          5.6360    5.7020    2.0820 H       1  UNL1        0.2960
      6  C          5.9050    1.9100    0.1060 C.3     1  UNL1        0.0470
      7  C          6.5620    0.6860   -0.3590 C.2     1  UNL1       -0.0430
      8  C          6.5390    0.3130   -1.6940 C.2     1  UNL1        0.0080
      9  C          7.1890   -0.1510    0.5250 C.2     1  UNL1        0.0540
     10  C          7.1240   -0.8560   -2.1270 C.2     1  UNL1        0.0510
     11  C          7.7840   -1.3290    0.1140 C.2     1  UNL1        0.1660
     12  C          7.7540   -1.6850   -1.2130 C.2     1  UNL1        0.1650
     13  O          8.4610   -2.3100    0.8160 O.2     1  UNL1       -0.4540
     14  O          8.4250   -2.9050   -1.3180 O.2     1  UNL1       -0.4540
     15  C          8.5970   -3.4590   -0.0340 C.3     1  UNL1        0.4680
@<TRIPOS>BOND
     1    10     8    1
     2    10    12    2
     3     8     7    2
     4    14    12    1
     5    14    15    1
     6    12    11    1
     7     7     6    1
     8     7     9    1
     9    15    13    1
    10     6     1    1
    11    11     9    2
    12    11    13    1
    13     3     2    2
    14     2     1    1
    15     2     4    1
    16     5     4    1
