@<TRIPOS>MOLECULE
/home/cewinharhar/GITHUB/reincatalyze/data/processed/docking_pred/2023-May-17-1006_maxeplen10_maxtrainstep1000_seadep16_gamma099_lrac9e-4_lrcr1e-3_sub6/b590df4aad401e291154b1741be08749940afe84_ligand_6.pdbqt
 15 16 0 0 0
SMALL
GASTEIGER

@<TRIPOS>ATOM
      1  C          5.4160    2.8640    0.1310 C.3     1  UNL1        0.1270
      2  C          6.2510    3.8490    0.7990 C.2     1  UNL1        0.3030
      3  O          6.9070    4.7310    0.2410 O.2     1  UNL1       -0.2520
      4  O          6.3160    3.7940    2.2000 O.3     1  UNL1       -0.4810
      5  H          5.5590    4.2350    2.6990 H       1  UNL1        0.2960
      6  C          5.3620    1.5570    0.8200 C.3     1  UNL1        0.0470
      7  C          6.1350    0.4550    0.2440 C.2     1  UNL1       -0.0430
      8  C          6.5810   -0.6030    1.0220 C.2     1  UNL1        0.0080
      9  C          6.4760    0.4570   -1.0830 C.2     1  UNL1        0.0540
     10  C          7.3390   -1.6210    0.4890 C.2     1  UNL1        0.0510
     11  C          7.2360   -0.5550   -1.6400 C.2     1  UNL1        0.1660
     12  C          7.6700   -1.5970   -0.8560 C.2     1  UNL1        0.1650
     13  O          7.6910   -0.7580   -2.9310 O.2     1  UNL1       -0.4540
     14  O          8.4020   -2.4470   -1.6860 O.2     1  UNL1       -0.4540
     15  C          8.6900   -1.7890   -2.8980 C.3     1  UNL1        0.4680
@<TRIPOS>BOND
     1    13    15    1
     2    13    11    1
     3    15    14    1
     4    14    12    1
     5    11     9    1
     6    11    12    2
     7     9     7    2
     8    12    10    1
     9     1     2    1
    10     1     6    1
    11     3     2    2
    12     7     6    1
    13     7     8    1
    14    10     8    2
    15     2     4    1
    16     4     5    1
