@<TRIPOS>MOLECULE
/home/cewinharhar/GITHUB/reincatalyze/data/processed/docking_pred/2023-May-17-1006_maxeplen10_maxtrainstep1000_seadep16_gamma099_lrac9e-4_lrcr1e-3_sub6/b5f7d4a2d914252a6bbd971338c7ac1ea6a3e46f_ligand_6.pdbqt
 15 16 0 0 0
SMALL
GASTEIGER

@<TRIPOS>ATOM
      1  C          4.6690    1.8690    0.6750 C.3     1  UNL1        0.1270
      2  C          4.4020    1.1560    1.9140 C.2     1  UNL1        0.3030
      3  O          5.1570    0.3420    2.4500 O.2     1  UNL1       -0.2520
      4  O          3.1810    1.4140    2.5560 O.3     1  UNL1       -0.4810
      5  H          3.1900    2.1400    3.2560 H       1  UNL1        0.2960
      6  C          6.0850    2.2550    0.4970 C.3     1  UNL1        0.0470
      7  C          6.9470    1.3390   -0.2540 C.2     1  UNL1       -0.0430
      8  C          8.3140    1.5510   -0.3560 C.2     1  UNL1        0.0080
      9  C          6.4180    0.2610   -0.9130 C.2     1  UNL1        0.0540
     10  C          9.1200    0.7110   -1.0920 C.2     1  UNL1        0.0510
     11  C          7.2080   -0.5950   -1.6560 C.2     1  UNL1        0.1660
     12  C          8.5610   -0.3740   -1.7480 C.2     1  UNL1        0.1650
     13  O          6.8980   -1.7260   -2.3920 O.2     1  UNL1       -0.4540
     14  O          9.0810   -1.3880   -2.5540 O.2     1  UNL1       -0.4540
     15  C          8.0280   -2.0510   -3.2150 C.3     1  UNL1        0.4680
@<TRIPOS>BOND
     1    15    14    1
     2    15    13    1
     3    14    12    1
     4    13    11    1
     5    12    11    2
     6    12    10    1
     7    11     9    1
     8    10     8    2
     9     9     7    2
    10     8     7    1
    11     7     6    1
    12     6     1    1
    13     1     2    1
    14     2     3    2
    15     2     4    1
    16     4     5    1
