@<TRIPOS>MOLECULE
/home/cewinharhar/GITHUB/reincatalyze/data/processed/docking_pred/2023-May-17-1006_maxeplen10_maxtrainstep1000_seadep16_gamma099_lrac9e-4_lrcr1e-3_sub6/b5f7d4a2d914252a6bbd971338c7ac1ea6a3e46f_ligand_6.pdbqt
 15 16 0 0 0
SMALL
GASTEIGER

@<TRIPOS>ATOM
      1  C          6.4160    1.2780    0.7070 C.3     1  UNL1        0.1270
      2  C          5.1650    1.3260    1.4490 C.2     1  UNL1        0.3030
      3  O          4.2650    2.1520    1.2830 O.2     1  UNL1       -0.2520
      4  O          4.9640    0.3500    2.4370 O.3     1  UNL1       -0.4810
      5  H          5.7810   -0.1650    2.7270 H       1  UNL1        0.2960
      6  C          6.2650    0.8410   -0.6970 C.3     1  UNL1        0.0470
      7  C          7.0040   -0.3510   -1.1190 C.2     1  UNL1       -0.0430
      8  C          7.2840   -0.5950   -2.4540 C.2     1  UNL1        0.0080
      9  C          7.4100   -1.2840   -0.2020 C.2     1  UNL1        0.0540
     10  C          7.9470   -1.7330   -2.8560 C.2     1  UNL1        0.0510
     11  C          8.0780   -2.4330   -0.5810 C.2     1  UNL1        0.1660
     12  C          8.3490   -2.6620   -1.9090 C.2     1  UNL1        0.1650
     13  O          8.5740   -3.4930    0.1560 O.2     1  UNL1       -0.4540
     14  O          9.0210   -3.8830   -1.9780 O.2     1  UNL1       -0.4540
     15  C          8.8940   -4.5600   -0.7490 C.3     1  UNL1        0.4680
@<TRIPOS>BOND
     1    10     8    1
     2    10    12    2
     3     8     7    2
     4    14    12    1
     5    14    15    1
     6    12    11    1
     7     7     6    1
     8     7     9    1
     9    15    13    1
    10     6     1    1
    11    11     9    2
    12    11    13    1
    13     1     2    1
    14     3     2    2
    15     2     4    1
    16     4     5    1
