@<TRIPOS>MOLECULE
/home/cewinharhar/GITHUB/reincatalyze/data/processed/docking_pred/2023-May-17-1006_maxeplen10_maxtrainstep1000_seadep16_gamma099_lrac9e-4_lrcr1e-3_sub6/b5f7d4a2d914252a6bbd971338c7ac1ea6a3e46f_ligand_6.pdbqt
 15 16 0 0 0
SMALL
GASTEIGER

@<TRIPOS>ATOM
      1  C          8.3120   -0.3280   -2.8650 C.3     1  UNL1        0.1270
      2  C          8.4680   -1.7570   -3.0840 C.2     1  UNL1        0.3030
      3  O          9.5340   -2.3740   -3.0600 O.2     1  UNL1       -0.2520
      4  O          7.3060   -2.5000   -3.3460 O.3     1  UNL1       -0.4810
      5  H          7.2490   -2.9310   -4.2550 H       1  UNL1        0.2960
      6  C          8.7720    0.1300   -1.5360 C.3     1  UNL1        0.0470
      7  C          7.8080    0.0870   -0.4340 C.2     1  UNL1       -0.0430
      8  C          7.7520   -0.9890    0.4380 C.2     1  UNL1        0.0080
      9  C          6.9030    1.1000   -0.2560 C.2     1  UNL1        0.0540
     10  C          6.8230   -1.0470    1.4530 C.2     1  UNL1        0.0510
     11  C          5.9620    1.0630    0.7560 C.2     1  UNL1        0.1660
     12  C          5.9190   -0.0090    1.6130 C.2     1  UNL1        0.1650
     13  O          4.9680    1.9550    1.1190 O.2     1  UNL1       -0.4540
     14  O          4.8800    0.2360    2.5130 O.2     1  UNL1       -0.4540
     15  C          4.0810    1.2920    2.0320 C.3     1  UNL1        0.4680
@<TRIPOS>BOND
     1     5     4    1
     2     4     2    1
     3     2     3    2
     4     2     1    1
     5     1     6    1
     6     6     7    1
     7     7     9    2
     8     7     8    1
     9     9    11    1
    10     8    10    2
    11    11    13    1
    12    11    12    2
    13    13    15    1
    14    10    12    1
    15    12    14    1
    16    15    14    1
