@<TRIPOS>MOLECULE
/home/cewinharhar/GITHUB/reincatalyze/data/processed/docking_pred/2023-May-17-1006_maxeplen10_maxtrainstep1000_seadep16_gamma099_lrac9e-4_lrcr1e-3_sub6/b5f7d4a2d914252a6bbd971338c7ac1ea6a3e46f_ligand_6.pdbqt
 15 16 0 0 0
SMALL
GASTEIGER

@<TRIPOS>ATOM
      1  C          5.1360    0.2930    1.8500 C.3     1  UNL1        0.1270
      2  C          6.2600   -0.4710    2.3690 C.2     1  UNL1        0.3030
      3  O          7.2520    0.0020    2.9250 O.2     1  UNL1       -0.2520
      4  O          6.2120   -1.8660    2.2240 O.3     1  UNL1       -0.4810
      5  H          6.9480   -2.2820    1.6750 H       1  UNL1        0.2960
      6  C          5.4260    1.0040    0.5860 C.3     1  UNL1        0.0470
      7  C          6.5630    0.5360   -0.2090 C.2     1  UNL1       -0.0430
      8  C          7.7040    1.3070   -0.3670 C.2     1  UNL1        0.0080
      9  C          6.5150   -0.6700   -0.8560 C.2     1  UNL1        0.0540
     10  C          8.7590    0.8830   -1.1440 C.2     1  UNL1        0.0510
     11  C          7.5620   -1.1160   -1.6410 C.2     1  UNL1        0.1660
     12  C          8.6870   -0.3420   -1.7870 C.2     1  UNL1        0.1650
     13  O          7.7310   -2.2780   -2.3740 O.2     1  UNL1       -0.4540
     14  O          9.5550   -1.0460   -2.6240 O.2     1  UNL1       -0.4540
     15  C          8.8560   -2.0990   -3.2470 C.3     1  UNL1        0.4680
@<TRIPOS>BOND
     1    15    14    1
     2    15    13    1
     3    14    12    1
     4    13    11    1
     5    12    11    2
     6    12    10    1
     7    11     9    1
     8    10     8    2
     9     9     7    2
    10     8     7    1
    11     7     6    1
    12     6     1    1
    13     5     4    1
    14     1     2    1
    15     4     2    1
    16     2     3    2
