MODEL 1
REMARK VINA RESULT:      -7.7      0.000      0.000
REMARK SMILES O=C(O)CCc1ccc2c(c1)OCO2
REMARK SMILES IDX 4 1 2 2 1 3 3 4 5 6 6 7 7 8 11 9 8 10 10 11 9 12 12 13 14 14
REMARK SMILES IDX 13 15
REMARK H PARENT 3 5
REMARK Flexibility Score: inf
ROOT
ATOM      1  C   UNL     1       5.428   2.868   0.117  1.00  0.00     0.127 C 
ENDROOT
BRANCH   1   2
ATOM      2  C   UNL     1       6.258   3.852   0.792  1.00  0.00     0.303 C 
ATOM      3  O   UNL     1       6.917   4.735   0.240  1.00  0.00    -0.252 OA
BRANCH   2   4
ATOM      4  O   UNL     1       6.317   3.794   2.194  1.00  0.00    -0.481 OA
ATOM      5  H   UNL     1       7.129   3.344   2.587  1.00  0.00     0.296 HD
ENDBRANCH   2   4
ENDBRANCH   1   2
BRANCH   1   6
ATOM      6  C   UNL     1       5.367   1.560   0.805  1.00  0.00     0.047 C 
BRANCH   6   7
ATOM      7  C   UNL     1       6.140   0.457   0.231  1.00  0.00    -0.043 A 
ATOM      8  C   UNL     1       6.581  -0.601   1.011  1.00  0.00     0.008 A 
ATOM      9  C   UNL     1       6.485   0.458  -1.095  1.00  0.00     0.054 A 
ATOM     10  C   UNL     1       7.339  -1.621   0.480  1.00  0.00     0.051 A 
ATOM     11  C   UNL     1       7.244  -0.555  -1.649  1.00  0.00     0.166 A 
ATOM     12  C   UNL     1       7.673  -1.598  -0.864  1.00  0.00     0.165 A 
ATOM     13  O   UNL     1       7.702  -0.759  -2.939  1.00  0.00    -0.454 OA
ATOM     14  O   UNL     1       8.406  -2.450  -1.692  1.00  0.00    -0.454 OA
ATOM     15  C   UNL     1       8.699  -1.792  -2.903  1.00  0.00     0.468 C 
ENDBRANCH   6   7
ENDBRANCH   1   6
TORSDOF 4
ENDMDL
MODEL 2
REMARK VINA RESULT:      -7.6      2.123      2.508
REMARK SMILES O=C(O)CCc1ccc2c(c1)OCO2
REMARK SMILES IDX 4 1 2 2 1 3 3 4 5 6 6 7 7 8 11 9 8 10 10 11 9 12 12 13 14 14
REMARK SMILES IDX 13 15
REMARK H PARENT 3 5
REMARK Flexibility Score: inf
ROOT
ATOM      1  C   UNL     1       4.669   1.869   0.675  1.00  0.00     0.127 C 
ENDROOT
BRANCH   1   2
ATOM      2  C   UNL     1       4.402   1.156   1.914  1.00  0.00     0.303 C 
ATOM      3  O   UNL     1       5.157   0.342   2.450  1.00  0.00    -0.252 OA
BRANCH   2   4
ATOM      4  O   UNL     1       3.181   1.414   2.556  1.00  0.00    -0.481 OA
ATOM      5  H   UNL     1       3.190   2.140   3.256  1.00  0.00     0.296 HD
ENDBRANCH   2   4
ENDBRANCH   1   2
BRANCH   1   6
ATOM      6  C   UNL     1       6.085   2.255   0.497  1.00  0.00     0.047 C 
BRANCH   6   7
ATOM      7  C   UNL     1       6.947   1.339  -0.254  1.00  0.00    -0.043 A 
ATOM      8  C   UNL     1       8.314   1.551  -0.356  1.00  0.00     0.008 A 
ATOM      9  C   UNL     1       6.418   0.261  -0.913  1.00  0.00     0.054 A 
ATOM     10  C   UNL     1       9.120   0.711  -1.092  1.00  0.00     0.051 A 
ATOM     11  C   UNL     1       7.208  -0.595  -1.656  1.00  0.00     0.166 A 
ATOM     12  C   UNL     1       8.561  -0.374  -1.748  1.00  0.00     0.165 A 
ATOM     13  O   UNL     1       6.898  -1.726  -2.392  1.00  0.00    -0.454 OA
ATOM     14  O   UNL     1       9.081  -1.388  -2.554  1.00  0.00    -0.454 OA
ATOM     15  C   UNL     1       8.028  -2.051  -3.215  1.00  0.00     0.468 C 
ENDBRANCH   6   7
ENDBRANCH   1   6
TORSDOF 4
ENDMDL
MODEL 3
REMARK VINA RESULT:      -7.5      1.974      2.886
REMARK SMILES O=C(O)CCc1ccc2c(c1)OCO2
REMARK SMILES IDX 4 1 2 2 1 3 3 4 5 6 6 7 7 8 11 9 8 10 10 11 9 12 12 13 14 14
REMARK SMILES IDX 13 15
REMARK H PARENT 3 5
REMARK Flexibility Score: inf
ROOT
ATOM      1  C   UNL     1       6.416   1.278   0.707  1.00  0.00     0.127 C 
ENDROOT
BRANCH   1   2
ATOM      2  C   UNL     1       5.165   1.326   1.449  1.00  0.00     0.303 C 
ATOM      3  O   UNL     1       4.265   2.152   1.283  1.00  0.00    -0.252 OA
BRANCH   2   4
ATOM      4  O   UNL     1       4.964   0.350   2.437  1.00  0.00    -0.481 OA
ATOM      5  H   UNL     1       5.781  -0.165   2.727  1.00  0.00     0.296 HD
ENDBRANCH   2   4
ENDBRANCH   1   2
BRANCH   1   6
ATOM      6  C   UNL     1       6.265   0.841  -0.697  1.00  0.00     0.047 C 
BRANCH   6   7
ATOM      7  C   UNL     1       7.004  -0.351  -1.119  1.00  0.00    -0.043 A 
ATOM      8  C   UNL     1       7.284  -0.595  -2.454  1.00  0.00     0.008 A 
ATOM      9  C   UNL     1       7.410  -1.284  -0.202  1.00  0.00     0.054 A 
ATOM     10  C   UNL     1       7.947  -1.733  -2.856  1.00  0.00     0.051 A 
ATOM     11  C   UNL     1       8.078  -2.433  -0.581  1.00  0.00     0.166 A 
ATOM     12  C   UNL     1       8.349  -2.662  -1.909  1.00  0.00     0.165 A 
ATOM     13  O   UNL     1       8.574  -3.493   0.156  1.00  0.00    -0.454 OA
ATOM     14  O   UNL     1       9.021  -3.883  -1.978  1.00  0.00    -0.454 OA
ATOM     15  C   UNL     1       8.894  -4.560  -0.749  1.00  0.00     0.468 C 
ENDBRANCH   6   7
ENDBRANCH   1   6
TORSDOF 4
ENDMDL
MODEL 4
REMARK VINA RESULT:      -7.5      1.792      5.285
REMARK SMILES O=C(O)CCc1ccc2c(c1)OCO2
REMARK SMILES IDX 4 1 2 2 1 3 3 4 5 6 6 7 7 8 11 9 8 10 10 11 9 12 12 13 14 14
REMARK SMILES IDX 13 15
REMARK H PARENT 3 5
REMARK Flexibility Score: inf
ROOT
ATOM      1  C   UNL     1       8.312  -0.328  -2.865  1.00  0.00     0.127 C 
ENDROOT
BRANCH   1   2
ATOM      2  C   UNL     1       8.468  -1.757  -3.084  1.00  0.00     0.303 C 
ATOM      3  O   UNL     1       9.534  -2.374  -3.060  1.00  0.00    -0.252 OA
BRANCH   2   4
ATOM      4  O   UNL     1       7.306  -2.500  -3.346  1.00  0.00    -0.481 OA
ATOM      5  H   UNL     1       7.249  -2.931  -4.255  1.00  0.00     0.296 HD
ENDBRANCH   2   4
ENDBRANCH   1   2
BRANCH   1   6
ATOM      6  C   UNL     1       8.772   0.130  -1.536  1.00  0.00     0.047 C 
BRANCH   6   7
ATOM      7  C   UNL     1       7.808   0.087  -0.434  1.00  0.00    -0.043 A 
ATOM      8  C   UNL     1       7.752  -0.989   0.438  1.00  0.00     0.008 A 
ATOM      9  C   UNL     1       6.903   1.100  -0.256  1.00  0.00     0.054 A 
ATOM     10  C   UNL     1       6.823  -1.047   1.453  1.00  0.00     0.051 A 
ATOM     11  C   UNL     1       5.962   1.063   0.756  1.00  0.00     0.166 A 
ATOM     12  C   UNL     1       5.919  -0.009   1.613  1.00  0.00     0.165 A 
ATOM     13  O   UNL     1       4.968   1.955   1.119  1.00  0.00    -0.454 OA
ATOM     14  O   UNL     1       4.880   0.236   2.513  1.00  0.00    -0.454 OA
ATOM     15  C   UNL     1       4.081   1.292   2.032  1.00  0.00     0.468 C 
ENDBRANCH   6   7
ENDBRANCH   1   6
TORSDOF 4
ENDMDL
