@<TRIPOS>MOLECULE
/home/cewinharhar/GITHUB/reincatalyze/data/processed/docking_pred/2023-May-17-1006_maxeplen10_maxtrainstep1000_seadep16_gamma099_lrac9e-4_lrcr1e-3_sub6/b5f7d4a2d914252a6bbd971338c7ac1ea6a3e46f_ligand_6.pdbqt
 15 16 0 0 0
SMALL
GASTEIGER

@<TRIPOS>ATOM
      1  C          5.4280    2.8680    0.1170 C.3     1  UNL1        0.1270
      2  C          6.2580    3.8520    0.7920 C.2     1  UNL1        0.3030
      3  O          6.9170    4.7350    0.2400 O.2     1  UNL1       -0.2520
      4  O          6.3170    3.7940    2.1940 O.3     1  UNL1       -0.4810
      5  H          7.1290    3.3440    2.5870 H       1  UNL1        0.2960
      6  C          5.3670    1.5600    0.8050 C.3     1  UNL1        0.0470
      7  C          6.1400    0.4570    0.2310 C.2     1  UNL1       -0.0430
      8  C          6.5810   -0.6010    1.0110 C.2     1  UNL1        0.0080
      9  C          6.4850    0.4580   -1.0950 C.2     1  UNL1        0.0540
     10  C          7.3390   -1.6210    0.4800 C.2     1  UNL1        0.0510
     11  C          7.2440   -0.5550   -1.6490 C.2     1  UNL1        0.1660
     12  C          7.6730   -1.5980   -0.8640 C.2     1  UNL1        0.1650
     13  O          7.7020   -0.7590   -2.9390 O.2     1  UNL1       -0.4540
     14  O          8.4060   -2.4500   -1.6920 O.2     1  UNL1       -0.4540
     15  C          8.6990   -1.7920   -2.9030 C.3     1  UNL1        0.4680
@<TRIPOS>BOND
     1    13    15    1
     2    13    11    1
     3    15    14    1
     4    14    12    1
     5    11     9    1
     6    11    12    2
     7     9     7    2
     8    12    10    1
     9     1     2    1
    10     1     6    1
    11     7     6    1
    12     7     8    1
    13     3     2    2
    14    10     8    2
    15     2     4    1
    16     4     5    1
