@<TRIPOS>MOLECULE
/home/cewinharhar/GITHUB/reincatalyze/data/processed/docking_pred/2023-May-17-1006_maxeplen10_maxtrainstep1000_seadep16_gamma099_lrac9e-4_lrcr1e-3_sub6/b658f69152bbaa0d4df6d0fc1d77222c9f34aa3c_ligand_6.pdbqt
 15 16 0 0 0
SMALL
GASTEIGER

@<TRIPOS>ATOM
      1  C          5.5650    1.3350   -0.1610 C.3     1  UNL1        0.1270
      2  C          5.1180    2.1960    0.9230 C.2     1  UNL1        0.3030
      3  O          5.5730    3.3100    1.1890 O.2     1  UNL1       -0.2520
      4  O          4.0800    1.7180    1.7380 O.3     1  UNL1       -0.4810
      5  H          3.4400    2.4110    2.0960 H       1  UNL1        0.2960
      6  C          6.2690    0.1160    0.2910 C.3     1  UNL1        0.0470
      7  C          7.7040    0.0210    0.0130 C.2     1  UNL1       -0.0430
      8  C          8.3360    0.9040   -0.8480 C.2     1  UNL1        0.0080
      9  C          8.4600   -0.9760    0.5720 C.2     1  UNL1        0.0540
     10  C          9.6770    0.7930   -1.1390 C.2     1  UNL1        0.0510
     11  C          9.8080   -1.1060    0.2960 C.2     1  UNL1        0.1660
     12  C         10.4210   -0.2230   -0.5600 C.2     1  UNL1        0.1650
     13  O         10.7520   -2.0170    0.7360 O.2     1  UNL1       -0.4540
     14  O         11.7620   -0.6050   -0.6400 O.2     1  UNL1       -0.4540
     15  C         11.9170   -1.8940   -0.0940 C.3     1  UNL1        0.4680
@<TRIPOS>BOND
     1    10     8    1
     2    10    12    2
     3     8     7    2
     4    14    12    1
     5    14    15    1
     6    12    11    1
     7     1     6    1
     8     1     2    1
     9    15    13    1
    10     7     6    1
    11     7     9    1
    12    11     9    2
    13    11    13    1
    14     2     3    2
    15     2     4    1
    16     4     5    1
