@<TRIPOS>MOLECULE
/home/cewinharhar/GITHUB/reincatalyze/data/processed/docking_pred/2023-May-17-1006_maxeplen10_maxtrainstep1000_seadep16_gamma099_lrac9e-4_lrcr1e-3_sub6/b658f69152bbaa0d4df6d0fc1d77222c9f34aa3c_ligand_6.pdbqt
 15 16 0 0 0
SMALL
GASTEIGER

@<TRIPOS>ATOM
      1  C          5.5240    2.8950    0.0000 C.3     1  UNL1        0.1270
      2  C          6.2780    3.8870    0.7510 C.2     1  UNL1        0.3030
      3  O          6.9800    4.7750    0.2630 O.2     1  UNL1       -0.2520
      4  O          6.2020    3.8300    2.1520 O.3     1  UNL1       -0.4810
      5  H          6.8020    4.4640    2.6560 H       1  UNL1        0.2960
      6  C          4.9470    1.8210    0.8370 C.3     1  UNL1        0.0470
      7  C          5.6910    0.5630    0.9320 C.2     1  UNL1       -0.0430
      8  C          5.7630   -0.1480    2.1190 C.2     1  UNL1        0.0080
      9  C          6.3750    0.0710   -0.1480 C.2     1  UNL1        0.0540
     10  C          6.4920   -1.3120    2.2200 C.2     1  UNL1        0.0510
     11  C          7.1130   -1.0950   -0.0710 C.2     1  UNL1        0.1660
     12  C          7.1740   -1.7910    1.1130 C.2     1  UNL1        0.1650
     13  O          7.8690   -1.7680   -1.0140 O.2     1  UNL1       -0.4540
     14  O          7.9810   -2.9060    0.8830 O.2     1  UNL1       -0.4540
     15  C          8.6730   -2.7440   -0.3340 C.3     1  UNL1        0.4680
@<TRIPOS>BOND
     1    13    15    1
     2    13    11    1
     3    15    14    1
     4     9    11    1
     5     9     7    2
     6    11    12    2
     7     1     2    1
     8     1     6    1
     9     3     2    2
    10     2     4    1
    11     6     7    1
    12    14    12    1
    13     7     8    1
    14    12    10    1
    15     8    10    2
    16     4     5    1
