@<TRIPOS>MOLECULE
/home/cewinharhar/GITHUB/reincatalyze/data/processed/docking_pred/2023-May-17-1006_maxeplen10_maxtrainstep1000_seadep16_gamma099_lrac9e-4_lrcr1e-3_sub6/b658f69152bbaa0d4df6d0fc1d77222c9f34aa3c_ligand_6.pdbqt
 15 16 0 0 0
SMALL
GASTEIGER

@<TRIPOS>ATOM
      1  C          5.3890    2.6790    0.1240 C.3     1  UNL1        0.1270
      2  C          6.1600    3.6280    0.9120 C.2     1  UNL1        0.3030
      3  O          6.3150    3.5870    2.1340 O.2     1  UNL1       -0.2520
      4  O          6.7820    4.6810    0.2240 O.3     1  UNL1       -0.4810
      5  H          7.2690    5.3580    0.7910 H       1  UNL1        0.2960
      6  C          5.3570    1.3140    0.6910 C.3     1  UNL1        0.0470
      7  C          6.2480    0.3140    0.0980 C.2     1  UNL1       -0.0430
      8  C          6.5550    0.3270   -1.2540 C.2     1  UNL1        0.0080
      9  C          6.7750   -0.6940    0.8600 C.2     1  UNL1        0.0540
     10  C          7.3630   -0.6340   -1.8200 C.2     1  UNL1        0.0510
     11  C          7.5890   -1.6690    0.3150 C.2     1  UNL1        0.1660
     12  C          7.8860   -1.6420   -1.0270 C.2     1  UNL1        0.1650
     13  O          8.2230   -2.7600    0.8820 O.2     1  UNL1       -0.4540
     14  O          8.7140   -2.7370   -1.2780 O.2     1  UNL1       -0.4540
     15  C          8.6800   -3.6150   -0.1770 C.3     1  UNL1        0.4680
@<TRIPOS>BOND
     1    10     8    1
     2    10    12    2
     3    14    12    1
     4    14    15    1
     5     8     7    2
     6    12    11    1
     7    15    13    1
     8     7     6    1
     9     7     9    1
    10     1     6    1
    11     1     2    1
    12     4     5    1
    13     4     2    1
    14    11     9    2
    15    11    13    1
    16     2     3    2
