@<TRIPOS>MOLECULE
/home/cewinharhar/GITHUB/reincatalyze/data/processed/docking_pred/2023-May-17-1006_maxeplen10_maxtrainstep1000_seadep16_gamma099_lrac9e-4_lrcr1e-3_sub6/b658f69152bbaa0d4df6d0fc1d77222c9f34aa3c_ligand_6.pdbqt
 15 16 0 0 0
SMALL
GASTEIGER

@<TRIPOS>ATOM
      1  C          5.6520    1.7470    0.8250 C.3     1  UNL1        0.1270
      2  C          4.9670    0.9240    1.8090 C.2     1  UNL1        0.3030
      3  O          5.4040   -0.1170    2.3020 O.2     1  UNL1       -0.2520
      4  O          3.6980    1.3490    2.2340 O.3     1  UNL1       -0.4810
      5  H          3.6700    2.2100    2.7590 H       1  UNL1        0.2960
      6  C          5.7270    1.1380   -0.5200 C.3     1  UNL1        0.0470
      7  C          6.9630    0.4390   -0.8780 C.2     1  UNL1       -0.0430
      8  C          8.2070    1.0160   -0.6770 C.2     1  UNL1        0.0080
      9  C          6.9230   -0.7990   -1.4640 C.2     1  UNL1        0.0540
     10  C          9.3680    0.3750   -1.0460 C.2     1  UNL1        0.0510
     11  C          8.0750   -1.4610   -1.8420 C.2     1  UNL1        0.1660
     12  C          9.3010   -0.8770   -1.6350 C.2     1  UNL1        0.1650
     13  O          8.2720   -2.6950   -2.4380 O.2     1  UNL1       -0.4540
     14  O         10.2600   -1.7720   -2.1140 O.2     1  UNL1       -0.4540
     15  C          9.6310   -2.7610   -2.8960 C.3     1  UNL1        0.4680
@<TRIPOS>BOND
     1    15    13    1
     2    15    14    1
     3    13    11    1
     4    14    12    1
     5    11    12    2
     6    11     9    1
     7    12    10    1
     8     9     7    2
     9    10     8    2
    10     7     8    1
    11     7     6    1
    12     6     1    1
    13     1     2    1
    14     2     4    1
    15     2     3    2
    16     4     5    1
