MODEL 1
REMARK VINA RESULT:      -7.8      0.000      0.000
REMARK SMILES O=C(O)CCc1ccc2c(c1)OCO2
REMARK SMILES IDX 4 1 2 2 1 3 3 4 5 6 6 7 7 8 11 9 8 10 10 11 9 12 12 13 14 14
REMARK SMILES IDX 13 15
REMARK H PARENT 3 5
REMARK Flexibility Score: inf
ROOT
ATOM      1  C   UNL     1       5.652   1.747   0.825  1.00  0.00     0.127 C 
ENDROOT
BRANCH   1   2
ATOM      2  C   UNL     1       4.967   0.924   1.809  1.00  0.00     0.303 C 
ATOM      3  O   UNL     1       5.404  -0.117   2.302  1.00  0.00    -0.252 OA
BRANCH   2   4
ATOM      4  O   UNL     1       3.698   1.349   2.234  1.00  0.00    -0.481 OA
ATOM      5  H   UNL     1       3.670   2.210   2.759  1.00  0.00     0.296 HD
ENDBRANCH   2   4
ENDBRANCH   1   2
BRANCH   1   6
ATOM      6  C   UNL     1       5.727   1.138  -0.520  1.00  0.00     0.047 C 
BRANCH   6   7
ATOM      7  C   UNL     1       6.963   0.439  -0.878  1.00  0.00    -0.043 A 
ATOM      8  C   UNL     1       8.207   1.016  -0.677  1.00  0.00     0.008 A 
ATOM      9  C   UNL     1       6.923  -0.799  -1.464  1.00  0.00     0.054 A 
ATOM     10  C   UNL     1       9.368   0.375  -1.046  1.00  0.00     0.051 A 
ATOM     11  C   UNL     1       8.075  -1.461  -1.842  1.00  0.00     0.166 A 
ATOM     12  C   UNL     1       9.301  -0.877  -1.635  1.00  0.00     0.165 A 
ATOM     13  O   UNL     1       8.272  -2.695  -2.438  1.00  0.00    -0.454 OA
ATOM     14  O   UNL     1      10.260  -1.772  -2.114  1.00  0.00    -0.454 OA
ATOM     15  C   UNL     1       9.631  -2.761  -2.896  1.00  0.00     0.468 C 
ENDBRANCH   6   7
ENDBRANCH   1   6
TORSDOF 4
ENDMDL
MODEL 2
REMARK VINA RESULT:      -7.6      2.484      3.244
REMARK SMILES O=C(O)CCc1ccc2c(c1)OCO2
REMARK SMILES IDX 4 1 2 2 1 3 3 4 5 6 6 7 7 8 11 9 8 10 10 11 9 12 12 13 14 14
REMARK SMILES IDX 13 15
REMARK H PARENT 3 5
REMARK Flexibility Score: inf
ROOT
ATOM      1  C   UNL     1       5.524   2.895   0.000  1.00  0.00     0.127 C 
ENDROOT
BRANCH   1   2
ATOM      2  C   UNL     1       6.278   3.887   0.751  1.00  0.00     0.303 C 
ATOM      3  O   UNL     1       6.980   4.775   0.263  1.00  0.00    -0.252 OA
BRANCH   2   4
ATOM      4  O   UNL     1       6.202   3.830   2.152  1.00  0.00    -0.481 OA
ATOM      5  H   UNL     1       6.802   4.464   2.656  1.00  0.00     0.296 HD
ENDBRANCH   2   4
ENDBRANCH   1   2
BRANCH   1   6
ATOM      6  C   UNL     1       4.947   1.821   0.837  1.00  0.00     0.047 C 
BRANCH   6   7
ATOM      7  C   UNL     1       5.691   0.563   0.932  1.00  0.00    -0.043 A 
ATOM      8  C   UNL     1       5.763  -0.148   2.119  1.00  0.00     0.008 A 
ATOM      9  C   UNL     1       6.375   0.071  -0.148  1.00  0.00     0.054 A 
ATOM     10  C   UNL     1       6.492  -1.312   2.220  1.00  0.00     0.051 A 
ATOM     11  C   UNL     1       7.113  -1.095  -0.071  1.00  0.00     0.166 A 
ATOM     12  C   UNL     1       7.174  -1.791   1.113  1.00  0.00     0.165 A 
ATOM     13  O   UNL     1       7.869  -1.768  -1.014  1.00  0.00    -0.454 OA
ATOM     14  O   UNL     1       7.981  -2.906   0.883  1.00  0.00    -0.454 OA
ATOM     15  C   UNL     1       8.673  -2.744  -0.334  1.00  0.00     0.468 C 
ENDBRANCH   6   7
ENDBRANCH   1   6
TORSDOF 4
ENDMDL
MODEL 3
REMARK VINA RESULT:      -7.4      1.213      2.027
REMARK SMILES O=C(O)CCc1ccc2c(c1)OCO2
REMARK SMILES IDX 4 1 2 2 1 3 3 4 5 6 6 7 7 8 11 9 8 10 10 11 9 12 12 13 14 14
REMARK SMILES IDX 13 15
REMARK H PARENT 3 5
REMARK Flexibility Score: inf
ROOT
ATOM      1  C   UNL     1       5.705   1.498  -0.258  1.00  0.00     0.127 C 
ENDROOT
BRANCH   1   2
ATOM      2  C   UNL     1       5.169   2.134   0.936  1.00  0.00     0.303 C 
ATOM      3  O   UNL     1       4.251   1.697   1.632  1.00  0.00    -0.252 OA
BRANCH   2   4
ATOM      4  O   UNL     1       5.747   3.352   1.331  1.00  0.00    -0.481 OA
ATOM      5  H   UNL     1       6.174   3.366   2.244  1.00  0.00     0.296 HD
ENDBRANCH   2   4
ENDBRANCH   1   2
BRANCH   1   6
ATOM      6  C   UNL     1       7.176   1.355  -0.253  1.00  0.00     0.047 C 
BRANCH   6   7
ATOM      7  C   UNL     1       7.753   0.265  -1.043  1.00  0.00    -0.043 A 
ATOM      8  C   UNL     1       7.010  -0.411  -1.998  1.00  0.00     0.008 A 
ATOM      9  C   UNL     1       9.042  -0.147  -0.830  1.00  0.00     0.054 A 
ATOM     10  C   UNL     1       7.540  -1.460  -2.715  1.00  0.00     0.051 A 
ATOM     11  C   UNL     1       9.595  -1.197  -1.538  1.00  0.00     0.166 A 
ATOM     12  C   UNL     1       8.847  -1.857  -2.483  1.00  0.00     0.165 A 
ATOM     13  O   UNL     1      10.852  -1.775  -1.493  1.00  0.00    -0.454 OA
ATOM     14  O   UNL     1       9.663  -2.853  -3.021  1.00  0.00    -0.454 OA
ATOM     15  C   UNL     1      10.800  -3.020  -2.205  1.00  0.00     0.468 C 
ENDBRANCH   6   7
ENDBRANCH   1   6
TORSDOF 4
ENDMDL
MODEL 4
REMARK VINA RESULT:      -7.4      2.036      2.305
REMARK SMILES O=C(O)CCc1ccc2c(c1)OCO2
REMARK SMILES IDX 4 1 2 2 1 3 3 4 5 6 6 7 7 8 11 9 8 10 10 11 9 12 12 13 14 14
REMARK SMILES IDX 13 15
REMARK H PARENT 3 5
REMARK Flexibility Score: inf
ROOT
ATOM      1  C   UNL     1       5.565   1.335  -0.161  1.00  0.00     0.127 C 
ENDROOT
BRANCH   1   2
ATOM      2  C   UNL     1       5.118   2.196   0.923  1.00  0.00     0.303 C 
ATOM      3  O   UNL     1       5.573   3.310   1.189  1.00  0.00    -0.252 OA
BRANCH   2   4
ATOM      4  O   UNL     1       4.080   1.718   1.738  1.00  0.00    -0.481 OA
ATOM      5  H   UNL     1       3.440   2.411   2.096  1.00  0.00     0.296 HD
ENDBRANCH   2   4
ENDBRANCH   1   2
BRANCH   1   6
ATOM      6  C   UNL     1       6.269   0.116   0.291  1.00  0.00     0.047 C 
BRANCH   6   7
ATOM      7  C   UNL     1       7.704   0.021   0.013  1.00  0.00    -0.043 A 
ATOM      8  C   UNL     1       8.336   0.904  -0.848  1.00  0.00     0.008 A 
ATOM      9  C   UNL     1       8.460  -0.976   0.572  1.00  0.00     0.054 A 
ATOM     10  C   UNL     1       9.677   0.793  -1.139  1.00  0.00     0.051 A 
ATOM     11  C   UNL     1       9.808  -1.106   0.296  1.00  0.00     0.166 A 
ATOM     12  C   UNL     1      10.421  -0.223  -0.560  1.00  0.00     0.165 A 
ATOM     13  O   UNL     1      10.752  -2.017   0.736  1.00  0.00    -0.454 OA
ATOM     14  O   UNL     1      11.762  -0.605  -0.640  1.00  0.00    -0.454 OA
ATOM     15  C   UNL     1      11.917  -1.894  -0.094  1.00  0.00     0.468 C 
ENDBRANCH   6   7
ENDBRANCH   1   6
TORSDOF 4
ENDMDL
MODEL 5
REMARK VINA RESULT:      -7.2      2.297      2.671
REMARK SMILES O=C(O)CCc1ccc2c(c1)OCO2
REMARK SMILES IDX 4 1 2 2 1 3 3 4 5 6 6 7 7 8 11 9 8 10 10 11 9 12 12 13 14 14
REMARK SMILES IDX 13 15
REMARK H PARENT 3 5
REMARK Flexibility Score: inf
ROOT
ATOM      1  C   UNL     1       5.389   2.679   0.124  1.00  0.00     0.127 C 
ENDROOT
BRANCH   1   2
ATOM      2  C   UNL     1       6.160   3.628   0.912  1.00  0.00     0.303 C 
ATOM      3  O   UNL     1       6.315   3.587   2.134  1.00  0.00    -0.252 OA
BRANCH   2   4
ATOM      4  O   UNL     1       6.782   4.681   0.224  1.00  0.00    -0.481 OA
ATOM      5  H   UNL     1       7.269   5.358   0.791  1.00  0.00     0.296 HD
ENDBRANCH   2   4
ENDBRANCH   1   2
BRANCH   1   6
ATOM      6  C   UNL     1       5.357   1.314   0.691  1.00  0.00     0.047 C 
BRANCH   6   7
ATOM      7  C   UNL     1       6.248   0.314   0.098  1.00  0.00    -0.043 A 
ATOM      8  C   UNL     1       6.555   0.327  -1.254  1.00  0.00     0.008 A 
ATOM      9  C   UNL     1       6.775  -0.694   0.860  1.00  0.00     0.054 A 
ATOM     10  C   UNL     1       7.363  -0.634  -1.820  1.00  0.00     0.051 A 
ATOM     11  C   UNL     1       7.589  -1.669   0.315  1.00  0.00     0.166 A 
ATOM     12  C   UNL     1       7.886  -1.642  -1.027  1.00  0.00     0.165 A 
ATOM     13  O   UNL     1       8.223  -2.760   0.882  1.00  0.00    -0.454 OA
ATOM     14  O   UNL     1       8.714  -2.737  -1.278  1.00  0.00    -0.454 OA
ATOM     15  C   UNL     1       8.680  -3.615  -0.177  1.00  0.00     0.468 C 
ENDBRANCH   6   7
ENDBRANCH   1   6
TORSDOF 4
ENDMDL
