@<TRIPOS>MOLECULE
/home/cewinharhar/GITHUB/reincatalyze/data/processed/docking_pred/2023-May-17-1006_maxeplen10_maxtrainstep1000_seadep16_gamma099_lrac9e-4_lrcr1e-3_sub6/b658f69152bbaa0d4df6d0fc1d77222c9f34aa3c_ligand_6.pdbqt
 15 16 0 0 0
SMALL
GASTEIGER

@<TRIPOS>ATOM
      1  C          5.7050    1.4980   -0.2580 C.3     1  UNL1        0.1270
      2  C          5.1690    2.1340    0.9360 C.2     1  UNL1        0.3030
      3  O          4.2510    1.6970    1.6320 O.2     1  UNL1       -0.2520
      4  O          5.7470    3.3520    1.3310 O.3     1  UNL1       -0.4810
      5  H          6.1740    3.3660    2.2440 H       1  UNL1        0.2960
      6  C          7.1760    1.3550   -0.2530 C.3     1  UNL1        0.0470
      7  C          7.7530    0.2650   -1.0430 C.2     1  UNL1       -0.0430
      8  C          7.0100   -0.4110   -1.9980 C.2     1  UNL1        0.0080
      9  C          9.0420   -0.1470   -0.8300 C.2     1  UNL1        0.0540
     10  C          7.5400   -1.4600   -2.7150 C.2     1  UNL1        0.0510
     11  C          9.5950   -1.1970   -1.5380 C.2     1  UNL1        0.1660
     12  C          8.8470   -1.8570   -2.4830 C.2     1  UNL1        0.1650
     13  O         10.8520   -1.7750   -1.4930 O.2     1  UNL1       -0.4540
     14  O          9.6630   -2.8530   -3.0210 O.2     1  UNL1       -0.4540
     15  C         10.8000   -3.0200   -2.2050 C.3     1  UNL1        0.4680
@<TRIPOS>BOND
     1    14    12    1
     2    14    15    1
     3    10    12    2
     4    10     8    1
     5    12    11    1
     6    15    13    1
     7     8     7    2
     8    11    13    1
     9    11     9    2
    10     7     9    1
    11     7     6    1
    12     1     6    1
    13     1     2    1
    14     2     4    1
    15     2     3    2
    16     4     5    1
