@<TRIPOS>MOLECULE
/home/cewinharhar/GITHUB/reincatalyze/data/processed/docking_pred/2023-May-17-1006_maxeplen10_maxtrainstep1000_seadep16_gamma099_lrac9e-4_lrcr1e-3_sub6/b8d8050f43b71ccf975db7ed0a80e234855f027b_ligand_6.pdbqt
 15 16 0 0 0
SMALL
GASTEIGER

@<TRIPOS>ATOM
      1  C          5.4600    2.8560    0.1990 C.3     1  UNL1        0.1270
      2  C          6.2350    3.8020    0.9870 C.2     1  UNL1        0.3030
      3  O          6.3040    3.8230    2.2170 O.2     1  UNL1       -0.2520
      4  O          6.9680    4.7750    0.2890 O.3     1  UNL1       -0.4810
      5  H          7.6680    4.4310   -0.3510 H       1  UNL1        0.2960
      6  C          5.3210    1.5240    0.8250 C.3     1  UNL1        0.0470
      7  C          6.0900    0.4200    0.2480 C.2     1  UNL1       -0.0430
      8  C          6.5230   -0.6450    1.0220 C.2     1  UNL1        0.0080
      9  C          6.4400    0.4280   -1.0770 C.2     1  UNL1        0.0540
     10  C          7.2770   -1.6660    0.4880 C.2     1  UNL1        0.0510
     11  C          7.1950   -0.5860   -1.6350 C.2     1  UNL1        0.1660
     12  C          7.6160   -1.6360   -0.8550 C.2     1  UNL1        0.1650
     13  O          7.6570   -0.7840   -2.9240 O.2     1  UNL1       -0.4540
     14  O          8.3470   -2.4870   -1.6860 O.2     1  UNL1       -0.4540
     15  C          8.6480   -1.8230   -2.8920 C.3     1  UNL1        0.4680
@<TRIPOS>BOND
     1    13    15    1
     2    13    11    1
     3    15    14    1
     4    14    12    1
     5    11     9    1
     6    11    12    2
     7     9     7    2
     8    12    10    1
     9     5     4    1
    10     1     6    1
    11     1     2    1
    12     7     6    1
    13     7     8    1
    14     4     2    1
    15    10     8    2
    16     2     3    2
