MODEL 1
REMARK VINA RESULT:      -7.6      0.000      0.000
REMARK SMILES O=C(O)CCc1ccc2c(c1)OCO2
REMARK SMILES IDX 4 1 2 2 1 3 3 4 5 6 6 7 7 8 11 9 8 10 10 11 9 12 12 13 14 14
REMARK SMILES IDX 13 15
REMARK H PARENT 3 5
REMARK Flexibility Score: inf
ROOT
ATOM      1  C   UNL     1       4.727   1.879   0.696  1.00  0.00     0.127 C 
ENDROOT
BRANCH   1   2
ATOM      2  C   UNL     1       4.410   1.160   1.921  1.00  0.00     0.303 C 
ATOM      3  O   UNL     1       5.129   0.321   2.466  1.00  0.00    -0.252 OA
BRANCH   2   4
ATOM      4  O   UNL     1       3.180   1.445   2.535  1.00  0.00    -0.481 OA
ATOM      5  H   UNL     1       2.544   2.025   2.010  1.00  0.00     0.296 HD
ENDBRANCH   2   4
ENDBRANCH   1   2
BRANCH   1   6
ATOM      6  C   UNL     1       6.157   2.227   0.558  1.00  0.00     0.047 C 
BRANCH   6   7
ATOM      7  C   UNL     1       7.001   1.322  -0.226  1.00  0.00    -0.043 A 
ATOM      8  C   UNL     1       8.360   1.549  -0.379  1.00  0.00     0.008 A 
ATOM      9  C   UNL     1       6.460   0.239  -0.867  1.00  0.00     0.054 A 
ATOM     10  C   UNL     1       9.148   0.720  -1.145  1.00  0.00     0.051 A 
ATOM     11  C   UNL     1       7.232  -0.607  -1.640  1.00  0.00     0.166 A 
ATOM     12  C   UNL     1       8.578  -0.370  -1.782  1.00  0.00     0.165 A 
ATOM     13  O   UNL     1       6.908  -1.741  -2.365  1.00  0.00    -0.454 OA
ATOM     14  O   UNL     1       9.080  -1.378  -2.608  1.00  0.00    -0.454 OA
ATOM     15  C   UNL     1       8.011  -2.052  -3.230  1.00  0.00     0.468 C 
ENDBRANCH   6   7
ENDBRANCH   1   6
TORSDOF 4
ENDMDL
MODEL 2
REMARK VINA RESULT:      -7.6      2.140      2.545
REMARK SMILES O=C(O)CCc1ccc2c(c1)OCO2
REMARK SMILES IDX 4 1 2 2 1 3 3 4 5 6 6 7 7 8 11 9 8 10 10 11 9 12 12 13 14 14
REMARK SMILES IDX 13 15
REMARK H PARENT 3 5
REMARK Flexibility Score: inf
ROOT
ATOM      1  C   UNL     1       5.460   2.856   0.199  1.00  0.00     0.127 C 
ENDROOT
BRANCH   1   2
ATOM      2  C   UNL     1       6.235   3.802   0.987  1.00  0.00     0.303 C 
ATOM      3  O   UNL     1       6.304   3.823   2.217  1.00  0.00    -0.252 OA
BRANCH   2   4
ATOM      4  O   UNL     1       6.968   4.775   0.289  1.00  0.00    -0.481 OA
ATOM      5  H   UNL     1       7.668   4.431  -0.351  1.00  0.00     0.296 HD
ENDBRANCH   2   4
ENDBRANCH   1   2
BRANCH   1   6
ATOM      6  C   UNL     1       5.321   1.524   0.825  1.00  0.00     0.047 C 
BRANCH   6   7
ATOM      7  C   UNL     1       6.090   0.420   0.248  1.00  0.00    -0.043 A 
ATOM      8  C   UNL     1       6.523  -0.645   1.022  1.00  0.00     0.008 A 
ATOM      9  C   UNL     1       6.440   0.428  -1.077  1.00  0.00     0.054 A 
ATOM     10  C   UNL     1       7.277  -1.666   0.488  1.00  0.00     0.051 A 
ATOM     11  C   UNL     1       7.195  -0.586  -1.635  1.00  0.00     0.166 A 
ATOM     12  C   UNL     1       7.616  -1.636  -0.855  1.00  0.00     0.165 A 
ATOM     13  O   UNL     1       7.657  -0.784  -2.924  1.00  0.00    -0.454 OA
ATOM     14  O   UNL     1       8.347  -2.487  -1.686  1.00  0.00    -0.454 OA
ATOM     15  C   UNL     1       8.648  -1.823  -2.892  1.00  0.00     0.468 C 
ENDBRANCH   6   7
ENDBRANCH   1   6
TORSDOF 4
ENDMDL
MODEL 3
REMARK VINA RESULT:      -7.6      1.884      2.446
REMARK SMILES O=C(O)CCc1ccc2c(c1)OCO2
REMARK SMILES IDX 4 1 2 2 1 3 3 4 5 6 6 7 7 8 11 9 8 10 10 11 9 12 12 13 14 14
REMARK SMILES IDX 13 15
REMARK H PARENT 3 5
REMARK Flexibility Score: inf
ROOT
ATOM      1  C   UNL     1       6.415   1.182   0.701  1.00  0.00     0.127 C 
ENDROOT
BRANCH   1   2
ATOM      2  C   UNL     1       5.199   1.160   1.498  1.00  0.00     0.303 C 
ATOM      3  O   UNL     1       4.922   0.325   2.361  1.00  0.00    -0.252 OA
BRANCH   2   4
ATOM      4  O   UNL     1       4.258   2.176   1.266  1.00  0.00    -0.481 OA
ATOM      5  H   UNL     1       3.436   2.163   1.850  1.00  0.00     0.296 HD
ENDBRANCH   2   4
ENDBRANCH   1   2
BRANCH   1   6
ATOM      6  C   UNL     1       6.229   0.725  -0.692  1.00  0.00     0.047 C 
BRANCH   6   7
ATOM      7  C   UNL     1       6.992  -0.446  -1.129  1.00  0.00    -0.043 A 
ATOM      8  C   UNL     1       7.292  -0.658  -2.466  1.00  0.00     0.008 A 
ATOM      9  C   UNL     1       7.401  -1.392  -0.226  1.00  0.00     0.054 A 
ATOM     10  C   UNL     1       7.979  -1.777  -2.882  1.00  0.00     0.051 A 
ATOM     11  C   UNL     1       8.092  -2.522  -0.621  1.00  0.00     0.166 A 
ATOM     12  C   UNL     1       8.383  -2.719  -1.949  1.00  0.00     0.165 A 
ATOM     13  O   UNL     1       8.595  -3.590   0.101  1.00  0.00    -0.454 OA
ATOM     14  O   UNL     1       9.075  -3.928  -2.035  1.00  0.00    -0.454 OA
ATOM     15  C   UNL     1       8.944  -4.632  -0.822  1.00  0.00     0.468 C 
ENDBRANCH   6   7
ENDBRANCH   1   6
TORSDOF 4
ENDMDL
MODEL 4
REMARK VINA RESULT:      -7.5      1.424      5.370
REMARK SMILES O=C(O)CCc1ccc2c(c1)OCO2
REMARK SMILES IDX 4 1 2 2 1 3 3 4 5 6 6 7 7 8 11 9 8 10 10 11 9 12 12 13 14 14
REMARK SMILES IDX 13 15
REMARK H PARENT 3 5
REMARK Flexibility Score: inf
ROOT
ATOM      1  C   UNL     1       8.263  -0.196  -2.835  1.00  0.00     0.127 C 
ENDROOT
BRANCH   1   2
ATOM      2  C   UNL     1       8.499  -1.617  -3.041  1.00  0.00     0.303 C 
ATOM      3  O   UNL     1       9.586  -2.187  -2.927  1.00  0.00    -0.252 OA
BRANCH   2   4
ATOM      4  O   UNL     1       7.397  -2.408  -3.401  1.00  0.00    -0.481 OA
ATOM      5  H   UNL     1       6.761  -2.650  -2.657  1.00  0.00     0.296 HD
ENDBRANCH   2   4
ENDBRANCH   1   2
BRANCH   1   6
ATOM      6  C   UNL     1       8.713   0.302  -1.518  1.00  0.00     0.047 C 
BRANCH   6   7
ATOM      7  C   UNL     1       7.759   0.238  -0.408  1.00  0.00    -0.043 A 
ATOM      8  C   UNL     1       7.774  -0.809   0.501  1.00  0.00     0.008 A 
ATOM      9  C   UNL     1       6.793   1.198  -0.259  1.00  0.00     0.054 A 
ATOM     10  C   UNL     1       6.855  -0.889   1.523  1.00  0.00     0.051 A 
ATOM     11  C   UNL     1       5.862   1.138   0.760  1.00  0.00     0.166 A 
ATOM     12  C   UNL     1       5.889   0.095   1.655  1.00  0.00     0.165 A 
ATOM     13  O   UNL     1       4.816   1.979   1.099  1.00  0.00    -0.454 OA
ATOM     14  O   UNL     1       4.842   0.307   2.552  1.00  0.00    -0.454 OA
ATOM     15  C   UNL     1       3.977   1.295   2.042  1.00  0.00     0.468 C 
ENDBRANCH   6   7
ENDBRANCH   1   6
TORSDOF 4
ENDMDL
MODEL 5
REMARK VINA RESULT:      -7.5      2.496      2.834
REMARK SMILES O=C(O)CCc1ccc2c(c1)OCO2
REMARK SMILES IDX 4 1 2 2 1 3 3 4 5 6 6 7 7 8 11 9 8 10 10 11 9 12 12 13 14 14
REMARK SMILES IDX 13 15
REMARK H PARENT 3 5
REMARK Flexibility Score: inf
ROOT
ATOM      1  C   UNL     1       5.376   2.900   0.150  1.00  0.00     0.127 C 
ENDROOT
BRANCH   1   2
ATOM      2  C   UNL     1       6.266   3.833   0.823  1.00  0.00     0.303 C 
ATOM      3  O   UNL     1       6.854   4.775   0.289  1.00  0.00    -0.252 OA
BRANCH   2   4
ATOM      4  O   UNL     1       6.475   3.647   2.199  1.00  0.00    -0.481 OA
ATOM      5  H   UNL     1       6.340   4.457   2.783  1.00  0.00     0.296 HD
ENDBRANCH   2   4
ENDBRANCH   1   2
BRANCH   1   6
ATOM      6  C   UNL     1       5.333   1.558   0.770  1.00  0.00     0.047 C 
BRANCH   6   7
ATOM      7  C   UNL     1       6.184   0.517   0.191  1.00  0.00    -0.043 A 
ATOM      8  C   UNL     1       6.478   0.492  -1.164  1.00  0.00     0.008 A 
ATOM      9  C   UNL     1       6.685  -0.492   0.970  1.00  0.00     0.054 A 
ATOM     10  C   UNL     1       7.248  -0.507  -1.717  1.00  0.00     0.051 A 
ATOM     11  C   UNL     1       7.461  -1.504   0.437  1.00  0.00     0.166 A 
ATOM     12  C   UNL     1       7.745  -1.516  -0.907  1.00  0.00     0.165 A 
ATOM     13  O   UNL     1       8.063  -2.605   1.022  1.00  0.00    -0.454 OA
ATOM     14  O   UNL     1       8.534  -2.643  -1.142  1.00  0.00    -0.454 OA
ATOM     15  C   UNL     1       8.482  -3.496  -0.023  1.00  0.00     0.468 C 
ENDBRANCH   6   7
ENDBRANCH   1   6
TORSDOF 4
ENDMDL
