@<TRIPOS>MOLECULE
/home/cewinharhar/GITHUB/reincatalyze/data/processed/docking_pred/2023-May-17-1006_maxeplen10_maxtrainstep1000_seadep16_gamma099_lrac9e-4_lrcr1e-3_sub6/b8d8050f43b71ccf975db7ed0a80e234855f027b_ligand_6.pdbqt
 15 16 0 0 0
SMALL
GASTEIGER

@<TRIPOS>ATOM
      1  C          6.4150    1.1820    0.7010 C.3     1  UNL1        0.1270
      2  C          5.1990    1.1600    1.4980 C.2     1  UNL1        0.3030
      3  O          4.9220    0.3250    2.3610 O.2     1  UNL1       -0.2520
      4  O          4.2580    2.1760    1.2660 O.3     1  UNL1       -0.4810
      5  H          3.4360    2.1630    1.8500 H       1  UNL1        0.2960
      6  C          6.2290    0.7250   -0.6920 C.3     1  UNL1        0.0470
      7  C          6.9920   -0.4460   -1.1290 C.2     1  UNL1       -0.0430
      8  C          7.2920   -0.6580   -2.4660 C.2     1  UNL1        0.0080
      9  C          7.4010   -1.3920   -0.2260 C.2     1  UNL1        0.0540
     10  C          7.9790   -1.7770   -2.8820 C.2     1  UNL1        0.0510
     11  C          8.0920   -2.5220   -0.6210 C.2     1  UNL1        0.1660
     12  C          8.3830   -2.7190   -1.9490 C.2     1  UNL1        0.1650
     13  O          8.5950   -3.5900    0.1010 O.2     1  UNL1       -0.4540
     14  O          9.0750   -3.9280   -2.0350 O.2     1  UNL1       -0.4540
     15  C          8.9440   -4.6320   -0.8220 C.3     1  UNL1        0.4680
@<TRIPOS>BOND
     1    10     8    1
     2    10    12    2
     3     8     7    2
     4    14    12    1
     5    14    15    1
     6    12    11    1
     7     7     6    1
     8     7     9    1
     9    15    13    1
    10     6     1    1
    11    11     9    2
    12    11    13    1
    13     1     2    1
    14     4     2    1
    15     4     5    1
    16     2     3    2
