@<TRIPOS>MOLECULE
/home/cewinharhar/GITHUB/reincatalyze/data/processed/docking_pred/2023-May-17-1006_maxeplen10_maxtrainstep1000_seadep16_gamma099_lrac9e-4_lrcr1e-3_sub6/b8d8050f43b71ccf975db7ed0a80e234855f027b_ligand_6.pdbqt
 15 16 0 0 0
SMALL
GASTEIGER

@<TRIPOS>ATOM
      1  C          8.2630   -0.1960   -2.8350 C.3     1  UNL1        0.1270
      2  C          8.4990   -1.6170   -3.0410 C.2     1  UNL1        0.3030
      3  O          9.5860   -2.1870   -2.9270 O.2     1  UNL1       -0.2520
      4  O          7.3970   -2.4080   -3.4010 O.3     1  UNL1       -0.4810
      5  H          6.7610   -2.6500   -2.6570 H       1  UNL1        0.2960
      6  C          8.7130    0.3020   -1.5180 C.3     1  UNL1        0.0470
      7  C          7.7590    0.2380   -0.4080 C.2     1  UNL1       -0.0430
      8  C          7.7740   -0.8090    0.5010 C.2     1  UNL1        0.0080
      9  C          6.7930    1.1980   -0.2590 C.2     1  UNL1        0.0540
     10  C          6.8550   -0.8890    1.5230 C.2     1  UNL1        0.0510
     11  C          5.8620    1.1380    0.7600 C.2     1  UNL1        0.1660
     12  C          5.8890    0.0950    1.6550 C.2     1  UNL1        0.1650
     13  O          4.8160    1.9790    1.0990 O.2     1  UNL1       -0.4540
     14  O          4.8420    0.3070    2.5520 O.2     1  UNL1       -0.4540
     15  C          3.9770    1.2950    2.0420 C.3     1  UNL1        0.4680
@<TRIPOS>BOND
     1     4     2    1
     2     4     5    1
     3     2     3    2
     4     2     1    1
     5     1     6    1
     6     6     7    1
     7     7     9    2
     8     7     8    1
     9     9    11    1
    10     8    10    2
    11    11    13    1
    12    11    12    2
    13    13    15    1
    14    10    12    1
    15    12    14    1
    16    15    14    1
