@<TRIPOS>MOLECULE
/home/cewinharhar/GITHUB/reincatalyze/data/processed/docking_pred/2023-May-17-1006_maxeplen10_maxtrainstep1000_seadep16_gamma099_lrac9e-4_lrcr1e-3_sub6/b8d8050f43b71ccf975db7ed0a80e234855f027b_ligand_6.pdbqt
 15 16 0 0 0
SMALL
GASTEIGER

@<TRIPOS>ATOM
      1  C          5.3760    2.9000    0.1500 C.3     1  UNL1        0.1270
      2  C          6.2660    3.8330    0.8230 C.2     1  UNL1        0.3030
      3  O          6.8540    4.7750    0.2890 O.2     1  UNL1       -0.2520
      4  O          6.4750    3.6470    2.1990 O.3     1  UNL1       -0.4810
      5  H          6.3400    4.4570    2.7830 H       1  UNL1        0.2960
      6  C          5.3330    1.5580    0.7700 C.3     1  UNL1        0.0470
      7  C          6.1840    0.5170    0.1910 C.2     1  UNL1       -0.0430
      8  C          6.4780    0.4920   -1.1640 C.2     1  UNL1        0.0080
      9  C          6.6850   -0.4920    0.9700 C.2     1  UNL1        0.0540
     10  C          7.2480   -0.5070   -1.7170 C.2     1  UNL1        0.0510
     11  C          7.4610   -1.5040    0.4370 C.2     1  UNL1        0.1660
     12  C          7.7450   -1.5160   -0.9070 C.2     1  UNL1        0.1650
     13  O          8.0630   -2.6050    1.0220 O.2     1  UNL1       -0.4540
     14  O          8.5340   -2.6430   -1.1420 O.2     1  UNL1       -0.4540
     15  C          8.4820   -3.4960   -0.0230 C.3     1  UNL1        0.4680
@<TRIPOS>BOND
     1    10     8    1
     2    10    12    2
     3     8     7    2
     4    14    12    1
     5    14    15    1
     6    12    11    1
     7    15    13    1
     8     1     6    1
     9     1     2    1
    10     7     6    1
    11     7     9    1
    12     3     2    2
    13    11     9    2
    14    11    13    1
    15     2     4    1
    16     4     5    1
