@<TRIPOS>MOLECULE
/home/cewinharhar/GITHUB/reincatalyze/data/processed/docking_pred/2023-May-17-1006_maxeplen10_maxtrainstep1000_seadep16_gamma099_lrac9e-4_lrcr1e-3_sub6/b8d8050f43b71ccf975db7ed0a80e234855f027b_ligand_6.pdbqt
 15 16 0 0 0
SMALL
GASTEIGER

@<TRIPOS>ATOM
      1  C          4.7270    1.8790    0.6960 C.3     1  UNL1        0.1270
      2  C          4.4100    1.1600    1.9210 C.2     1  UNL1        0.3030
      3  O          5.1290    0.3210    2.4660 O.2     1  UNL1       -0.2520
      4  O          3.1800    1.4450    2.5350 O.3     1  UNL1       -0.4810
      5  H          2.5440    2.0250    2.0100 H       1  UNL1        0.2960
      6  C          6.1570    2.2270    0.5580 C.3     1  UNL1        0.0470
      7  C          7.0010    1.3220   -0.2260 C.2     1  UNL1       -0.0430
      8  C          8.3600    1.5490   -0.3790 C.2     1  UNL1        0.0080
      9  C          6.4600    0.2390   -0.8670 C.2     1  UNL1        0.0540
     10  C          9.1480    0.7200   -1.1450 C.2     1  UNL1        0.0510
     11  C          7.2320   -0.6070   -1.6400 C.2     1  UNL1        0.1660
     12  C          8.5780   -0.3700   -1.7820 C.2     1  UNL1        0.1650
     13  O          6.9080   -1.7410   -2.3650 O.2     1  UNL1       -0.4540
     14  O          9.0800   -1.3780   -2.6080 O.2     1  UNL1       -0.4540
     15  C          8.0110   -2.0520   -3.2300 C.3     1  UNL1        0.4680
@<TRIPOS>BOND
     1    15    14    1
     2    15    13    1
     3    14    12    1
     4    13    11    1
     5    12    11    2
     6    12    10    1
     7    11     9    1
     8    10     8    2
     9     9     7    2
    10     8     7    1
    11     7     6    1
    12     6     1    1
    13     1     2    1
    14     2     3    2
    15     2     4    1
    16     5     4    1
