@<TRIPOS>MOLECULE
/home/cewinharhar/GITHUB/reincatalyze/data/processed/docking_pred/2023-May-17-1006_maxeplen10_maxtrainstep1000_seadep16_gamma099_lrac9e-4_lrcr1e-3_sub6/b9a0748b4c4cb53be71f33acfe76cbadf25e0c0f_ligand_6.pdbqt
 15 16 0 0 0
SMALL
GASTEIGER

@<TRIPOS>ATOM
      1  C          6.4330    1.3330    0.6970 C.3     1  UNL1        0.1270
      2  C          5.1930    1.3430    1.4590 C.2     1  UNL1        0.3030
      3  O          4.2700    2.1460    1.3150 O.2     1  UNL1       -0.2520
      4  O          5.0330    0.3540    2.4420 O.3     1  UNL1       -0.4810
      5  H          4.6230    0.6540    3.3130 H       1  UNL1        0.2960
      6  C          6.2690    0.9140   -0.7110 C.3     1  UNL1        0.0470
      7  C          7.0080   -0.2700   -1.1560 C.2     1  UNL1       -0.0430
      8  C          7.2950   -0.4840   -2.4950 C.2     1  UNL1        0.0080
      9  C          7.4060   -1.2250   -0.2590 C.2     1  UNL1        0.0540
     10  C          7.9580   -1.6140   -2.9190 C.2     1  UNL1        0.0510
     11  C          8.0740   -2.3660   -0.6610 C.2     1  UNL1        0.1660
     12  C          8.3520   -2.5640   -1.9920 C.2     1  UNL1        0.1650
     13  O          8.5630   -3.4450    0.0550 O.2     1  UNL1       -0.4540
     14  O          9.0220   -3.7850   -2.0860 O.2     1  UNL1       -0.4540
     15  C          8.8860   -4.4910   -0.8740 C.3     1  UNL1        0.4680
@<TRIPOS>BOND
     1    10     8    1
     2    10    12    2
     3     8     7    2
     4    14    12    1
     5    14    15    1
     6    12    11    1
     7     7     6    1
     8     7     9    1
     9    15    13    1
    10     6     1    1
    11    11     9    2
    12    11    13    1
    13     1     2    1
    14     3     2    2
    15     2     4    1
    16     4     5    1
