@<TRIPOS>MOLECULE
/home/cewinharhar/GITHUB/reincatalyze/data/processed/docking_pred/2023-May-17-1006_maxeplen10_maxtrainstep1000_seadep16_gamma099_lrac9e-4_lrcr1e-3_sub6/b9a0748b4c4cb53be71f33acfe76cbadf25e0c0f_ligand_6.pdbqt
 15 16 0 0 0
SMALL
GASTEIGER

@<TRIPOS>ATOM
      1  C          8.3070   -0.3210   -2.8020 C.3     1  UNL1        0.1270
      2  C          8.4720   -1.7440   -3.0520 C.2     1  UNL1        0.3030
      3  O          9.5410   -2.3570   -3.0290 O.2     1  UNL1       -0.2520
      4  O          7.3160   -2.4850   -3.3440 O.3     1  UNL1       -0.4810
      5  H          6.6430   -2.5720   -2.5980 H       1  UNL1        0.2960
      6  C          8.7620    0.1100   -1.4620 C.3     1  UNL1        0.0470
      7  C          7.7830    0.0840   -0.3740 C.2     1  UNL1       -0.0430
      8  C          7.7280   -0.9680    0.5270 C.2     1  UNL1        0.0080
      9  C          6.8610    1.0880   -0.2370 C.2     1  UNL1        0.0540
     10  C          6.7850   -1.0110    1.5290 C.2     1  UNL1        0.0510
     11  C          5.9060    1.0670    0.7620 C.2     1  UNL1        0.1660
     12  C          5.8640    0.0180    1.6480 C.2     1  UNL1        0.1650
     13  O          4.8950    1.9540    1.0850 O.2     1  UNL1       -0.4540
     14  O          4.8090    0.2730    2.5250 O.2     1  UNL1       -0.4540
     15  C          4.0040    1.3050    2.0040 C.3     1  UNL1        0.4680
@<TRIPOS>BOND
     1     4     2    1
     2     4     5    1
     3     2     3    2
     4     2     1    1
     5     1     6    1
     6     6     7    1
     7     7     9    2
     8     7     8    1
     9     9    11    1
    10     8    10    2
    11    11    13    1
    12    11    12    2
    13    13    15    1
    14    10    12    1
    15    12    14    1
    16    15    14    1
