@<TRIPOS>MOLECULE
/home/cewinharhar/GITHUB/reincatalyze/data/processed/docking_pred/2023-May-17-1006_maxeplen10_maxtrainstep1000_seadep16_gamma099_lrac9e-4_lrcr1e-3_sub6/b9a0748b4c4cb53be71f33acfe76cbadf25e0c0f_ligand_6.pdbqt
 15 16 0 0 0
SMALL
GASTEIGER

@<TRIPOS>ATOM
      1  C          5.3580    2.8930    0.1660 C.3     1  UNL1        0.1270
      2  C          6.1090    3.9060    0.8910 C.2     1  UNL1        0.3030
      3  O          6.1010    4.0670    2.1130 O.2     1  UNL1       -0.2520
      4  O          6.9130    4.7750    0.1370 O.3     1  UNL1       -0.4810
      5  H          6.6480    4.9020   -0.8280 H       1  UNL1        0.2960
      6  C          5.3690    1.5620    0.8090 C.3     1  UNL1        0.0470
      7  C          6.1990    0.5220    0.1980 C.2     1  UNL1       -0.0430
      8  C          6.4610    0.5100   -1.1640 C.2     1  UNL1        0.0080
      9  C          6.7110   -0.4990    0.9530 C.2     1  UNL1        0.0540
     10  C          7.2110   -0.4870   -1.7450 C.2     1  UNL1        0.0510
     11  C          7.4670   -1.5110    0.3910 C.2     1  UNL1        0.1660
     12  C          7.7200   -1.5080   -0.9590 C.2     1  UNL1        0.1650
     13  O          8.0750   -2.6220    0.9490 O.2     1  UNL1       -0.4540
     14  O          8.4950   -2.6380   -1.2260 O.2     1  UNL1       -0.4540
     15  C          8.4630   -3.5040   -0.1150 C.3     1  UNL1        0.4680
@<TRIPOS>BOND
     1    10     8    1
     2    10    12    2
     3    14    12    1
     4    14    15    1
     5     8     7    2
     6    12    11    1
     7     5     4    1
     8    15    13    1
     9     4     2    1
    10     1     6    1
    11     1     2    1
    12     7     6    1
    13     7     9    1
    14    11    13    1
    15    11     9    2
    16     2     3    2
