@<TRIPOS>MOLECULE
/home/cewinharhar/GITHUB/reincatalyze/data/processed/docking_pred/2023-May-17-1006_maxeplen10_maxtrainstep1000_seadep16_gamma099_lrac9e-4_lrcr1e-3_sub6/b9a0748b4c4cb53be71f33acfe76cbadf25e0c0f_ligand_6.pdbqt
 15 16 0 0 0
SMALL
GASTEIGER

@<TRIPOS>ATOM
      1  C          4.7210    1.8710    0.6940 C.3     1  UNL1        0.1270
      2  C          4.4190    1.1490    1.9200 C.2     1  UNL1        0.3030
      3  O          5.1500    0.3180    2.4610 O.2     1  UNL1       -0.2520
      4  O          3.1900    1.4210    2.5410 O.3     1  UNL1       -0.4810
      5  H          2.5950    0.6260    2.7170 H       1  UNL1        0.2960
      6  C          6.1480    2.2290    0.5440 C.3     1  UNL1        0.0470
      7  C          6.9960    1.3220   -0.2320 C.2     1  UNL1       -0.0430
      8  C          8.3570    1.5430   -0.3720 C.2     1  UNL1        0.0080
      9  C          6.4570    0.2420   -0.8800 C.2     1  UNL1        0.0540
     10  C          9.1490    0.7120   -1.1320 C.2     1  UNL1        0.0510
     11  C          7.2320   -0.6070   -1.6470 C.2     1  UNL1        0.1660
     12  C          8.5810   -0.3750   -1.7760 C.2     1  UNL1        0.1650
     13  O          6.9100   -1.7380   -2.3770 O.2     1  UNL1       -0.4540
     14  O          9.0860   -1.3840   -2.5980 O.2     1  UNL1       -0.4540
     15  C          8.0200   -2.0520   -3.2310 C.3     1  UNL1        0.4680
@<TRIPOS>BOND
     1    15    14    1
     2    15    13    1
     3    14    12    1
     4    13    11    1
     5    12    11    2
     6    12    10    1
     7    11     9    1
     8    10     8    2
     9     9     7    2
    10     8     7    1
    11     7     6    1
    12     6     1    1
    13     1     2    1
    14     2     3    2
    15     2     4    1
    16     4     5    1
