MODEL 1
REMARK VINA RESULT:      -7.6      0.000      0.000
REMARK SMILES O=C(O)CCc1ccc2c(c1)OCO2
REMARK SMILES IDX 4 1 2 2 1 3 3 4 5 6 6 7 7 8 11 9 8 10 10 11 9 12 12 13 14 14
REMARK SMILES IDX 13 15
REMARK H PARENT 3 5
REMARK Flexibility Score: inf
ROOT
ATOM      1  C   UNL     1       5.407   2.868   0.139  1.00  0.00     0.127 C 
ENDROOT
BRANCH   1   2
ATOM      2  C   UNL     1       6.247   3.866   0.783  1.00  0.00     0.303 C 
ATOM      3  O   UNL     1       6.863   4.765   0.207  1.00  0.00    -0.252 OA
BRANCH   2   4
ATOM      4  O   UNL     1       6.369   3.802   2.180  1.00  0.00    -0.481 OA
ATOM      5  H   UNL     1       5.589   4.157   2.712  1.00  0.00     0.296 HD
ENDBRANCH   2   4
ENDBRANCH   1   2
BRANCH   1   6
ATOM      6  C   UNL     1       5.353   1.576   0.856  1.00  0.00     0.047 C 
BRANCH   6   7
ATOM      7  C   UNL     1       6.126   0.462   0.303  1.00  0.00    -0.043 A 
ATOM      8  C   UNL     1       6.606  -0.559   1.109  1.00  0.00     0.008 A 
ATOM      9  C   UNL     1       6.433   0.417  -1.031  1.00  0.00     0.054 A 
ATOM     10  C   UNL     1       7.363  -1.588   0.596  1.00  0.00     0.051 A 
ATOM     11  C   UNL     1       7.190  -0.607  -1.568  1.00  0.00     0.166 A 
ATOM     12  C   UNL     1       7.658  -1.612  -0.757  1.00  0.00     0.165 A 
ATOM     13  O   UNL     1       7.615  -0.854  -2.862  1.00  0.00    -0.454 OA
ATOM     14  O   UNL     1       8.380  -2.485  -1.573  1.00  0.00    -0.454 OA
ATOM     15  C   UNL     1       8.627  -1.871  -2.816  1.00  0.00     0.468 C 
ENDBRANCH   6   7
ENDBRANCH   1   6
TORSDOF 4
ENDMDL
MODEL 2
REMARK VINA RESULT:      -7.6      2.154      2.534
REMARK SMILES O=C(O)CCc1ccc2c(c1)OCO2
REMARK SMILES IDX 4 1 2 2 1 3 3 4 5 6 6 7 7 8 11 9 8 10 10 11 9 12 12 13 14 14
REMARK SMILES IDX 13 15
REMARK H PARENT 3 5
REMARK Flexibility Score: inf
ROOT
ATOM      1  C   UNL     1       4.721   1.871   0.694  1.00  0.00     0.127 C 
ENDROOT
BRANCH   1   2
ATOM      2  C   UNL     1       4.419   1.149   1.920  1.00  0.00     0.303 C 
ATOM      3  O   UNL     1       5.150   0.318   2.461  1.00  0.00    -0.252 OA
BRANCH   2   4
ATOM      4  O   UNL     1       3.190   1.421   2.541  1.00  0.00    -0.481 OA
ATOM      5  H   UNL     1       2.595   0.626   2.717  1.00  0.00     0.296 HD
ENDBRANCH   2   4
ENDBRANCH   1   2
BRANCH   1   6
ATOM      6  C   UNL     1       6.148   2.229   0.544  1.00  0.00     0.047 C 
BRANCH   6   7
ATOM      7  C   UNL     1       6.996   1.322  -0.232  1.00  0.00    -0.043 A 
ATOM      8  C   UNL     1       8.357   1.543  -0.372  1.00  0.00     0.008 A 
ATOM      9  C   UNL     1       6.457   0.242  -0.880  1.00  0.00     0.054 A 
ATOM     10  C   UNL     1       9.149   0.712  -1.132  1.00  0.00     0.051 A 
ATOM     11  C   UNL     1       7.232  -0.607  -1.647  1.00  0.00     0.166 A 
ATOM     12  C   UNL     1       8.581  -0.375  -1.776  1.00  0.00     0.165 A 
ATOM     13  O   UNL     1       6.910  -1.738  -2.377  1.00  0.00    -0.454 OA
ATOM     14  O   UNL     1       9.086  -1.384  -2.598  1.00  0.00    -0.454 OA
ATOM     15  C   UNL     1       8.020  -2.052  -3.231  1.00  0.00     0.468 C 
ENDBRANCH   6   7
ENDBRANCH   1   6
TORSDOF 4
ENDMDL
MODEL 3
REMARK VINA RESULT:      -7.5      1.802      5.271
REMARK SMILES O=C(O)CCc1ccc2c(c1)OCO2
REMARK SMILES IDX 4 1 2 2 1 3 3 4 5 6 6 7 7 8 11 9 8 10 10 11 9 12 12 13 14 14
REMARK SMILES IDX 13 15
REMARK H PARENT 3 5
REMARK Flexibility Score: inf
ROOT
ATOM      1  C   UNL     1       8.307  -0.321  -2.802  1.00  0.00     0.127 C 
ENDROOT
BRANCH   1   2
ATOM      2  C   UNL     1       8.472  -1.744  -3.052  1.00  0.00     0.303 C 
ATOM      3  O   UNL     1       9.541  -2.357  -3.029  1.00  0.00    -0.252 OA
BRANCH   2   4
ATOM      4  O   UNL     1       7.316  -2.485  -3.344  1.00  0.00    -0.481 OA
ATOM      5  H   UNL     1       6.643  -2.572  -2.598  1.00  0.00     0.296 HD
ENDBRANCH   2   4
ENDBRANCH   1   2
BRANCH   1   6
ATOM      6  C   UNL     1       8.762   0.110  -1.462  1.00  0.00     0.047 C 
BRANCH   6   7
ATOM      7  C   UNL     1       7.783   0.084  -0.374  1.00  0.00    -0.043 A 
ATOM      8  C   UNL     1       7.728  -0.968   0.527  1.00  0.00     0.008 A 
ATOM      9  C   UNL     1       6.861   1.088  -0.237  1.00  0.00     0.054 A 
ATOM     10  C   UNL     1       6.785  -1.011   1.529  1.00  0.00     0.051 A 
ATOM     11  C   UNL     1       5.906   1.067   0.762  1.00  0.00     0.166 A 
ATOM     12  C   UNL     1       5.864   0.018   1.648  1.00  0.00     0.165 A 
ATOM     13  O   UNL     1       4.895   1.954   1.085  1.00  0.00    -0.454 OA
ATOM     14  O   UNL     1       4.809   0.273   2.525  1.00  0.00    -0.454 OA
ATOM     15  C   UNL     1       4.004   1.305   2.004  1.00  0.00     0.468 C 
ENDBRANCH   6   7
ENDBRANCH   1   6
TORSDOF 4
ENDMDL
MODEL 4
REMARK VINA RESULT:      -7.4      1.953      2.861
REMARK SMILES O=C(O)CCc1ccc2c(c1)OCO2
REMARK SMILES IDX 4 1 2 2 1 3 3 4 5 6 6 7 7 8 11 9 8 10 10 11 9 12 12 13 14 14
REMARK SMILES IDX 13 15
REMARK H PARENT 3 5
REMARK Flexibility Score: inf
ROOT
ATOM      1  C   UNL     1       6.433   1.333   0.697  1.00  0.00     0.127 C 
ENDROOT
BRANCH   1   2
ATOM      2  C   UNL     1       5.193   1.343   1.459  1.00  0.00     0.303 C 
ATOM      3  O   UNL     1       4.270   2.146   1.315  1.00  0.00    -0.252 OA
BRANCH   2   4
ATOM      4  O   UNL     1       5.033   0.354   2.442  1.00  0.00    -0.481 OA
ATOM      5  H   UNL     1       4.623   0.654   3.313  1.00  0.00     0.296 HD
ENDBRANCH   2   4
ENDBRANCH   1   2
BRANCH   1   6
ATOM      6  C   UNL     1       6.269   0.914  -0.711  1.00  0.00     0.047 C 
BRANCH   6   7
ATOM      7  C   UNL     1       7.008  -0.270  -1.156  1.00  0.00    -0.043 A 
ATOM      8  C   UNL     1       7.295  -0.484  -2.495  1.00  0.00     0.008 A 
ATOM      9  C   UNL     1       7.406  -1.225  -0.259  1.00  0.00     0.054 A 
ATOM     10  C   UNL     1       7.958  -1.614  -2.919  1.00  0.00     0.051 A 
ATOM     11  C   UNL     1       8.074  -2.366  -0.661  1.00  0.00     0.166 A 
ATOM     12  C   UNL     1       8.352  -2.564  -1.992  1.00  0.00     0.165 A 
ATOM     13  O   UNL     1       8.563  -3.445   0.055  1.00  0.00    -0.454 OA
ATOM     14  O   UNL     1       9.022  -3.785  -2.086  1.00  0.00    -0.454 OA
ATOM     15  C   UNL     1       8.886  -4.491  -0.874  1.00  0.00     0.468 C 
ENDBRANCH   6   7
ENDBRANCH   1   6
TORSDOF 4
ENDMDL
