@<TRIPOS>MOLECULE
/home/cewinharhar/GITHUB/reincatalyze/data/processed/docking_pred/2023-May-17-1006_maxeplen10_maxtrainstep1000_seadep16_gamma099_lrac9e-4_lrcr1e-3_sub6/b9a0748b4c4cb53be71f33acfe76cbadf25e0c0f_ligand_6.pdbqt
 15 16 0 0 0
SMALL
GASTEIGER

@<TRIPOS>ATOM
      1  C          5.4070    2.8680    0.1390 C.3     1  UNL1        0.1270
      2  C          6.2470    3.8660    0.7830 C.2     1  UNL1        0.3030
      3  O          6.8630    4.7650    0.2070 O.2     1  UNL1       -0.2520
      4  O          6.3690    3.8020    2.1800 O.3     1  UNL1       -0.4810
      5  H          5.5890    4.1570    2.7120 H       1  UNL1        0.2960
      6  C          5.3530    1.5760    0.8560 C.3     1  UNL1        0.0470
      7  C          6.1260    0.4620    0.3030 C.2     1  UNL1       -0.0430
      8  C          6.6060   -0.5590    1.1090 C.2     1  UNL1        0.0080
      9  C          6.4330    0.4170   -1.0310 C.2     1  UNL1        0.0540
     10  C          7.3630   -1.5880    0.5960 C.2     1  UNL1        0.0510
     11  C          7.1900   -0.6070   -1.5680 C.2     1  UNL1        0.1660
     12  C          7.6580   -1.6120   -0.7570 C.2     1  UNL1        0.1650
     13  O          7.6150   -0.8540   -2.8620 O.2     1  UNL1       -0.4540
     14  O          8.3800   -2.4850   -1.5730 O.2     1  UNL1       -0.4540
     15  C          8.6270   -1.8710   -2.8160 C.3     1  UNL1        0.4680
@<TRIPOS>BOND
     1    13    15    1
     2    13    11    1
     3    15    14    1
     4    14    12    1
     5    11     9    1
     6    11    12    2
     7     9     7    2
     8    12    10    1
     9     1     2    1
    10     1     6    1
    11     3     2    2
    12     7     6    1
    13     7     8    1
    14    10     8    2
    15     2     4    1
    16     4     5    1
