@<TRIPOS>MOLECULE
/home/cewinharhar/GITHUB/reincatalyze/data/processed/docking_pred/2023-May-17-1006_maxeplen10_maxtrainstep1000_seadep16_gamma099_lrac9e-4_lrcr1e-3_sub6/ba254a63d1f23417312e0ffefa4719b754a9a4bf_ligand_6.pdbqt
 15 16 0 0 0
SMALL
GASTEIGER

@<TRIPOS>ATOM
      1  C          5.4640    2.8480    0.1420 C.3     1  UNL1        0.1270
      2  C          6.2850    3.8260    0.8370 C.2     1  UNL1        0.3030
      3  O          6.8690    4.7750    0.3120 O.2     1  UNL1       -0.2520
      4  O          6.4270    3.6770    2.2260 O.3     1  UNL1       -0.4810
      5  H          7.1670    3.0670    2.5360 H       1  UNL1        0.2960
      6  C          5.3720    1.5420    0.8300 C.3     1  UNL1        0.0470
      7  C          6.1400    0.4270    0.2720 C.2     1  UNL1       -0.0430
      8  C          6.6000   -0.6080    1.0710 C.2     1  UNL1        0.0080
      9  C          6.4620    0.3950   -1.0590 C.2     1  UNL1        0.0540
     10  C          7.3530   -1.6390    0.5550 C.2     1  UNL1        0.0510
     11  C          7.2160   -0.6290   -1.6000 C.2     1  UNL1        0.1660
     12  C          7.6640   -1.6490   -0.7960 C.2     1  UNL1        0.1650
     13  O          7.6530   -0.8650   -2.8910 O.2     1  UNL1       -0.4540
     14  O          8.3860   -2.5200   -1.6130 O.2     1  UNL1       -0.4540
     15  C          8.6550   -1.8930   -2.8460 C.3     1  UNL1        0.4680
@<TRIPOS>BOND
     1    13    15    1
     2    13    11    1
     3    15    14    1
     4    14    12    1
     5    11     9    1
     6    11    12    2
     7     9     7    2
     8    12    10    1
     9     1     6    1
    10     1     2    1
    11     7     6    1
    12     7     8    1
    13     3     2    2
    14    10     8    2
    15     2     4    1
    16     4     5    1
