@<TRIPOS>MOLECULE
/home/cewinharhar/GITHUB/reincatalyze/data/processed/docking_pred/2023-May-17-1006_maxeplen10_maxtrainstep1000_seadep16_gamma099_lrac9e-4_lrcr1e-3_sub6/ba254a63d1f23417312e0ffefa4719b754a9a4bf_ligand_6.pdbqt
 15 16 0 0 0
SMALL
GASTEIGER

@<TRIPOS>ATOM
      1  C          4.7220    1.8670    0.7140 C.3     1  UNL1        0.1270
      2  C          4.4020    1.1430    1.9340 C.2     1  UNL1        0.3030
      3  O          5.1160    0.2980    2.4750 O.2     1  UNL1       -0.2520
      4  O          3.1740    1.4310    2.5500 O.3     1  UNL1       -0.4810
      5  H          2.5410    2.0180    2.0290 H       1  UNL1        0.2960
      6  C          6.1530    2.2140    0.5800 C.3     1  UNL1        0.0470
      7  C          6.9970    1.3150   -0.2100 C.2     1  UNL1       -0.0430
      8  C          8.3550    1.5470   -0.3670 C.2     1  UNL1        0.0080
      9  C          6.4580    0.2330   -0.8520 C.2     1  UNL1        0.0540
     10  C          9.1430    0.7230   -1.1380 C.2     1  UNL1        0.0510
     11  C          7.2290   -0.6080   -1.6320 C.2     1  UNL1        0.1660
     12  C          8.5740   -0.3670   -1.7770 C.2     1  UNL1        0.1650
     13  O          6.9060   -1.7400   -2.3600 O.2     1  UNL1       -0.4540
     14  O          9.0760   -1.3690   -2.6090 O.2     1  UNL1       -0.4540
     15  C          8.0070   -2.0450   -3.2300 C.3     1  UNL1        0.4680
@<TRIPOS>BOND
     1    15    14    1
     2    15    13    1
     3    14    12    1
     4    13    11    1
     5    12    11    2
     6    12    10    1
     7    11     9    1
     8    10     8    2
     9     9     7    2
    10     8     7    1
    11     7     6    1
    12     6     1    1
    13     1     2    1
    14     2     3    2
    15     2     4    1
    16     5     4    1
