@<TRIPOS>MOLECULE
/home/cewinharhar/GITHUB/reincatalyze/data/processed/docking_pred/2023-May-17-1006_maxeplen10_maxtrainstep1000_seadep16_gamma099_lrac9e-4_lrcr1e-3_sub6/ba254a63d1f23417312e0ffefa4719b754a9a4bf_ligand_6.pdbqt
 15 16 0 0 0
SMALL
GASTEIGER

@<TRIPOS>ATOM
      1  C          6.4490    1.2420    0.7350 C.3     1  UNL1        0.1270
      2  C          5.2480    1.1590    1.5510 C.2     1  UNL1        0.3030
      3  O          5.0320    0.3180    2.4260 O.2     1  UNL1       -0.2520
      4  O          4.2470    2.1170    1.3250 O.3     1  UNL1       -0.4810
      5  H          4.3760    3.0110    1.7730 H       1  UNL1        0.2960
      6  C          6.2560    0.7990   -0.6630 C.3     1  UNL1        0.0470
      7  C          6.9980   -0.3840   -1.1050 C.2     1  UNL1       -0.0430
      8  C          7.2680   -0.6100   -2.4460 C.2     1  UNL1        0.0080
      9  C          7.4140   -1.3280   -0.2040 C.2     1  UNL1        0.0540
     10  C          7.9330   -1.7400   -2.8670 C.2     1  UNL1        0.0510
     11  C          8.0840   -2.4690   -0.6030 C.2     1  UNL1        0.1660
     12  C          8.3460   -2.6790   -1.9360 C.2     1  UNL1        0.1650
     13  O          8.5890   -3.5370    0.1170 O.2     1  UNL1       -0.4540
     14  O          9.0230   -3.8960   -2.0260 O.2     1  UNL1       -0.4540
     15  C          8.9070   -4.5900   -0.8050 C.3     1  UNL1        0.4680
@<TRIPOS>BOND
     1    10     8    1
     2    10    12    2
     3     8     7    2
     4    14    12    1
     5    14    15    1
     6    12    11    1
     7     7     6    1
     8     7     9    1
     9    15    13    1
    10     6     1    1
    11    11     9    2
    12    11    13    1
    13     1     2    1
    14     4     2    1
    15     4     5    1
    16     2     3    2
