@<TRIPOS>MOLECULE
/home/cewinharhar/GITHUB/reincatalyze/data/processed/docking_pred/2023-May-17-1006_maxeplen10_maxtrainstep1000_seadep16_gamma099_lrac9e-4_lrcr1e-3_sub6/ba254a63d1f23417312e0ffefa4719b754a9a4bf_ligand_6.pdbqt
 15 16 0 0 0
SMALL
GASTEIGER

@<TRIPOS>ATOM
      1  C          5.3850    2.8350    0.3740 C.3     1  UNL1        0.1270
      2  C          6.2430    3.7570    1.1000 C.2     1  UNL1        0.3030
      3  O          6.4710    3.7240    2.3110 O.2     1  UNL1       -0.2520
      4  O          6.8670    4.7750    0.3600 O.3     1  UNL1       -0.4810
      5  H          6.8910    5.6860    0.7900 H       1  UNL1        0.2960
      6  C          5.3570    1.4690    0.9400 C.3     1  UNL1        0.0470
      7  C          6.2000    0.4550    0.3030 C.2     1  UNL1       -0.0430
      8  C          6.4740    0.4890   -1.0560 C.2     1  UNL1        0.0080
      9  C          6.7140   -0.5860    1.0300 C.2     1  UNL1        0.0540
     10  C          7.2370   -0.4840   -1.6630 C.2     1  UNL1        0.0510
     11  C          7.4830   -1.5730    0.4420 C.2     1  UNL1        0.1660
     12  C          7.7470   -1.5260   -0.9050 C.2     1  UNL1        0.1650
     13  O          8.0950   -2.6960    0.9700 O.2     1  UNL1       -0.4540
     14  O          8.5330   -2.6400   -1.2010 O.2     1  UNL1       -0.4540
     15  C          8.4990   -3.5410   -0.1190 C.3     1  UNL1        0.4680
@<TRIPOS>BOND
     1    10     8    1
     2    10    12    2
     3    14    12    1
     4    14    15    1
     5     8     7    2
     6    12    11    1
     7    15    13    1
     8     7     6    1
     9     7     9    1
    10     4     5    1
    11     4     2    1
    12     1     6    1
    13     1     2    1
    14    11    13    1
    15    11     9    2
    16     2     3    2
