MODEL 1
REMARK VINA RESULT:      -7.6      0.000      0.000
REMARK SMILES O=C(O)CCc1ccc2c(c1)OCO2
REMARK SMILES IDX 4 1 2 2 1 3 3 4 5 6 6 7 7 8 11 9 8 10 10 11 9 12 12 13 14 14
REMARK SMILES IDX 13 15
REMARK H PARENT 3 5
REMARK Flexibility Score: inf
ROOT
ATOM      1  C   UNL     1       5.464   2.848   0.142  1.00  0.00     0.127 C 
ENDROOT
BRANCH   1   2
ATOM      2  C   UNL     1       6.285   3.826   0.837  1.00  0.00     0.303 C 
ATOM      3  O   UNL     1       6.869   4.775   0.312  1.00  0.00    -0.252 OA
BRANCH   2   4
ATOM      4  O   UNL     1       6.427   3.677   2.226  1.00  0.00    -0.481 OA
ATOM      5  H   UNL     1       7.167   3.067   2.536  1.00  0.00     0.296 HD
ENDBRANCH   2   4
ENDBRANCH   1   2
BRANCH   1   6
ATOM      6  C   UNL     1       5.372   1.542   0.830  1.00  0.00     0.047 C 
BRANCH   6   7
ATOM      7  C   UNL     1       6.140   0.427   0.272  1.00  0.00    -0.043 A 
ATOM      8  C   UNL     1       6.600  -0.608   1.071  1.00  0.00     0.008 A 
ATOM      9  C   UNL     1       6.462   0.395  -1.059  1.00  0.00     0.054 A 
ATOM     10  C   UNL     1       7.353  -1.639   0.555  1.00  0.00     0.051 A 
ATOM     11  C   UNL     1       7.216  -0.629  -1.600  1.00  0.00     0.166 A 
ATOM     12  C   UNL     1       7.664  -1.649  -0.796  1.00  0.00     0.165 A 
ATOM     13  O   UNL     1       7.653  -0.865  -2.891  1.00  0.00    -0.454 OA
ATOM     14  O   UNL     1       8.386  -2.520  -1.613  1.00  0.00    -0.454 OA
ATOM     15  C   UNL     1       8.655  -1.893  -2.846  1.00  0.00     0.468 C 
ENDBRANCH   6   7
ENDBRANCH   1   6
TORSDOF 4
ENDMDL
MODEL 2
REMARK VINA RESULT:      -7.5      2.138      2.537
REMARK SMILES O=C(O)CCc1ccc2c(c1)OCO2
REMARK SMILES IDX 4 1 2 2 1 3 3 4 5 6 6 7 7 8 11 9 8 10 10 11 9 12 12 13 14 14
REMARK SMILES IDX 13 15
REMARK H PARENT 3 5
REMARK Flexibility Score: inf
ROOT
ATOM      1  C   UNL     1       4.722   1.867   0.714  1.00  0.00     0.127 C 
ENDROOT
BRANCH   1   2
ATOM      2  C   UNL     1       4.402   1.143   1.934  1.00  0.00     0.303 C 
ATOM      3  O   UNL     1       5.116   0.298   2.475  1.00  0.00    -0.252 OA
BRANCH   2   4
ATOM      4  O   UNL     1       3.174   1.431   2.550  1.00  0.00    -0.481 OA
ATOM      5  H   UNL     1       2.541   2.018   2.029  1.00  0.00     0.296 HD
ENDBRANCH   2   4
ENDBRANCH   1   2
BRANCH   1   6
ATOM      6  C   UNL     1       6.153   2.214   0.580  1.00  0.00     0.047 C 
BRANCH   6   7
ATOM      7  C   UNL     1       6.997   1.315  -0.210  1.00  0.00    -0.043 A 
ATOM      8  C   UNL     1       8.355   1.547  -0.367  1.00  0.00     0.008 A 
ATOM      9  C   UNL     1       6.458   0.233  -0.852  1.00  0.00     0.054 A 
ATOM     10  C   UNL     1       9.143   0.723  -1.138  1.00  0.00     0.051 A 
ATOM     11  C   UNL     1       7.229  -0.608  -1.632  1.00  0.00     0.166 A 
ATOM     12  C   UNL     1       8.574  -0.367  -1.777  1.00  0.00     0.165 A 
ATOM     13  O   UNL     1       6.906  -1.740  -2.360  1.00  0.00    -0.454 OA
ATOM     14  O   UNL     1       9.076  -1.369  -2.609  1.00  0.00    -0.454 OA
ATOM     15  C   UNL     1       8.007  -2.045  -3.230  1.00  0.00     0.468 C 
ENDBRANCH   6   7
ENDBRANCH   1   6
TORSDOF 4
ENDMDL
MODEL 3
REMARK VINA RESULT:      -7.5      1.978      2.972
REMARK SMILES O=C(O)CCc1ccc2c(c1)OCO2
REMARK SMILES IDX 4 1 2 2 1 3 3 4 5 6 6 7 7 8 11 9 8 10 10 11 9 12 12 13 14 14
REMARK SMILES IDX 13 15
REMARK H PARENT 3 5
REMARK Flexibility Score: inf
ROOT
ATOM      1  C   UNL     1       6.449   1.242   0.735  1.00  0.00     0.127 C 
ENDROOT
BRANCH   1   2
ATOM      2  C   UNL     1       5.248   1.159   1.551  1.00  0.00     0.303 C 
ATOM      3  O   UNL     1       5.032   0.318   2.426  1.00  0.00    -0.252 OA
BRANCH   2   4
ATOM      4  O   UNL     1       4.247   2.117   1.325  1.00  0.00    -0.481 OA
ATOM      5  H   UNL     1       4.376   3.011   1.773  1.00  0.00     0.296 HD
ENDBRANCH   2   4
ENDBRANCH   1   2
BRANCH   1   6
ATOM      6  C   UNL     1       6.256   0.799  -0.663  1.00  0.00     0.047 C 
BRANCH   6   7
ATOM      7  C   UNL     1       6.998  -0.384  -1.105  1.00  0.00    -0.043 A 
ATOM      8  C   UNL     1       7.268  -0.610  -2.446  1.00  0.00     0.008 A 
ATOM      9  C   UNL     1       7.414  -1.328  -0.204  1.00  0.00     0.054 A 
ATOM     10  C   UNL     1       7.933  -1.740  -2.867  1.00  0.00     0.051 A 
ATOM     11  C   UNL     1       8.084  -2.469  -0.603  1.00  0.00     0.166 A 
ATOM     12  C   UNL     1       8.346  -2.679  -1.936  1.00  0.00     0.165 A 
ATOM     13  O   UNL     1       8.589  -3.537   0.117  1.00  0.00    -0.454 OA
ATOM     14  O   UNL     1       9.023  -3.896  -2.026  1.00  0.00    -0.454 OA
ATOM     15  C   UNL     1       8.907  -4.590  -0.805  1.00  0.00     0.468 C 
ENDBRANCH   6   7
ENDBRANCH   1   6
TORSDOF 4
ENDMDL
MODEL 4
REMARK VINA RESULT:      -7.4      1.785      5.276
REMARK SMILES O=C(O)CCc1ccc2c(c1)OCO2
REMARK SMILES IDX 4 1 2 2 1 3 3 4 5 6 6 7 7 8 11 9 8 10 10 11 9 12 12 13 14 14
REMARK SMILES IDX 13 15
REMARK H PARENT 3 5
REMARK Flexibility Score: inf
ROOT
ATOM      1  C   UNL     1       8.308  -0.329  -2.860  1.00  0.00     0.127 C 
ENDROOT
BRANCH   1   2
ATOM      2  C   UNL     1       8.473  -1.758  -3.073  1.00  0.00     0.303 C 
ATOM      3  O   UNL     1       9.542  -2.370  -3.034  1.00  0.00    -0.252 OA
BRANCH   2   4
ATOM      4  O   UNL     1       7.318  -2.507  -3.346  1.00  0.00    -0.481 OA
ATOM      5  H   UNL     1       6.866  -2.934  -2.552  1.00  0.00     0.296 HD
ENDBRANCH   2   4
ENDBRANCH   1   2
BRANCH   1   6
ATOM      6  C   UNL     1       8.759   0.136  -1.531  1.00  0.00     0.047 C 
BRANCH   6   7
ATOM      7  C   UNL     1       7.789   0.096  -0.434  1.00  0.00    -0.043 A 
ATOM      8  C   UNL     1       7.738  -0.972   0.449  1.00  0.00     0.008 A 
ATOM      9  C   UNL     1       6.873   1.101  -0.272  1.00  0.00     0.054 A 
ATOM     10  C   UNL     1       6.803  -1.028   1.459  1.00  0.00     0.051 A 
ATOM     11  C   UNL     1       5.926   1.066   0.735  1.00  0.00     0.166 A 
ATOM     12  C   UNL     1       5.888   0.002   1.603  1.00  0.00     0.165 A 
ATOM     13  O   UNL     1       4.922   1.952   1.082  1.00  0.00    -0.454 OA
ATOM     14  O   UNL     1       4.841   0.246   2.494  1.00  0.00    -0.454 OA
ATOM     15  C   UNL     1       4.036   1.291   1.998  1.00  0.00     0.468 C 
ENDBRANCH   6   7
ENDBRANCH   1   6
TORSDOF 4
ENDMDL
MODEL 5
REMARK VINA RESULT:      -7.4      0.927      2.099
REMARK SMILES O=C(O)CCc1ccc2c(c1)OCO2
REMARK SMILES IDX 4 1 2 2 1 3 3 4 5 6 6 7 7 8 11 9 8 10 10 11 9 12 12 13 14 14
REMARK SMILES IDX 13 15
REMARK H PARENT 3 5
REMARK Flexibility Score: inf
ROOT
ATOM      1  C   UNL     1       5.385   2.835   0.374  1.00  0.00     0.127 C 
ENDROOT
BRANCH   1   2
ATOM      2  C   UNL     1       6.243   3.757   1.100  1.00  0.00     0.303 C 
ATOM      3  O   UNL     1       6.471   3.724   2.311  1.00  0.00    -0.252 OA
BRANCH   2   4
ATOM      4  O   UNL     1       6.867   4.775   0.360  1.00  0.00    -0.481 OA
ATOM      5  H   UNL     1       6.891   5.686   0.790  1.00  0.00     0.296 HD
ENDBRANCH   2   4
ENDBRANCH   1   2
BRANCH   1   6
ATOM      6  C   UNL     1       5.357   1.469   0.940  1.00  0.00     0.047 C 
BRANCH   6   7
ATOM      7  C   UNL     1       6.200   0.455   0.303  1.00  0.00    -0.043 A 
ATOM      8  C   UNL     1       6.474   0.489  -1.056  1.00  0.00     0.008 A 
ATOM      9  C   UNL     1       6.714  -0.586   1.030  1.00  0.00     0.054 A 
ATOM     10  C   UNL     1       7.237  -0.484  -1.663  1.00  0.00     0.051 A 
ATOM     11  C   UNL     1       7.483  -1.573   0.442  1.00  0.00     0.166 A 
ATOM     12  C   UNL     1       7.747  -1.526  -0.905  1.00  0.00     0.165 A 
ATOM     13  O   UNL     1       8.095  -2.696   0.970  1.00  0.00    -0.454 OA
ATOM     14  O   UNL     1       8.533  -2.640  -1.201  1.00  0.00    -0.454 OA
ATOM     15  C   UNL     1       8.499  -3.541  -0.119  1.00  0.00     0.468 C 
ENDBRANCH   6   7
ENDBRANCH   1   6
TORSDOF 4
ENDMDL
