@<TRIPOS>MOLECULE
/home/cewinharhar/GITHUB/reincatalyze/data/processed/docking_pred/2023-May-17-1006_maxeplen10_maxtrainstep1000_seadep16_gamma099_lrac9e-4_lrcr1e-3_sub6/ba254a63d1f23417312e0ffefa4719b754a9a4bf_ligand_6.pdbqt
 15 16 0 0 0
SMALL
GASTEIGER

@<TRIPOS>ATOM
      1  C          8.3080   -0.3290   -2.8600 C.3     1  UNL1        0.1270
      2  C          8.4730   -1.7580   -3.0730 C.2     1  UNL1        0.3030
      3  O          9.5420   -2.3700   -3.0340 O.2     1  UNL1       -0.2520
      4  O          7.3180   -2.5070   -3.3460 O.3     1  UNL1       -0.4810
      5  H          6.8660   -2.9340   -2.5520 H       1  UNL1        0.2960
      6  C          8.7590    0.1360   -1.5310 C.3     1  UNL1        0.0470
      7  C          7.7890    0.0960   -0.4340 C.2     1  UNL1       -0.0430
      8  C          7.7380   -0.9720    0.4490 C.2     1  UNL1        0.0080
      9  C          6.8730    1.1010   -0.2720 C.2     1  UNL1        0.0540
     10  C          6.8030   -1.0280    1.4590 C.2     1  UNL1        0.0510
     11  C          5.9260    1.0660    0.7350 C.2     1  UNL1        0.1660
     12  C          5.8880    0.0020    1.6030 C.2     1  UNL1        0.1650
     13  O          4.9220    1.9520    1.0820 O.2     1  UNL1       -0.4540
     14  O          4.8410    0.2460    2.4940 O.2     1  UNL1       -0.4540
     15  C          4.0360    1.2910    1.9980 C.3     1  UNL1        0.4680
@<TRIPOS>BOND
     1     4     2    1
     2     4     5    1
     3     2     3    2
     4     2     1    1
     5     1     6    1
     6     6     7    1
     7     7     9    2
     8     7     8    1
     9     9    11    1
    10     8    10    2
    11    11    13    1
    12    11    12    2
    13    13    15    1
    14    10    12    1
    15    12    14    1
    16    15    14    1
