@<TRIPOS>MOLECULE
/home/cewinharhar/GITHUB/reincatalyze/data/processed/docking_pred/2023-May-17-1006_maxeplen10_maxtrainstep1000_seadep16_gamma099_lrac9e-4_lrcr1e-3_sub6/bae690ffab80532c90b6f683492bf7de3cce581e_ligand_6.pdbqt
 15 16 0 0 0
SMALL
GASTEIGER

@<TRIPOS>ATOM
      1  C          5.4360    2.8740    0.1060 C.3     1  UNL1        0.1270
      2  C          6.2590    3.8590    0.7900 C.2     1  UNL1        0.3030
      3  O          6.9120    4.7510    0.2450 O.2     1  UNL1       -0.2520
      4  O          6.3160    3.7900    2.1910 O.3     1  UNL1       -0.4810
      5  H          7.0610    4.3070    2.6320 H       1  UNL1        0.2960
      6  C          5.3730    1.5650    0.7910 C.3     1  UNL1        0.0470
      7  C          6.1470    0.4620    0.2180 C.2     1  UNL1       -0.0430
      8  C          6.5870   -0.5970    0.9970 C.2     1  UNL1        0.0080
      9  C          6.4950    0.4660   -1.1070 C.2     1  UNL1        0.0540
     10  C          7.3460   -1.6160    0.4660 C.2     1  UNL1        0.0510
     11  C          7.2550   -0.5470   -1.6620 C.2     1  UNL1        0.1660
     12  C          7.6830   -1.5910   -0.8780 C.2     1  UNL1        0.1650
     13  O          7.7160   -0.7490   -2.9510 O.2     1  UNL1       -0.4540
     14  O          8.4170   -2.4410   -1.7050 O.2     1  UNL1       -0.4540
     15  C          8.7130   -1.7820   -2.9150 C.3     1  UNL1        0.4680
@<TRIPOS>BOND
     1    13    15    1
     2    13    11    1
     3    15    14    1
     4    14    12    1
     5    11     9    1
     6    11    12    2
     7     9     7    2
     8    12    10    1
     9     1     2    1
    10     1     6    1
    11     7     6    1
    12     7     8    1
    13     3     2    2
    14    10     8    2
    15     2     4    1
    16     4     5    1
