@<TRIPOS>MOLECULE
/home/cewinharhar/GITHUB/reincatalyze/data/processed/docking_pred/2023-May-17-1006_maxeplen10_maxtrainstep1000_seadep16_gamma099_lrac9e-4_lrcr1e-3_sub6/bae690ffab80532c90b6f683492bf7de3cce581e_ligand_6.pdbqt
 15 16 0 0 0
SMALL
GASTEIGER

@<TRIPOS>ATOM
      1  C          8.2980   -0.3250   -2.8500 C.3     1  UNL1        0.1270
      2  C          8.4650   -1.7530   -3.0710 C.2     1  UNL1        0.3030
      3  O          9.5340   -2.3640   -3.0330 O.2     1  UNL1       -0.2520
      4  O          7.3110   -2.5010   -3.3530 O.3     1  UNL1       -0.4810
      5  H          6.4890   -1.9730   -3.6050 H       1  UNL1        0.2960
      6  C          8.7610    0.1350   -1.5230 C.3     1  UNL1        0.0470
      7  C          7.7980    0.0990   -0.4200 C.2     1  UNL1       -0.0430
      8  C          7.7700   -0.9520    0.4840 C.2     1  UNL1        0.0080
      9  C          6.8650    1.0900   -0.2730 C.2     1  UNL1        0.0540
     10  C          6.8420   -1.0050    1.5000 C.2     1  UNL1        0.0510
     11  C          5.9240    1.0580    0.7390 C.2     1  UNL1        0.1660
     12  C          5.9090    0.0110    1.6290 C.2     1  UNL1        0.1650
     13  O          4.9050    1.9330    1.0750 O.2     1  UNL1       -0.4540
     14  O          4.8630    0.2540    2.5200 O.2     1  UNL1       -0.4540
     15  C          4.0360    1.2740    2.0080 C.3     1  UNL1        0.4680
@<TRIPOS>BOND
     1     5     4    1
     2     4     2    1
     3     2     3    2
     4     2     1    1
     5     1     6    1
     6     6     7    1
     7     7     9    2
     8     7     8    1
     9     9    11    1
    10     8    10    2
    11    11    13    1
    12    11    12    2
    13    13    15    1
    14    10    12    1
    15    12    14    1
    16    15    14    1
