@<TRIPOS>MOLECULE
/home/cewinharhar/GITHUB/reincatalyze/data/processed/docking_pred/2023-May-17-1006_maxeplen10_maxtrainstep1000_seadep16_gamma099_lrac9e-4_lrcr1e-3_sub6/bae690ffab80532c90b6f683492bf7de3cce581e_ligand_6.pdbqt
 15 16 0 0 0
SMALL
GASTEIGER

@<TRIPOS>ATOM
      1  C          6.4230    1.3280    0.6830 C.3     1  UNL1        0.1270
      2  C          5.2900    1.1420    1.5760 C.2     1  UNL1        0.3030
      3  O          5.1940    0.2700    2.4420 O.2     1  UNL1       -0.2520
      4  O          4.2120    2.0310    1.4420 O.3     1  UNL1       -0.4810
      5  H          3.3520    1.6380    1.0910 H       1  UNL1        0.2960
      6  C          6.1900    0.8380   -0.6920 C.3     1  UNL1        0.0470
      7  C          6.9590   -0.3260   -1.1360 C.2     1  UNL1       -0.0430
      8  C          7.2730   -0.5210   -2.4720 C.2     1  UNL1        0.0080
      9  C          7.3590   -1.2830   -0.2420 C.2     1  UNL1        0.0540
     10  C          7.9650   -1.6340   -2.8960 C.2     1  UNL1        0.0510
     11  C          8.0550   -2.4080   -0.6440 C.2     1  UNL1        0.1660
     12  C          8.3600   -2.5870   -1.9720 C.2     1  UNL1        0.1650
     13  O          8.5510   -3.4850    0.0690 O.2     1  UNL1       -0.4540
     14  O          9.0540   -3.7940   -2.0660 O.2     1  UNL1       -0.4540
     15  C          8.9100   -4.5150   -0.8640 C.3     1  UNL1        0.4680
@<TRIPOS>BOND
     1    10     8    1
     2    10    12    2
     3     8     7    2
     4    14    12    1
     5    14    15    1
     6    12    11    1
     7     7     6    1
     8     7     9    1
     9    15    13    1
    10     6     1    1
    11    11     9    2
    12    11    13    1
    13     1     2    1
    14     5     4    1
    15     4     2    1
    16     2     3    2
