@<TRIPOS>MOLECULE
/home/cewinharhar/GITHUB/reincatalyze/data/processed/docking_pred/2023-May-17-1006_maxeplen10_maxtrainstep1000_seadep16_gamma099_lrac9e-4_lrcr1e-3_sub6/bb509c9d750c31c787a0dfaad7ceec12964b61ea_ligand_6.pdbqt
 15 16 0 0 0
SMALL
GASTEIGER

@<TRIPOS>ATOM
      1  C          4.7030    1.8760    0.6910 C.3     1  UNL1        0.1270
      2  C          4.4110    1.1510    1.9180 C.2     1  UNL1        0.3030
      3  O          5.1480    0.3220    2.4540 O.2     1  UNL1       -0.2520
      4  O          3.1850    1.4180    2.5480 O.3     1  UNL1       -0.4810
      5  H          2.3560    1.1650    2.0320 H       1  UNL1        0.2960
      6  C          6.1280    2.2400    0.5340 C.3     1  UNL1        0.0470
      7  C          6.9780    1.3280   -0.2350 C.2     1  UNL1       -0.0430
      8  C          8.3430    1.5400   -0.3570 C.2     1  UNL1        0.0080
      9  C          6.4390    0.2530   -0.8910 C.2     1  UNL1        0.0540
     10  C          9.1380    0.7040   -1.1090 C.2     1  UNL1        0.0510
     11  C          7.2180   -0.5990   -1.6500 C.2     1  UNL1        0.1660
     12  C          8.5690   -0.3770   -1.7620 C.2     1  UNL1        0.1650
     13  O          6.8970   -1.7270   -2.3860 O.2     1  UNL1       -0.4540
     14  O          9.0770   -1.3870   -2.5800 O.2     1  UNL1       -0.4540
     15  C          8.0140   -2.0470   -3.2280 C.3     1  UNL1        0.4680
@<TRIPOS>BOND
     1    15    14    1
     2    15    13    1
     3    14    12    1
     4    13    11    1
     5    12    11    2
     6    12    10    1
     7    11     9    1
     8    10     8    2
     9     9     7    2
    10     8     7    1
    11     7     6    1
    12     6     1    1
    13     1     2    1
    14     2     3    2
    15     2     4    1
    16     5     4    1
