@<TRIPOS>MOLECULE
/home/cewinharhar/GITHUB/reincatalyze/data/processed/docking_pred/2023-May-17-1006_maxeplen10_maxtrainstep1000_seadep16_gamma099_lrac9e-4_lrcr1e-3_sub6/bb509c9d750c31c787a0dfaad7ceec12964b61ea_ligand_6.pdbqt
 15 16 0 0 0
SMALL
GASTEIGER

@<TRIPOS>ATOM
      1  C          6.4420    1.1800    0.8010 C.3     1  UNL1        0.1270
      2  C          5.2200    1.1310    1.5880 C.2     1  UNL1        0.3030
      3  O          4.9500    0.2840    2.4420 O.2     1  UNL1       -0.2520
      4  O          4.2640    2.1320    1.3570 O.3     1  UNL1       -0.4810
      5  H          3.6060    1.9570    0.6130 H       1  UNL1        0.2960
      6  C          6.2660    0.7680   -0.6080 C.3     1  UNL1        0.0470
      7  C          7.0100   -0.4060   -1.0690 C.2     1  UNL1       -0.0430
      8  C          7.2870   -0.6070   -2.4120 C.2     1  UNL1        0.0080
      9  C          7.4230   -1.3650   -0.1830 C.2     1  UNL1        0.0540
     10  C          7.9550   -1.7290   -2.8510 C.2     1  UNL1        0.0510
     11  C          8.0950   -2.4980   -0.6000 C.2     1  UNL1        0.1660
     12  C          8.3640   -2.6840   -1.9340 C.2     1  UNL1        0.1650
     13  O          8.5980   -3.5790    0.1030 O.2     1  UNL1       -0.4540
     14  O          9.0420   -3.8990   -2.0440 O.2     1  UNL1       -0.4540
     15  C          8.9210   -4.6150   -0.8360 C.3     1  UNL1        0.4680
@<TRIPOS>BOND
     1    10     8    1
     2    10    12    2
     3     8     7    2
     4    14    12    1
     5    14    15    1
     6    12    11    1
     7     7     6    1
     8     7     9    1
     9    15    13    1
    10     6     1    1
    11    11     9    2
    12    11    13    1
    13     5     4    1
    14     1     2    1
    15     4     2    1
    16     2     3    2
