@<TRIPOS>MOLECULE
/home/cewinharhar/GITHUB/reincatalyze/data/processed/docking_pred/2023-May-17-1006_maxeplen10_maxtrainstep1000_seadep16_gamma099_lrac9e-4_lrcr1e-3_sub6/bb509c9d750c31c787a0dfaad7ceec12964b61ea_ligand_6.pdbqt
 15 16 0 0 0
SMALL
GASTEIGER

@<TRIPOS>ATOM
      1  C          8.2940   -0.3140   -2.8600 C.3     1  UNL1        0.1270
      2  C          8.4620   -1.7440   -3.0680 C.2     1  UNL1        0.3030
      3  O          9.5300   -2.3550   -3.0180 O.2     1  UNL1       -0.2520
      4  O          7.3090   -2.4930   -3.3500 O.3     1  UNL1       -0.4810
      5  H          6.4890   -1.9670   -3.6120 H       1  UNL1        0.2960
      6  C          8.7560    0.1590   -1.5370 C.3     1  UNL1        0.0470
      7  C          7.7970    0.1190   -0.4310 C.2     1  UNL1       -0.0430
      8  C          7.7750   -0.9330    0.4720 C.2     1  UNL1        0.0080
      9  C          6.8630    1.1090   -0.2790 C.2     1  UNL1        0.0540
     10  C          6.8500   -0.9890    1.4910 C.2     1  UNL1        0.0510
     11  C          5.9260    1.0740    0.7360 C.2     1  UNL1        0.1660
     12  C          5.9160    0.0260    1.6240 C.2     1  UNL1        0.1650
     13  O          4.9070    1.9460    1.0770 O.2     1  UNL1       -0.4540
     14  O          4.8730    0.2660    2.5200 O.2     1  UNL1       -0.4540
     15  C          4.0420    1.2840    2.0120 C.3     1  UNL1        0.4680
@<TRIPOS>BOND
     1     5     4    1
     2     4     2    1
     3     2     3    2
     4     2     1    1
     5     1     6    1
     6     6     7    1
     7     7     9    2
     8     7     8    1
     9     9    11    1
    10     8    10    2
    11    11    13    1
    12    11    12    2
    13    13    15    1
    14    10    12    1
    15    12    14    1
    16    15    14    1
