@<TRIPOS>MOLECULE
/home/cewinharhar/GITHUB/reincatalyze/data/processed/docking_pred/2023-May-17-1006_maxeplen10_maxtrainstep1000_seadep16_gamma099_lrac9e-4_lrcr1e-3_sub6/bb509c9d750c31c787a0dfaad7ceec12964b61ea_ligand_6.pdbqt
 15 16 0 0 0
SMALL
GASTEIGER

@<TRIPOS>ATOM
      1  C          5.5480    2.6610   -0.0130 C.3     1  UNL1        0.1270
      2  C          6.1600    3.6740    0.8320 C.2     1  UNL1        0.3030
      3  O          6.1710    3.6700    2.0650 O.2     1  UNL1       -0.2520
      4  O          6.7950    4.7500    0.1920 O.3     1  UNL1       -0.4810
      5  H          6.3550    5.6510    0.2940 H       1  UNL1        0.2960
      6  C          5.5070    1.3150    0.5980 C.3     1  UNL1        0.0470
      7  C          6.3120    0.2630   -0.0280 C.2     1  UNL1       -0.0430
      8  C          6.4510    0.1790   -1.4050 C.2     1  UNL1        0.0080
      9  C          6.9220   -0.6980    0.7340 C.2     1  UNL1        0.0540
     10  C          7.1770   -0.8310   -1.9960 C.2     1  UNL1        0.0510
     11  C          7.6570   -1.7200    0.1620 C.2     1  UNL1        0.1660
     12  C          7.7870   -1.7900   -1.2040 C.2     1  UNL1        0.1650
     13  O          8.3480   -2.7800    0.7230 O.2     1  UNL1       -0.4540
     14  O          8.5710   -2.9120   -1.4770 O.2     1  UNL1       -0.4540
     15  C          8.6660   -3.7120   -0.3210 C.3     1  UNL1        0.4680
@<TRIPOS>BOND
     1    10     8    1
     2    10    12    2
     3    14    12    1
     4    14    15    1
     5     8     7    2
     6    12    11    1
     7    15    13    1
     8     7     6    1
     9     7     9    1
    10     1     6    1
    11     1     2    1
    12    11    13    1
    13    11     9    2
    14     4     5    1
    15     4     2    1
    16     2     3    2
