MODEL 1
REMARK VINA RESULT:      -7.6      0.000      0.000
REMARK SMILES O=C(O)CCc1ccc2c(c1)OCO2
REMARK SMILES IDX 4 1 2 2 1 3 3 4 5 6 6 7 7 8 11 9 8 10 10 11 9 12 12 13 14 14
REMARK SMILES IDX 13 15
REMARK H PARENT 3 5
REMARK Flexibility Score: inf
ROOT
ATOM      1  C   UNL     1       5.431   2.875   0.103  1.00  0.00     0.127 C 
ENDROOT
BRANCH   1   2
ATOM      2  C   UNL     1       6.256   3.858   0.786  1.00  0.00     0.303 C 
ATOM      3  O   UNL     1       6.908   4.751   0.241  1.00  0.00    -0.252 OA
BRANCH   2   4
ATOM      4  O   UNL     1       6.318   3.786   2.187  1.00  0.00    -0.481 OA
ATOM      5  H   UNL     1       6.534   2.881   2.577  1.00  0.00     0.296 HD
ENDBRANCH   2   4
ENDBRANCH   1   2
BRANCH   1   6
ATOM      6  C   UNL     1       5.365   1.566   0.787  1.00  0.00     0.047 C 
BRANCH   6   7
ATOM      7  C   UNL     1       6.139   0.462   0.214  1.00  0.00    -0.043 A 
ATOM      8  C   UNL     1       6.583  -0.594   0.995  1.00  0.00     0.008 A 
ATOM      9  C   UNL     1       6.482   0.462  -1.112  1.00  0.00     0.054 A 
ATOM     10  C   UNL     1       7.342  -1.614   0.465  1.00  0.00     0.051 A 
ATOM     11  C   UNL     1       7.242  -0.551  -1.666  1.00  0.00     0.166 A 
ATOM     12  C   UNL     1       7.674  -1.592  -0.880  1.00  0.00     0.165 A 
ATOM     13  O   UNL     1       7.699  -0.756  -2.955  1.00  0.00    -0.454 OA
ATOM     14  O   UNL     1       8.407  -2.444  -1.707  1.00  0.00    -0.454 OA
ATOM     15  C   UNL     1       8.697  -1.788  -2.920  1.00  0.00     0.468 C 
ENDBRANCH   6   7
ENDBRANCH   1   6
TORSDOF 4
ENDMDL
MODEL 2
REMARK VINA RESULT:      -7.6      2.126      2.512
REMARK SMILES O=C(O)CCc1ccc2c(c1)OCO2
REMARK SMILES IDX 4 1 2 2 1 3 3 4 5 6 6 7 7 8 11 9 8 10 10 11 9 12 12 13 14 14
REMARK SMILES IDX 13 15
REMARK H PARENT 3 5
REMARK Flexibility Score: inf
ROOT
ATOM      1  C   UNL     1       4.703   1.876   0.691  1.00  0.00     0.127 C 
ENDROOT
BRANCH   1   2
ATOM      2  C   UNL     1       4.411   1.151   1.918  1.00  0.00     0.303 C 
ATOM      3  O   UNL     1       5.148   0.322   2.454  1.00  0.00    -0.252 OA
BRANCH   2   4
ATOM      4  O   UNL     1       3.185   1.418   2.548  1.00  0.00    -0.481 OA
ATOM      5  H   UNL     1       2.356   1.165   2.032  1.00  0.00     0.296 HD
ENDBRANCH   2   4
ENDBRANCH   1   2
BRANCH   1   6
ATOM      6  C   UNL     1       6.128   2.240   0.534  1.00  0.00     0.047 C 
BRANCH   6   7
ATOM      7  C   UNL     1       6.978   1.328  -0.235  1.00  0.00    -0.043 A 
ATOM      8  C   UNL     1       8.343   1.540  -0.357  1.00  0.00     0.008 A 
ATOM      9  C   UNL     1       6.439   0.253  -0.891  1.00  0.00     0.054 A 
ATOM     10  C   UNL     1       9.138   0.704  -1.109  1.00  0.00     0.051 A 
ATOM     11  C   UNL     1       7.218  -0.599  -1.650  1.00  0.00     0.166 A 
ATOM     12  C   UNL     1       8.569  -0.377  -1.762  1.00  0.00     0.165 A 
ATOM     13  O   UNL     1       6.897  -1.727  -2.386  1.00  0.00    -0.454 OA
ATOM     14  O   UNL     1       9.077  -1.387  -2.580  1.00  0.00    -0.454 OA
ATOM     15  C   UNL     1       8.014  -2.047  -3.228  1.00  0.00     0.468 C 
ENDBRANCH   6   7
ENDBRANCH   1   6
TORSDOF 4
ENDMDL
MODEL 3
REMARK VINA RESULT:      -7.5      2.005      3.006
REMARK SMILES O=C(O)CCc1ccc2c(c1)OCO2
REMARK SMILES IDX 4 1 2 2 1 3 3 4 5 6 6 7 7 8 11 9 8 10 10 11 9 12 12 13 14 14
REMARK SMILES IDX 13 15
REMARK H PARENT 3 5
REMARK Flexibility Score: inf
ROOT
ATOM      1  C   UNL     1       6.442   1.180   0.801  1.00  0.00     0.127 C 
ENDROOT
BRANCH   1   2
ATOM      2  C   UNL     1       5.220   1.131   1.588  1.00  0.00     0.303 C 
ATOM      3  O   UNL     1       4.950   0.284   2.442  1.00  0.00    -0.252 OA
BRANCH   2   4
ATOM      4  O   UNL     1       4.264   2.132   1.357  1.00  0.00    -0.481 OA
ATOM      5  H   UNL     1       3.606   1.957   0.613  1.00  0.00     0.296 HD
ENDBRANCH   2   4
ENDBRANCH   1   2
BRANCH   1   6
ATOM      6  C   UNL     1       6.266   0.768  -0.608  1.00  0.00     0.047 C 
BRANCH   6   7
ATOM      7  C   UNL     1       7.010  -0.406  -1.069  1.00  0.00    -0.043 A 
ATOM      8  C   UNL     1       7.287  -0.607  -2.412  1.00  0.00     0.008 A 
ATOM      9  C   UNL     1       7.423  -1.365  -0.183  1.00  0.00     0.054 A 
ATOM     10  C   UNL     1       7.955  -1.729  -2.851  1.00  0.00     0.051 A 
ATOM     11  C   UNL     1       8.095  -2.498  -0.600  1.00  0.00     0.166 A 
ATOM     12  C   UNL     1       8.364  -2.684  -1.934  1.00  0.00     0.165 A 
ATOM     13  O   UNL     1       8.598  -3.579   0.103  1.00  0.00    -0.454 OA
ATOM     14  O   UNL     1       9.042  -3.899  -2.044  1.00  0.00    -0.454 OA
ATOM     15  C   UNL     1       8.921  -4.615  -0.836  1.00  0.00     0.468 C 
ENDBRANCH   6   7
ENDBRANCH   1   6
TORSDOF 4
ENDMDL
MODEL 4
REMARK VINA RESULT:      -7.5      1.803      5.283
REMARK SMILES O=C(O)CCc1ccc2c(c1)OCO2
REMARK SMILES IDX 4 1 2 2 1 3 3 4 5 6 6 7 7 8 11 9 8 10 10 11 9 12 12 13 14 14
REMARK SMILES IDX 13 15
REMARK H PARENT 3 5
REMARK Flexibility Score: inf
ROOT
ATOM      1  C   UNL     1       8.294  -0.314  -2.860  1.00  0.00     0.127 C 
ENDROOT
BRANCH   1   2
ATOM      2  C   UNL     1       8.462  -1.744  -3.068  1.00  0.00     0.303 C 
ATOM      3  O   UNL     1       9.530  -2.355  -3.018  1.00  0.00    -0.252 OA
BRANCH   2   4
ATOM      4  O   UNL     1       7.309  -2.493  -3.350  1.00  0.00    -0.481 OA
ATOM      5  H   UNL     1       6.489  -1.967  -3.612  1.00  0.00     0.296 HD
ENDBRANCH   2   4
ENDBRANCH   1   2
BRANCH   1   6
ATOM      6  C   UNL     1       8.756   0.159  -1.537  1.00  0.00     0.047 C 
BRANCH   6   7
ATOM      7  C   UNL     1       7.797   0.119  -0.431  1.00  0.00    -0.043 A 
ATOM      8  C   UNL     1       7.775  -0.933   0.472  1.00  0.00     0.008 A 
ATOM      9  C   UNL     1       6.863   1.109  -0.279  1.00  0.00     0.054 A 
ATOM     10  C   UNL     1       6.850  -0.989   1.491  1.00  0.00     0.051 A 
ATOM     11  C   UNL     1       5.926   1.074   0.736  1.00  0.00     0.166 A 
ATOM     12  C   UNL     1       5.916   0.026   1.624  1.00  0.00     0.165 A 
ATOM     13  O   UNL     1       4.907   1.946   1.077  1.00  0.00    -0.454 OA
ATOM     14  O   UNL     1       4.873   0.266   2.520  1.00  0.00    -0.454 OA
ATOM     15  C   UNL     1       4.042   1.284   2.012  1.00  0.00     0.468 C 
ENDBRANCH   6   7
ENDBRANCH   1   6
TORSDOF 4
ENDMDL
