@<TRIPOS>MOLECULE
/home/cewinharhar/GITHUB/reincatalyze/data/processed/docking_pred/2023-May-17-1006_maxeplen10_maxtrainstep1000_seadep16_gamma099_lrac9e-4_lrcr1e-3_sub6/bb8285001221c2ec88d34c7e342a921234d5c761_ligand_6.pdbqt
 15 16 0 0 0
SMALL
GASTEIGER

@<TRIPOS>ATOM
      1  C          4.7390    1.8510    0.7100 C.3     1  UNL1        0.1270
      2  C          4.4210    1.1310    1.9330 C.2     1  UNL1        0.3030
      3  O          5.1400    0.2910    2.4780 O.2     1  UNL1       -0.2520
      4  O          3.1910    1.4130    2.5460 O.3     1  UNL1       -0.4810
      5  H          2.3750    0.9990    2.1210 H       1  UNL1        0.2960
      6  C          6.1700    2.1970    0.5710 C.3     1  UNL1        0.0470
      7  C          7.0100    1.2960   -0.2210 C.2     1  UNL1       -0.0430
      8  C          8.3690    1.5240   -0.3790 C.2     1  UNL1        0.0080
      9  C          6.4660    0.2170   -0.8650 C.2     1  UNL1        0.0540
     10  C          9.1530    0.6990   -1.1530 C.2     1  UNL1        0.0510
     11  C          7.2340   -0.6250   -1.6470 C.2     1  UNL1        0.1660
     12  C          8.5800   -0.3870   -1.7940 C.2     1  UNL1        0.1650
     13  O          6.9070   -1.7540   -2.3770 O.2     1  UNL1       -0.4540
     14  O          9.0770   -1.3900   -2.6280 O.2     1  UNL1       -0.4540
     15  C          8.0050   -2.0610   -3.2490 C.3     1  UNL1        0.4680
@<TRIPOS>BOND
     1    15    14    1
     2    15    13    1
     3    14    12    1
     4    13    11    1
     5    12    11    2
     6    12    10    1
     7    11     9    1
     8    10     8    2
     9     9     7    2
    10     8     7    1
    11     7     6    1
    12     6     1    1
    13     1     2    1
    14     2     3    2
    15     2     4    1
    16     5     4    1
