@<TRIPOS>MOLECULE
/home/cewinharhar/GITHUB/reincatalyze/data/processed/docking_pred/2023-May-17-1006_maxeplen10_maxtrainstep1000_seadep16_gamma099_lrac9e-4_lrcr1e-3_sub6/bb8285001221c2ec88d34c7e342a921234d5c761_ligand_6.pdbqt
 15 16 0 0 0
SMALL
GASTEIGER

@<TRIPOS>ATOM
      1  C          5.4420    2.7330    0.0620 C.3     1  UNL1        0.1270
      2  C          6.1490    3.7130    0.8720 C.2     1  UNL1        0.3030
      3  O          6.2110    3.7160    2.1030 O.2     1  UNL1       -0.2520
      4  O          6.8190    4.7450    0.1960 O.3     1  UNL1       -0.4810
      5  H          6.7880    4.7110   -0.8110 H       1  UNL1        0.2960
      6  C          5.3900    1.3830    0.6630 C.3     1  UNL1        0.0470
      7  C          6.2360    0.3450    0.0700 C.2     1  UNL1       -0.0430
      8  C          6.5130    0.3240   -1.2880 C.2     1  UNL1        0.0080
      9  C          6.7490   -0.6650    0.8400 C.2     1  UNL1        0.0540
     10  C          7.2780   -0.6720   -1.8530 C.2     1  UNL1        0.0510
     11  C          7.5200   -1.6740    0.2950 C.2     1  UNL1        0.1660
     12  C          7.7880   -1.6810   -1.0520 C.2     1  UNL1        0.1650
     13  O          8.1320   -2.7750    0.8690 O.2     1  UNL1       -0.4540
     14  O          8.5760   -2.8060   -1.3010 O.2     1  UNL1       -0.4540
     15  C          8.5390   -3.6620   -0.1830 C.3     1  UNL1        0.4680
@<TRIPOS>BOND
     1    10     8    1
     2    10    12    2
     3    14    12    1
     4    14    15    1
     5     8     7    2
     6    12    11    1
     7     5     4    1
     8    15    13    1
     9     1     6    1
    10     1     2    1
    11     7     6    1
    12     7     9    1
    13     4     2    1
    14    11     9    2
    15    11    13    1
    16     2     3    2
