MODEL 1
REMARK VINA RESULT:      -7.7      0.000      0.000
REMARK SMILES O=C(O)CCc1ccc2c(c1)OCO2
REMARK SMILES IDX 4 1 2 2 1 3 3 4 5 6 6 7 7 8 11 9 8 10 10 11 9 12 12 13 14 14
REMARK SMILES IDX 13 15
REMARK H PARENT 3 5
REMARK Flexibility Score: inf
ROOT
ATOM      1  C   UNL     1       5.409   2.874   0.124  1.00  0.00     0.127 C 
ENDROOT
BRANCH   1   2
ATOM      2  C   UNL     1       6.229   3.855   0.817  1.00  0.00     0.303 C 
ATOM      3  O   UNL     1       6.878   4.755   0.280  1.00  0.00    -0.252 OA
BRANCH   2   4
ATOM      4  O   UNL     1       6.287   3.773   2.217  1.00  0.00    -0.481 OA
ATOM      5  H   UNL     1       7.209   3.763   2.624  1.00  0.00     0.296 HD
ENDBRANCH   2   4
ENDBRANCH   1   2
BRANCH   1   6
ATOM      6  C   UNL     1       5.331   1.566   0.808  1.00  0.00     0.047 C 
BRANCH   6   7
ATOM      7  C   UNL     1       6.114   0.462   0.248  1.00  0.00    -0.043 A 
ATOM      8  C   UNL     1       6.557  -0.586   1.039  1.00  0.00     0.008 A 
ATOM      9  C   UNL     1       6.464   0.453  -1.076  1.00  0.00     0.054 A 
ATOM     10  C   UNL     1       7.324  -1.607   0.521  1.00  0.00     0.051 A 
ATOM     11  C   UNL     1       7.232  -0.561  -1.618  1.00  0.00     0.166 A 
ATOM     12  C   UNL     1       7.664  -1.594  -0.822  1.00  0.00     0.165 A 
ATOM     13  O   UNL     1       7.698  -0.774  -2.903  1.00  0.00    -0.454 OA
ATOM     14  O   UNL     1       8.406  -2.449  -1.638  1.00  0.00    -0.454 OA
ATOM     15  C   UNL     1       8.700  -1.801  -2.854  1.00  0.00     0.468 C 
ENDBRANCH   6   7
ENDBRANCH   1   6
TORSDOF 4
ENDMDL
MODEL 2
REMARK VINA RESULT:      -7.6      2.141      2.527
REMARK SMILES O=C(O)CCc1ccc2c(c1)OCO2
REMARK SMILES IDX 4 1 2 2 1 3 3 4 5 6 6 7 7 8 11 9 8 10 10 11 9 12 12 13 14 14
REMARK SMILES IDX 13 15
REMARK H PARENT 3 5
REMARK Flexibility Score: inf
ROOT
ATOM      1  C   UNL     1       4.739   1.851   0.710  1.00  0.00     0.127 C 
ENDROOT
BRANCH   1   2
ATOM      2  C   UNL     1       4.421   1.131   1.933  1.00  0.00     0.303 C 
ATOM      3  O   UNL     1       5.140   0.291   2.478  1.00  0.00    -0.252 OA
BRANCH   2   4
ATOM      4  O   UNL     1       3.191   1.413   2.546  1.00  0.00    -0.481 OA
ATOM      5  H   UNL     1       2.375   0.999   2.121  1.00  0.00     0.296 HD
ENDBRANCH   2   4
ENDBRANCH   1   2
BRANCH   1   6
ATOM      6  C   UNL     1       6.170   2.197   0.571  1.00  0.00     0.047 C 
BRANCH   6   7
ATOM      7  C   UNL     1       7.010   1.296  -0.221  1.00  0.00    -0.043 A 
ATOM      8  C   UNL     1       8.369   1.524  -0.379  1.00  0.00     0.008 A 
ATOM      9  C   UNL     1       6.466   0.217  -0.865  1.00  0.00     0.054 A 
ATOM     10  C   UNL     1       9.153   0.699  -1.153  1.00  0.00     0.051 A 
ATOM     11  C   UNL     1       7.234  -0.625  -1.647  1.00  0.00     0.166 A 
ATOM     12  C   UNL     1       8.580  -0.387  -1.794  1.00  0.00     0.165 A 
ATOM     13  O   UNL     1       6.907  -1.754  -2.377  1.00  0.00    -0.454 OA
ATOM     14  O   UNL     1       9.077  -1.390  -2.628  1.00  0.00    -0.454 OA
ATOM     15  C   UNL     1       8.005  -2.061  -3.249  1.00  0.00     0.468 C 
ENDBRANCH   6   7
ENDBRANCH   1   6
TORSDOF 4
ENDMDL
MODEL 3
REMARK VINA RESULT:      -7.5      0.956      2.113
REMARK SMILES O=C(O)CCc1ccc2c(c1)OCO2
REMARK SMILES IDX 4 1 2 2 1 3 3 4 5 6 6 7 7 8 11 9 8 10 10 11 9 12 12 13 14 14
REMARK SMILES IDX 13 15
REMARK H PARENT 3 5
REMARK Flexibility Score: inf
ROOT
ATOM      1  C   UNL     1       5.442   2.733   0.062  1.00  0.00     0.127 C 
ENDROOT
BRANCH   1   2
ATOM      2  C   UNL     1       6.149   3.713   0.872  1.00  0.00     0.303 C 
ATOM      3  O   UNL     1       6.211   3.716   2.103  1.00  0.00    -0.252 OA
BRANCH   2   4
ATOM      4  O   UNL     1       6.819   4.745   0.196  1.00  0.00    -0.481 OA
ATOM      5  H   UNL     1       6.788   4.711  -0.811  1.00  0.00     0.296 HD
ENDBRANCH   2   4
ENDBRANCH   1   2
BRANCH   1   6
ATOM      6  C   UNL     1       5.390   1.383   0.663  1.00  0.00     0.047 C 
BRANCH   6   7
ATOM      7  C   UNL     1       6.236   0.345   0.070  1.00  0.00    -0.043 A 
ATOM      8  C   UNL     1       6.513   0.324  -1.288  1.00  0.00     0.008 A 
ATOM      9  C   UNL     1       6.749  -0.665   0.840  1.00  0.00     0.054 A 
ATOM     10  C   UNL     1       7.278  -0.672  -1.853  1.00  0.00     0.051 A 
ATOM     11  C   UNL     1       7.520  -1.674   0.295  1.00  0.00     0.166 A 
ATOM     12  C   UNL     1       7.788  -1.681  -1.052  1.00  0.00     0.165 A 
ATOM     13  O   UNL     1       8.132  -2.775   0.869  1.00  0.00    -0.454 OA
ATOM     14  O   UNL     1       8.576  -2.806  -1.301  1.00  0.00    -0.454 OA
ATOM     15  C   UNL     1       8.539  -3.662  -0.183  1.00  0.00     0.468 C 
ENDBRANCH   6   7
ENDBRANCH   1   6
TORSDOF 4
ENDMDL
MODEL 4
REMARK VINA RESULT:      -7.4      1.948      2.857
REMARK SMILES O=C(O)CCc1ccc2c(c1)OCO2
REMARK SMILES IDX 4 1 2 2 1 3 3 4 5 6 6 7 7 8 11 9 8 10 10 11 9 12 12 13 14 14
REMARK SMILES IDX 13 15
REMARK H PARENT 3 5
REMARK Flexibility Score: inf
ROOT
ATOM      1  C   UNL     1       6.428   1.331   0.648  1.00  0.00     0.127 C 
ENDROOT
BRANCH   1   2
ATOM      2  C   UNL     1       5.203   1.355   1.432  1.00  0.00     0.303 C 
ATOM      3  O   UNL     1       4.279   2.158   1.294  1.00  0.00    -0.252 OA
BRANCH   2   4
ATOM      4  O   UNL     1       5.060   0.381   2.433  1.00  0.00    -0.481 OA
ATOM      5  H   UNL     1       4.808  -0.544   2.121  1.00  0.00     0.296 HD
ENDBRANCH   2   4
ENDBRANCH   1   2
BRANCH   1   6
ATOM      6  C   UNL     1       6.239   0.875  -0.746  1.00  0.00     0.047 C 
BRANCH   6   7
ATOM      7  C   UNL     1       6.990  -0.305  -1.180  1.00  0.00    -0.043 A 
ATOM      8  C   UNL     1       7.276  -0.530  -2.518  1.00  0.00     0.008 A 
ATOM      9  C   UNL     1       7.400  -1.246  -0.274  1.00  0.00     0.054 A 
ATOM     10  C   UNL     1       7.951  -1.657  -2.932  1.00  0.00     0.051 A 
ATOM     11  C   UNL     1       8.079  -2.385  -0.666  1.00  0.00     0.166 A 
ATOM     12  C   UNL     1       8.357  -2.594  -1.996  1.00  0.00     0.165 A 
ATOM     13  O   UNL     1       8.581  -3.451   0.059  1.00  0.00    -0.454 OA
ATOM     14  O   UNL     1       9.039  -3.809  -2.079  1.00  0.00    -0.454 OA
ATOM     15  C   UNL     1       8.913  -4.503  -0.859  1.00  0.00     0.468 C 
ENDBRANCH   6   7
ENDBRANCH   1   6
TORSDOF 4
ENDMDL
MODEL 5
REMARK VINA RESULT:      -7.4      1.790      5.284
REMARK SMILES O=C(O)CCc1ccc2c(c1)OCO2
REMARK SMILES IDX 4 1 2 2 1 3 3 4 5 6 6 7 7 8 11 9 8 10 10 11 9 12 12 13 14 14
REMARK SMILES IDX 13 15
REMARK H PARENT 3 5
REMARK Flexibility Score: inf
ROOT
ATOM      1  C   UNL     1       8.304  -0.318  -2.857  1.00  0.00     0.127 C 
ENDROOT
BRANCH   1   2
ATOM      2  C   UNL     1       8.468  -1.747  -3.076  1.00  0.00     0.303 C 
ATOM      3  O   UNL     1       9.536  -2.360  -3.037  1.00  0.00    -0.252 OA
BRANCH   2   4
ATOM      4  O   UNL     1       7.312  -2.492  -3.355  1.00  0.00    -0.481 OA
ATOM      5  H   UNL     1       6.957  -3.062  -2.602  1.00  0.00     0.296 HD
ENDBRANCH   2   4
ENDBRANCH   1   2
BRANCH   1   6
ATOM      6  C   UNL     1       8.758   0.142  -1.527  1.00  0.00     0.047 C 
BRANCH   6   7
ATOM      7  C   UNL     1       7.789   0.100  -0.430  1.00  0.00    -0.043 A 
ATOM      8  C   UNL     1       7.738  -0.968   0.452  1.00  0.00     0.008 A 
ATOM      9  C   UNL     1       6.874   1.106  -0.266  1.00  0.00     0.054 A 
ATOM     10  C   UNL     1       6.804  -1.025   1.462  1.00  0.00     0.051 A 
ATOM     11  C   UNL     1       5.928   1.070   0.741  1.00  0.00     0.166 A 
ATOM     12  C   UNL     1       5.889   0.005   1.608  1.00  0.00     0.165 A 
ATOM     13  O   UNL     1       4.924   1.956   1.090  1.00  0.00    -0.454 OA
ATOM     14  O   UNL     1       4.843   0.249   2.500  1.00  0.00    -0.454 OA
ATOM     15  C   UNL     1       4.038   1.294   2.006  1.00  0.00     0.468 C 
ENDBRANCH   6   7
ENDBRANCH   1   6
TORSDOF 4
ENDMDL
