@<TRIPOS>MOLECULE
/home/cewinharhar/GITHUB/reincatalyze/data/processed/docking_pred/2023-May-17-1006_maxeplen10_maxtrainstep1000_seadep16_gamma099_lrac9e-4_lrcr1e-3_sub6/bb8285001221c2ec88d34c7e342a921234d5c761_ligand_6.pdbqt
 15 16 0 0 0
SMALL
GASTEIGER

@<TRIPOS>ATOM
      1  C          6.4280    1.3310    0.6480 C.3     1  UNL1        0.1270
      2  C          5.2030    1.3550    1.4320 C.2     1  UNL1        0.3030
      3  O          4.2790    2.1580    1.2940 O.2     1  UNL1       -0.2520
      4  O          5.0600    0.3810    2.4330 O.3     1  UNL1       -0.4810
      5  H          4.8080   -0.5440    2.1210 H       1  UNL1        0.2960
      6  C          6.2390    0.8750   -0.7460 C.3     1  UNL1        0.0470
      7  C          6.9900   -0.3050   -1.1800 C.2     1  UNL1       -0.0430
      8  C          7.2760   -0.5300   -2.5180 C.2     1  UNL1        0.0080
      9  C          7.4000   -1.2460   -0.2740 C.2     1  UNL1        0.0540
     10  C          7.9510   -1.6570   -2.9320 C.2     1  UNL1        0.0510
     11  C          8.0790   -2.3850   -0.6660 C.2     1  UNL1        0.1660
     12  C          8.3570   -2.5940   -1.9960 C.2     1  UNL1        0.1650
     13  O          8.5810   -3.4510    0.0590 O.2     1  UNL1       -0.4540
     14  O          9.0390   -3.8090   -2.0790 O.2     1  UNL1       -0.4540
     15  C          8.9130   -4.5030   -0.8590 C.3     1  UNL1        0.4680
@<TRIPOS>BOND
     1    10     8    1
     2    10    12    2
     3     8     7    2
     4    14    12    1
     5    14    15    1
     6    12    11    1
     7     7     6    1
     8     7     9    1
     9    15    13    1
    10     6     1    1
    11    11     9    2
    12    11    13    1
    13     1     2    1
    14     3     2    2
    15     2     4    1
    16     5     4    1
