@<TRIPOS>MOLECULE
/home/cewinharhar/GITHUB/reincatalyze/data/processed/docking_pred/2023-May-17-1006_maxeplen10_maxtrainstep1000_seadep16_gamma099_lrac9e-4_lrcr1e-3_sub6/bb8285001221c2ec88d34c7e342a921234d5c761_ligand_6.pdbqt
 15 16 0 0 0
SMALL
GASTEIGER

@<TRIPOS>ATOM
      1  C          8.3040   -0.3180   -2.8570 C.3     1  UNL1        0.1270
      2  C          8.4680   -1.7470   -3.0760 C.2     1  UNL1        0.3030
      3  O          9.5360   -2.3600   -3.0370 O.2     1  UNL1       -0.2520
      4  O          7.3120   -2.4920   -3.3550 O.3     1  UNL1       -0.4810
      5  H          6.9570   -3.0620   -2.6020 H       1  UNL1        0.2960
      6  C          8.7580    0.1420   -1.5270 C.3     1  UNL1        0.0470
      7  C          7.7890    0.1000   -0.4300 C.2     1  UNL1       -0.0430
      8  C          7.7380   -0.9680    0.4520 C.2     1  UNL1        0.0080
      9  C          6.8740    1.1060   -0.2660 C.2     1  UNL1        0.0540
     10  C          6.8040   -1.0250    1.4620 C.2     1  UNL1        0.0510
     11  C          5.9280    1.0700    0.7410 C.2     1  UNL1        0.1660
     12  C          5.8890    0.0050    1.6080 C.2     1  UNL1        0.1650
     13  O          4.9240    1.9560    1.0900 O.2     1  UNL1       -0.4540
     14  O          4.8430    0.2490    2.5000 O.2     1  UNL1       -0.4540
     15  C          4.0380    1.2940    2.0060 C.3     1  UNL1        0.4680
@<TRIPOS>BOND
     1     4     2    1
     2     4     5    1
     3     2     3    2
     4     2     1    1
     5     1     6    1
     6     6     7    1
     7     7     9    2
     8     7     8    1
     9     9    11    1
    10     8    10    2
    11    11    13    1
    12    11    12    2
    13    13    15    1
    14    10    12    1
    15    12    14    1
    16    15    14    1
