@<TRIPOS>MOLECULE
/home/cewinharhar/GITHUB/reincatalyze/data/processed/docking_pred/2023-May-17-1006_maxeplen10_maxtrainstep1000_seadep16_gamma099_lrac9e-4_lrcr1e-3_sub6/bde4f716ac8ce10fa2b7126593b1b8cc9fcb83f2_ligand_6.pdbqt
 15 16 0 0 0
SMALL
GASTEIGER

@<TRIPOS>ATOM
      1  C          5.4340    2.8740    0.0990 C.3     1  UNL1        0.1270
      2  C          6.2550    3.8590    0.7870 C.2     1  UNL1        0.3030
      3  O          6.9150    4.7470    0.2440 O.2     1  UNL1       -0.2520
      4  O          6.3010    3.7940    2.1880 O.3     1  UNL1       -0.4810
      5  H          6.3100    2.8700    2.5910 H       1  UNL1        0.2960
      6  C          5.3670    1.5660    0.7840 C.3     1  UNL1        0.0470
      7  C          6.1410    0.4620    0.2140 C.2     1  UNL1       -0.0430
      8  C          6.5760   -0.5980    0.9940 C.2     1  UNL1        0.0080
      9  C          6.4940    0.4650   -1.1100 C.2     1  UNL1        0.0540
     10  C          7.3350   -1.6190    0.4670 C.2     1  UNL1        0.0510
     11  C          7.2540   -0.5490   -1.6610 C.2     1  UNL1        0.1660
     12  C          7.6770   -1.5940   -0.8760 C.2     1  UNL1        0.1650
     13  O          7.7210   -0.7520   -2.9480 O.2     1  UNL1       -0.4540
     14  O          8.4130   -2.4460   -1.7000 O.2     1  UNL1       -0.4540
     15  C          8.7150   -1.7870   -2.9080 C.3     1  UNL1        0.4680
@<TRIPOS>BOND
     1    13    15    1
     2    13    11    1
     3    15    14    1
     4    14    12    1
     5    11     9    1
     6    11    12    2
     7     9     7    2
     8    12    10    1
     9     1     6    1
    10     1     2    1
    11     7     6    1
    12     7     8    1
    13     3     2    2
    14    10     8    2
    15     2     4    1
    16     4     5    1
