@<TRIPOS>MOLECULE
/home/cewinharhar/GITHUB/reincatalyze/data/processed/docking_pred/2023-May-17-1006_maxeplen10_maxtrainstep1000_seadep16_gamma099_lrac9e-4_lrcr1e-3_sub6/bde4f716ac8ce10fa2b7126593b1b8cc9fcb83f2_ligand_6.pdbqt
 15 16 0 0 0
SMALL
GASTEIGER

@<TRIPOS>ATOM
      1  C          5.4640    2.4000    0.3960 C.3     1  UNL1        0.1270
      2  C          6.2700    3.4530    0.9940 C.2     1  UNL1        0.3030
      3  O          6.6510    3.4860    2.1650 O.2     1  UNL1       -0.2520
      4  O          6.6470    4.5230    0.1680 O.3     1  UNL1       -0.4810
      5  H          6.6620    4.3370   -0.8230 H       1  UNL1        0.2960
      6  C          5.6400    1.0760    1.0290 C.3     1  UNL1        0.0470
      7  C          6.4090    0.0700    0.2940 C.2     1  UNL1       -0.0430
      8  C          6.4830    0.0840   -1.0910 C.2     1  UNL1        0.0080
      9  C          7.0500   -0.9430    0.9550 C.2     1  UNL1        0.0540
     10  C          7.1760   -0.8820   -1.7860 C.2     1  UNL1        0.0510
     11  C          7.7520   -1.9230    0.2790 C.2     1  UNL1        0.1660
     12  C          7.8180   -1.8960   -1.0930 C.2     1  UNL1        0.1650
     13  O          8.4640   -3.0210    0.7300 O.2     1  UNL1       -0.4540
     14  O          8.5830   -2.9970   -1.4820 O.2     1  UNL1       -0.4540
     15  C          8.7280   -3.8770   -0.3910 C.3     1  UNL1        0.4680
@<TRIPOS>BOND
     1    10    12    2
     2    10     8    1
     3    14    12    1
     4    14    15    1
     5    12    11    1
     6     8     7    2
     7     5     4    1
     8    15    13    1
     9     4     2    1
    10    11    13    1
    11    11     9    2
    12     7     9    1
    13     7     6    1
    14     1     2    1
    15     1     6    1
    16     2     3    2
