@<TRIPOS>MOLECULE
/home/cewinharhar/GITHUB/reincatalyze/data/processed/docking_pred/2023-May-17-1006_maxeplen10_maxtrainstep1000_seadep16_gamma099_lrac9e-4_lrcr1e-3_sub6/bde4f716ac8ce10fa2b7126593b1b8cc9fcb83f2_ligand_6.pdbqt
 15 16 0 0 0
SMALL
GASTEIGER

@<TRIPOS>ATOM
      1  C          8.3090   -0.3170   -2.8170 C.3     1  UNL1        0.1270
      2  C          8.4710   -1.7430   -3.0550 C.2     1  UNL1        0.3030
      3  O          9.5390   -2.3580   -3.0260 O.2     1  UNL1       -0.2520
      4  O          7.3140   -2.4840   -3.3440 O.3     1  UNL1       -0.4810
      5  H          6.8720   -2.9410   -2.5620 H       1  UNL1        0.2960
      6  C          8.7650    0.1240   -1.4820 C.3     1  UNL1        0.0470
      7  C          7.7900    0.0940   -0.3890 C.2     1  UNL1       -0.0430
      8  C          7.7420   -0.9590    0.5110 C.2     1  UNL1        0.0080
      9  C          6.8660    1.0960   -0.2480 C.2     1  UNL1        0.0540
     10  C          6.8020   -1.0050    1.5170 C.2     1  UNL1        0.0510
     11  C          5.9150    1.0700    0.7540 C.2     1  UNL1        0.1660
     12  C          5.8800    0.0210    1.6400 C.2     1  UNL1        0.1650
     13  O          4.9030    1.9550    1.0820 O.2     1  UNL1       -0.4540
     14  O          4.8270    0.2720    2.5210 O.2     1  UNL1       -0.4540
     15  C          4.0170    1.3020    2.0040 C.3     1  UNL1        0.4680
@<TRIPOS>BOND
     1     4     2    1
     2     4     5    1
     3     2     3    2
     4     2     1    1
     5     1     6    1
     6     6     7    1
     7     7     9    2
     8     7     8    1
     9     9    11    1
    10     8    10    2
    11    11    13    1
    12    11    12    2
    13    13    15    1
    14    10    12    1
    15    12    14    1
    16    15    14    1
