@<TRIPOS>MOLECULE
/home/cewinharhar/GITHUB/reincatalyze/data/processed/docking_pred/2023-May-17-1006_maxeplen10_maxtrainstep1000_seadep16_gamma099_lrac9e-4_lrcr1e-3_sub6/bde4f716ac8ce10fa2b7126593b1b8cc9fcb83f2_ligand_6.pdbqt
 15 16 0 0 0
SMALL
GASTEIGER

@<TRIPOS>ATOM
      1  C          4.7140    1.8700    0.6900 C.3     1  UNL1        0.1270
      2  C          4.4000    1.1590    1.9190 C.2     1  UNL1        0.3030
      3  O          5.1190    0.3210    2.4670 O.2     1  UNL1       -0.2520
      4  O          3.1730    1.4490    2.5360 O.3     1  UNL1       -0.4810
      5  H          3.1580    1.4030    3.5430 H       1  UNL1        0.2960
      6  C          6.1420    2.2270    0.5510 C.3     1  UNL1        0.0470
      7  C          6.9930    1.3250   -0.2280 C.2     1  UNL1       -0.0430
      8  C          8.3510    1.5600   -0.3810 C.2     1  UNL1        0.0080
      9  C          6.4600    0.2360   -0.8660 C.2     1  UNL1        0.0540
     10  C          9.1450    0.7330   -1.1430 C.2     1  UNL1        0.0510
     11  C          7.2370   -0.6080   -1.6360 C.2     1  UNL1        0.1660
     12  C          8.5820   -0.3630   -1.7770 C.2     1  UNL1        0.1650
     13  O          6.9210   -1.7450   -2.3580 O.2     1  UNL1       -0.4540
     14  O          9.0910   -1.3690   -2.5990 O.2     1  UNL1       -0.4540
     15  C          8.0270   -2.0520   -3.2210 C.3     1  UNL1        0.4680
@<TRIPOS>BOND
     1    15    14    1
     2    15    13    1
     3    14    12    1
     4    13    11    1
     5    12    11    2
     6    12    10    1
     7    11     9    1
     8    10     8    2
     9     9     7    2
    10     8     7    1
    11     7     6    1
    12     6     1    1
    13     1     2    1
    14     2     3    2
    15     2     4    1
    16     4     5    1
