MODEL 1
REMARK VINA RESULT:      -7.6      0.000      0.000
REMARK SMILES O=C(O)CCc1ccc2c(c1)OCO2
REMARK SMILES IDX 4 1 2 2 1 3 3 4 5 6 6 7 7 8 11 9 8 10 10 11 9 12 12 13 14 14
REMARK SMILES IDX 13 15
REMARK H PARENT 3 5
REMARK Flexibility Score: inf
ROOT
ATOM      1  C   UNL     1       5.434   2.874   0.099  1.00  0.00     0.127 C 
ENDROOT
BRANCH   1   2
ATOM      2  C   UNL     1       6.255   3.859   0.787  1.00  0.00     0.303 C 
ATOM      3  O   UNL     1       6.915   4.747   0.244  1.00  0.00    -0.252 OA
BRANCH   2   4
ATOM      4  O   UNL     1       6.301   3.794   2.188  1.00  0.00    -0.481 OA
ATOM      5  H   UNL     1       6.310   2.870   2.591  1.00  0.00     0.296 HD
ENDBRANCH   2   4
ENDBRANCH   1   2
BRANCH   1   6
ATOM      6  C   UNL     1       5.367   1.566   0.784  1.00  0.00     0.047 C 
BRANCH   6   7
ATOM      7  C   UNL     1       6.141   0.462   0.214  1.00  0.00    -0.043 A 
ATOM      8  C   UNL     1       6.576  -0.598   0.994  1.00  0.00     0.008 A 
ATOM      9  C   UNL     1       6.494   0.465  -1.110  1.00  0.00     0.054 A 
ATOM     10  C   UNL     1       7.335  -1.619   0.467  1.00  0.00     0.051 A 
ATOM     11  C   UNL     1       7.254  -0.549  -1.661  1.00  0.00     0.166 A 
ATOM     12  C   UNL     1       7.677  -1.594  -0.876  1.00  0.00     0.165 A 
ATOM     13  O   UNL     1       7.721  -0.752  -2.948  1.00  0.00    -0.454 OA
ATOM     14  O   UNL     1       8.413  -2.446  -1.700  1.00  0.00    -0.454 OA
ATOM     15  C   UNL     1       8.715  -1.787  -2.908  1.00  0.00     0.468 C 
ENDBRANCH   6   7
ENDBRANCH   1   6
TORSDOF 4
ENDMDL
MODEL 2
REMARK VINA RESULT:      -7.6      2.130      2.524
REMARK SMILES O=C(O)CCc1ccc2c(c1)OCO2
REMARK SMILES IDX 4 1 2 2 1 3 3 4 5 6 6 7 7 8 11 9 8 10 10 11 9 12 12 13 14 14
REMARK SMILES IDX 13 15
REMARK H PARENT 3 5
REMARK Flexibility Score: inf
ROOT
ATOM      1  C   UNL     1       4.714   1.870   0.690  1.00  0.00     0.127 C 
ENDROOT
BRANCH   1   2
ATOM      2  C   UNL     1       4.400   1.159   1.919  1.00  0.00     0.303 C 
ATOM      3  O   UNL     1       5.119   0.321   2.467  1.00  0.00    -0.252 OA
BRANCH   2   4
ATOM      4  O   UNL     1       3.173   1.449   2.536  1.00  0.00    -0.481 OA
ATOM      5  H   UNL     1       3.158   1.403   3.543  1.00  0.00     0.296 HD
ENDBRANCH   2   4
ENDBRANCH   1   2
BRANCH   1   6
ATOM      6  C   UNL     1       6.142   2.227   0.551  1.00  0.00     0.047 C 
BRANCH   6   7
ATOM      7  C   UNL     1       6.993   1.325  -0.228  1.00  0.00    -0.043 A 
ATOM      8  C   UNL     1       8.351   1.560  -0.381  1.00  0.00     0.008 A 
ATOM      9  C   UNL     1       6.460   0.236  -0.866  1.00  0.00     0.054 A 
ATOM     10  C   UNL     1       9.145   0.733  -1.143  1.00  0.00     0.051 A 
ATOM     11  C   UNL     1       7.237  -0.608  -1.636  1.00  0.00     0.166 A 
ATOM     12  C   UNL     1       8.582  -0.363  -1.777  1.00  0.00     0.165 A 
ATOM     13  O   UNL     1       6.921  -1.745  -2.358  1.00  0.00    -0.454 OA
ATOM     14  O   UNL     1       9.091  -1.369  -2.599  1.00  0.00    -0.454 OA
ATOM     15  C   UNL     1       8.027  -2.052  -3.221  1.00  0.00     0.468 C 
ENDBRANCH   6   7
ENDBRANCH   1   6
TORSDOF 4
ENDMDL
MODEL 3
REMARK VINA RESULT:      -7.5      2.005      3.016
REMARK SMILES O=C(O)CCc1ccc2c(c1)OCO2
REMARK SMILES IDX 4 1 2 2 1 3 3 4 5 6 6 7 7 8 11 9 8 10 10 11 9 12 12 13 14 14
REMARK SMILES IDX 13 15
REMARK H PARENT 3 5
REMARK Flexibility Score: inf
ROOT
ATOM      1  C   UNL     1       6.428   1.141   0.761  1.00  0.00     0.127 C 
ENDROOT
BRANCH   1   2
ATOM      2  C   UNL     1       5.198   1.145   1.537  1.00  0.00     0.303 C 
ATOM      3  O   UNL     1       4.893   0.322   2.402  1.00  0.00    -0.252 OA
BRANCH   2   4
ATOM      4  O   UNL     1       4.278   2.173   1.280  1.00  0.00    -0.481 OA
ATOM      5  H   UNL     1       4.218   2.901   1.976  1.00  0.00     0.296 HD
ENDBRANCH   2   4
ENDBRANCH   1   2
BRANCH   1   6
ATOM      6  C   UNL     1       6.250   0.715  -0.644  1.00  0.00     0.047 C 
BRANCH   6   7
ATOM      7  C   UNL     1       7.009  -0.452  -1.099  1.00  0.00    -0.043 A 
ATOM      8  C   UNL     1       7.299  -0.650  -2.440  1.00  0.00     0.008 A 
ATOM      9  C   UNL     1       7.423  -1.408  -0.210  1.00  0.00     0.054 A 
ATOM     10  C   UNL     1       7.981  -1.765  -2.874  1.00  0.00     0.051 A 
ATOM     11  C   UNL     1       8.109  -2.535  -0.622  1.00  0.00     0.166 A 
ATOM     12  C   UNL     1       8.391  -2.717  -1.955  1.00  0.00     0.165 A 
ATOM     13  O   UNL     1       8.616  -3.612   0.084  1.00  0.00    -0.454 OA
ATOM     14  O   UNL     1       9.081  -3.926  -2.059  1.00  0.00    -0.454 OA
ATOM     15  C   UNL     1       8.957  -4.644  -0.853  1.00  0.00     0.468 C 
ENDBRANCH   6   7
ENDBRANCH   1   6
TORSDOF 4
ENDMDL
MODEL 4
REMARK VINA RESULT:      -7.5      1.805      5.289
REMARK SMILES O=C(O)CCc1ccc2c(c1)OCO2
REMARK SMILES IDX 4 1 2 2 1 3 3 4 5 6 6 7 7 8 11 9 8 10 10 11 9 12 12 13 14 14
REMARK SMILES IDX 13 15
REMARK H PARENT 3 5
REMARK Flexibility Score: inf
ROOT
ATOM      1  C   UNL     1       8.309  -0.317  -2.817  1.00  0.00     0.127 C 
ENDROOT
BRANCH   1   2
ATOM      2  C   UNL     1       8.471  -1.743  -3.055  1.00  0.00     0.303 C 
ATOM      3  O   UNL     1       9.539  -2.358  -3.026  1.00  0.00    -0.252 OA
BRANCH   2   4
ATOM      4  O   UNL     1       7.314  -2.484  -3.344  1.00  0.00    -0.481 OA
ATOM      5  H   UNL     1       6.872  -2.941  -2.562  1.00  0.00     0.296 HD
ENDBRANCH   2   4
ENDBRANCH   1   2
BRANCH   1   6
ATOM      6  C   UNL     1       8.765   0.124  -1.482  1.00  0.00     0.047 C 
BRANCH   6   7
ATOM      7  C   UNL     1       7.790   0.094  -0.389  1.00  0.00    -0.043 A 
ATOM      8  C   UNL     1       7.742  -0.959   0.511  1.00  0.00     0.008 A 
ATOM      9  C   UNL     1       6.866   1.096  -0.248  1.00  0.00     0.054 A 
ATOM     10  C   UNL     1       6.802  -1.005   1.517  1.00  0.00     0.051 A 
ATOM     11  C   UNL     1       5.915   1.070   0.754  1.00  0.00     0.166 A 
ATOM     12  C   UNL     1       5.880   0.021   1.640  1.00  0.00     0.165 A 
ATOM     13  O   UNL     1       4.903   1.955   1.082  1.00  0.00    -0.454 OA
ATOM     14  O   UNL     1       4.827   0.272   2.521  1.00  0.00    -0.454 OA
ATOM     15  C   UNL     1       4.017   1.302   2.004  1.00  0.00     0.468 C 
ENDBRANCH   6   7
ENDBRANCH   1   6
TORSDOF 4
ENDMDL
MODEL 5
REMARK VINA RESULT:      -7.4      1.060      2.148
REMARK SMILES O=C(O)CCc1ccc2c(c1)OCO2
REMARK SMILES IDX 4 1 2 2 1 3 3 4 5 6 6 7 7 8 11 9 8 10 10 11 9 12 12 13 14 14
REMARK SMILES IDX 13 15
REMARK H PARENT 3 5
REMARK Flexibility Score: inf
ROOT
ATOM      1  C   UNL     1       5.464   2.400   0.396  1.00  0.00     0.127 C 
ENDROOT
BRANCH   1   2
ATOM      2  C   UNL     1       6.270   3.453   0.994  1.00  0.00     0.303 C 
ATOM      3  O   UNL     1       6.651   3.486   2.165  1.00  0.00    -0.252 OA
BRANCH   2   4
ATOM      4  O   UNL     1       6.647   4.523   0.168  1.00  0.00    -0.481 OA
ATOM      5  H   UNL     1       6.662   4.337  -0.823  1.00  0.00     0.296 HD
ENDBRANCH   2   4
ENDBRANCH   1   2
BRANCH   1   6
ATOM      6  C   UNL     1       5.640   1.076   1.029  1.00  0.00     0.047 C 
BRANCH   6   7
ATOM      7  C   UNL     1       6.409   0.070   0.294  1.00  0.00    -0.043 A 
ATOM      8  C   UNL     1       6.483   0.084  -1.091  1.00  0.00     0.008 A 
ATOM      9  C   UNL     1       7.050  -0.943   0.955  1.00  0.00     0.054 A 
ATOM     10  C   UNL     1       7.176  -0.882  -1.786  1.00  0.00     0.051 A 
ATOM     11  C   UNL     1       7.752  -1.923   0.279  1.00  0.00     0.166 A 
ATOM     12  C   UNL     1       7.818  -1.896  -1.093  1.00  0.00     0.165 A 
ATOM     13  O   UNL     1       8.464  -3.021   0.730  1.00  0.00    -0.454 OA
ATOM     14  O   UNL     1       8.583  -2.997  -1.482  1.00  0.00    -0.454 OA
ATOM     15  C   UNL     1       8.728  -3.877  -0.391  1.00  0.00     0.468 C 
ENDBRANCH   6   7
ENDBRANCH   1   6
TORSDOF 4
ENDMDL
