@<TRIPOS>MOLECULE
/home/cewinharhar/GITHUB/reincatalyze/data/processed/docking_pred/2023-May-17-1006_maxeplen10_maxtrainstep1000_seadep16_gamma099_lrac9e-4_lrcr1e-3_sub6/bdfc35a41e3d78d3bf59a6b88613069133e00868_ligand_6.pdbqt
 15 16 0 0 0
SMALL
GASTEIGER

@<TRIPOS>ATOM
      1  C          6.4180    1.3110    0.7170 C.3     1  UNL1        0.1270
      2  C          5.1870    1.3120    1.4910 C.2     1  UNL1        0.3030
      3  O          4.2470    2.0950    1.3430 O.2     1  UNL1       -0.2520
      4  O          5.0550    0.3370    2.4930 O.3     1  UNL1       -0.4810
      5  H          4.4000   -0.4070    2.3070 H       1  UNL1        0.2960
      6  C          6.2490    0.8520   -0.6790 C.3     1  UNL1        0.0470
      7  C          6.9950   -0.3380   -1.0950 C.2     1  UNL1       -0.0430
      8  C          7.2880   -0.5800   -2.4280 C.2     1  UNL1        0.0080
      9  C          7.3920   -1.2720   -0.1750 C.2     1  UNL1        0.0540
     10  C          7.9570   -1.7160   -2.8240 C.2     1  UNL1        0.0510
     11  C          8.0650   -2.4200   -0.5500 C.2     1  UNL1        0.1660
     12  C          8.3500   -2.6460   -1.8750 C.2     1  UNL1        0.1650
     13  O          8.5540   -3.4810    0.1910 O.2     1  UNL1       -0.4540
     14  O          9.0240   -3.8660   -1.9390 O.2     1  UNL1       -0.4540
     15  C          8.8850   -4.5460   -0.7130 C.3     1  UNL1        0.4680
@<TRIPOS>BOND
     1    10     8    1
     2    10    12    2
     3     8     7    2
     4    14    12    1
     5    14    15    1
     6    12    11    1
     7     7     6    1
     8     7     9    1
     9    15    13    1
    10     6     1    1
    11    11     9    2
    12    11    13    1
    13     1     2    1
    14     3     2    2
    15     2     4    1
    16     5     4    1
