@<TRIPOS>MOLECULE
/home/cewinharhar/GITHUB/reincatalyze/data/processed/docking_pred/2023-May-17-1006_maxeplen10_maxtrainstep1000_seadep16_gamma099_lrac9e-4_lrcr1e-3_sub6/bdfc35a41e3d78d3bf59a6b88613069133e00868_ligand_6.pdbqt
 15 16 0 0 0
SMALL
GASTEIGER

@<TRIPOS>ATOM
      1  C          5.3680    2.8170    0.1540 C.3     1  UNL1        0.1270
      2  C          6.1660    3.7490    0.9350 C.2     1  UNL1        0.3030
      3  O          6.2620    3.7560    2.1640 O.2     1  UNL1       -0.2520
      4  O          6.8890    4.7250    0.2310 O.3     1  UNL1       -0.4810
      5  H          6.5040    5.6570    0.2390 H       1  UNL1        0.2960
      6  C          5.2950    1.4580    0.7320 C.3     1  UNL1        0.0470
      7  C          6.1500    0.4250    0.1440 C.2     1  UNL1       -0.0430
      8  C          6.4170    0.3940   -1.2160 C.2     1  UNL1        0.0080
      9  C          6.6810   -0.5700    0.9200 C.2     1  UNL1        0.0540
     10  C          7.1910   -0.5980   -1.7760 C.2     1  UNL1        0.0510
     11  C          7.4600   -1.5760    0.3800 C.2     1  UNL1        0.1660
     12  C          7.7190   -1.5930   -0.9690 C.2     1  UNL1        0.1650
     13  O          8.0900   -2.6620    0.9610 O.2     1  UNL1       -0.4540
     14  O          8.5190   -2.7100   -1.2120 O.2     1  UNL1       -0.4540
     15  C          8.5010   -3.5560   -0.0850 C.3     1  UNL1        0.4680
@<TRIPOS>BOND
     1    10     8    1
     2    10    12    2
     3     8     7    2
     4    14    12    1
     5    14    15    1
     6    12    11    1
     7    15    13    1
     8     7     6    1
     9     7     9    1
    10     1     6    1
    11     1     2    1
    12     4     5    1
    13     4     2    1
    14    11     9    2
    15    11    13    1
    16     2     3    2
