MODEL 1
REMARK VINA RESULT:      -7.6      0.000      0.000
REMARK SMILES O=C(O)CCc1ccc2c(c1)OCO2
REMARK SMILES IDX 4 1 2 2 1 3 3 4 5 6 6 7 7 8 11 9 8 10 10 11 9 12 12 13 14 14
REMARK SMILES IDX 13 15
REMARK H PARENT 3 5
REMARK Flexibility Score: inf
ROOT
ATOM      1  C   UNL     1       5.399   2.879   0.104  1.00  0.00     0.127 C 
ENDROOT
BRANCH   1   2
ATOM      2  C   UNL     1       6.224   3.856   0.797  1.00  0.00     0.303 C 
ATOM      3  O   UNL     1       6.850   4.774   0.264  1.00  0.00    -0.252 OA
BRANCH   2   4
ATOM      4  O   UNL     1       6.318   3.745   2.194  1.00  0.00    -0.481 OA
ATOM      5  H   UNL     1       6.332   4.612   2.709  1.00  0.00     0.296 HD
ENDBRANCH   2   4
ENDBRANCH   1   2
BRANCH   1   6
ATOM      6  C   UNL     1       5.315   1.571   0.788  1.00  0.00     0.047 C 
BRANCH   6   7
ATOM      7  C   UNL     1       6.101   0.466   0.236  1.00  0.00    -0.043 A 
ATOM      8  C   UNL     1       6.576  -0.558   1.041  1.00  0.00     0.008 A 
ATOM      9  C   UNL     1       6.423   0.432  -1.095  1.00  0.00     0.054 A 
ATOM     10  C   UNL     1       7.346  -1.579   0.529  1.00  0.00     0.051 A 
ATOM     11  C   UNL     1       7.194  -0.582  -1.630  1.00  0.00     0.166 A 
ATOM     12  C   UNL     1       7.658  -1.591  -0.821  1.00  0.00     0.165 A 
ATOM     13  O   UNL     1       7.636  -0.818  -2.920  1.00  0.00    -0.454 OA
ATOM     14  O   UNL     1       8.394  -2.454  -1.634  1.00  0.00    -0.454 OA
ATOM     15  C   UNL     1       8.654  -1.829  -2.870  1.00  0.00     0.468 C 
ENDBRANCH   6   7
ENDBRANCH   1   6
TORSDOF 4
ENDMDL
MODEL 2
REMARK VINA RESULT:      -7.6      2.119      2.507
REMARK SMILES O=C(O)CCc1ccc2c(c1)OCO2
REMARK SMILES IDX 4 1 2 2 1 3 3 4 5 6 6 7 7 8 11 9 8 10 10 11 9 12 12 13 14 14
REMARK SMILES IDX 13 15
REMARK H PARENT 3 5
REMARK Flexibility Score: inf
ROOT
ATOM      1  C   UNL     1       4.696   1.872   0.675  1.00  0.00     0.127 C 
ENDROOT
BRANCH   1   2
ATOM      2  C   UNL     1       4.411   1.163   1.913  1.00  0.00     0.303 C 
ATOM      3  O   UNL     1       5.155   0.345   2.458  1.00  0.00    -0.252 OA
BRANCH   2   4
ATOM      4  O   UNL     1       3.185   1.430   2.541  1.00  0.00    -0.481 OA
ATOM      5  H   UNL     1       3.155   2.249   3.128  1.00  0.00     0.296 HD
ENDBRANCH   2   4
ENDBRANCH   1   2
BRANCH   1   6
ATOM      6  C   UNL     1       6.117   2.245   0.511  1.00  0.00     0.047 C 
BRANCH   6   7
ATOM      7  C   UNL     1       6.972   1.334  -0.252  1.00  0.00    -0.043 A 
ATOM      8  C   UNL     1       8.335   1.554  -0.378  1.00  0.00     0.008 A 
ATOM      9  C   UNL     1       6.439   0.252  -0.901  1.00  0.00     0.054 A 
ATOM     10  C   UNL     1       9.135   0.718  -1.125  1.00  0.00     0.051 A 
ATOM     11  C   UNL     1       7.222  -0.601  -1.655  1.00  0.00     0.166 A 
ATOM     12  C   UNL     1       8.572  -0.372  -1.770  1.00  0.00     0.165 A 
ATOM     13  O   UNL     1       6.907  -1.735  -2.383  1.00  0.00    -0.454 OA
ATOM     14  O   UNL     1       9.085  -1.384  -2.583  1.00  0.00    -0.454 OA
ATOM     15  C   UNL     1       8.026  -2.055  -3.224  1.00  0.00     0.468 C 
ENDBRANCH   6   7
ENDBRANCH   1   6
TORSDOF 4
ENDMDL
MODEL 3
REMARK VINA RESULT:      -7.5      1.975      2.880
REMARK SMILES O=C(O)CCc1ccc2c(c1)OCO2
REMARK SMILES IDX 4 1 2 2 1 3 3 4 5 6 6 7 7 8 11 9 8 10 10 11 9 12 12 13 14 14
REMARK SMILES IDX 13 15
REMARK H PARENT 3 5
REMARK Flexibility Score: inf
ROOT
ATOM      1  C   UNL     1       6.418   1.311   0.717  1.00  0.00     0.127 C 
ENDROOT
BRANCH   1   2
ATOM      2  C   UNL     1       5.187   1.312   1.491  1.00  0.00     0.303 C 
ATOM      3  O   UNL     1       4.247   2.095   1.343  1.00  0.00    -0.252 OA
BRANCH   2   4
ATOM      4  O   UNL     1       5.055   0.337   2.493  1.00  0.00    -0.481 OA
ATOM      5  H   UNL     1       4.400  -0.407   2.307  1.00  0.00     0.296 HD
ENDBRANCH   2   4
ENDBRANCH   1   2
BRANCH   1   6
ATOM      6  C   UNL     1       6.249   0.852  -0.679  1.00  0.00     0.047 C 
BRANCH   6   7
ATOM      7  C   UNL     1       6.995  -0.338  -1.095  1.00  0.00    -0.043 A 
ATOM      8  C   UNL     1       7.288  -0.580  -2.428  1.00  0.00     0.008 A 
ATOM      9  C   UNL     1       7.392  -1.272  -0.175  1.00  0.00     0.054 A 
ATOM     10  C   UNL     1       7.957  -1.716  -2.824  1.00  0.00     0.051 A 
ATOM     11  C   UNL     1       8.065  -2.420  -0.550  1.00  0.00     0.166 A 
ATOM     12  C   UNL     1       8.350  -2.646  -1.875  1.00  0.00     0.165 A 
ATOM     13  O   UNL     1       8.554  -3.481   0.191  1.00  0.00    -0.454 OA
ATOM     14  O   UNL     1       9.024  -3.866  -1.939  1.00  0.00    -0.454 OA
ATOM     15  C   UNL     1       8.885  -4.546  -0.713  1.00  0.00     0.468 C 
ENDBRANCH   6   7
ENDBRANCH   1   6
TORSDOF 4
ENDMDL
MODEL 4
REMARK VINA RESULT:      -7.5      0.943      2.112
REMARK SMILES O=C(O)CCc1ccc2c(c1)OCO2
REMARK SMILES IDX 4 1 2 2 1 3 3 4 5 6 6 7 7 8 11 9 8 10 10 11 9 12 12 13 14 14
REMARK SMILES IDX 13 15
REMARK H PARENT 3 5
REMARK Flexibility Score: inf
ROOT
ATOM      1  C   UNL     1       5.368   2.817   0.154  1.00  0.00     0.127 C 
ENDROOT
BRANCH   1   2
ATOM      2  C   UNL     1       6.166   3.749   0.935  1.00  0.00     0.303 C 
ATOM      3  O   UNL     1       6.262   3.756   2.164  1.00  0.00    -0.252 OA
BRANCH   2   4
ATOM      4  O   UNL     1       6.889   4.725   0.231  1.00  0.00    -0.481 OA
ATOM      5  H   UNL     1       6.504   5.657   0.239  1.00  0.00     0.296 HD
ENDBRANCH   2   4
ENDBRANCH   1   2
BRANCH   1   6
ATOM      6  C   UNL     1       5.295   1.458   0.732  1.00  0.00     0.047 C 
BRANCH   6   7
ATOM      7  C   UNL     1       6.150   0.425   0.144  1.00  0.00    -0.043 A 
ATOM      8  C   UNL     1       6.417   0.394  -1.216  1.00  0.00     0.008 A 
ATOM      9  C   UNL     1       6.681  -0.570   0.920  1.00  0.00     0.054 A 
ATOM     10  C   UNL     1       7.191  -0.598  -1.776  1.00  0.00     0.051 A 
ATOM     11  C   UNL     1       7.460  -1.576   0.380  1.00  0.00     0.166 A 
ATOM     12  C   UNL     1       7.719  -1.593  -0.969  1.00  0.00     0.165 A 
ATOM     13  O   UNL     1       8.090  -2.662   0.961  1.00  0.00    -0.454 OA
ATOM     14  O   UNL     1       8.519  -2.710  -1.212  1.00  0.00    -0.454 OA
ATOM     15  C   UNL     1       8.501  -3.556  -0.085  1.00  0.00     0.468 C 
ENDBRANCH   6   7
ENDBRANCH   1   6
TORSDOF 4
ENDMDL
MODEL 5
REMARK VINA RESULT:      -7.4      1.800      5.259
REMARK SMILES O=C(O)CCc1ccc2c(c1)OCO2
REMARK SMILES IDX 4 1 2 2 1 3 3 4 5 6 6 7 7 8 11 9 8 10 10 11 9 12 12 13 14 14
REMARK SMILES IDX 13 15
REMARK H PARENT 3 5
REMARK Flexibility Score: inf
ROOT
ATOM      1  C   UNL     1       8.269  -0.199  -2.825  1.00  0.00     0.127 C 
ENDROOT
BRANCH   1   2
ATOM      2  C   UNL     1       8.497  -1.619  -3.043  1.00  0.00     0.303 C 
ATOM      3  O   UNL     1       9.582  -2.194  -2.946  1.00  0.00    -0.252 OA
BRANCH   2   4
ATOM      4  O   UNL     1       7.387  -2.403  -3.393  1.00  0.00    -0.481 OA
ATOM      5  H   UNL     1       6.760  -2.647  -2.642  1.00  0.00     0.296 HD
ENDBRANCH   2   4
ENDBRANCH   1   2
BRANCH   1   6
ATOM      6  C   UNL     1       8.717   0.285  -1.502  1.00  0.00     0.047 C 
BRANCH   6   7
ATOM      7  C   UNL     1       7.757   0.223  -0.397  1.00  0.00    -0.043 A 
ATOM      8  C   UNL     1       7.762  -0.826   0.509  1.00  0.00     0.008 A 
ATOM      9  C   UNL     1       6.795   1.187  -0.251  1.00  0.00     0.054 A 
ATOM     10  C   UNL     1       6.837  -0.905   1.526  1.00  0.00     0.051 A 
ATOM     11  C   UNL     1       5.857   1.129   0.762  1.00  0.00     0.166 A 
ATOM     12  C   UNL     1       5.874   0.084   1.654  1.00  0.00     0.165 A 
ATOM     13  O   UNL     1       4.813   1.974   1.098  1.00  0.00    -0.454 OA
ATOM     14  O   UNL     1       4.823   0.298   2.547  1.00  0.00    -0.454 OA
ATOM     15  C   UNL     1       3.965   1.291   2.034  1.00  0.00     0.468 C 
ENDBRANCH   6   7
ENDBRANCH   1   6
TORSDOF 4
ENDMDL
