@<TRIPOS>MOLECULE
/home/cewinharhar/GITHUB/reincatalyze/data/processed/docking_pred/2023-May-17-1006_maxeplen10_maxtrainstep1000_seadep16_gamma099_lrac9e-4_lrcr1e-3_sub6/bdfc35a41e3d78d3bf59a6b88613069133e00868_ligand_6.pdbqt
 15 16 0 0 0
SMALL
GASTEIGER

@<TRIPOS>ATOM
      1  C          5.3990    2.8790    0.1040 C.3     1  UNL1        0.1270
      2  C          6.2240    3.8560    0.7970 C.2     1  UNL1        0.3030
      3  O          6.8500    4.7740    0.2640 O.2     1  UNL1       -0.2520
      4  O          6.3180    3.7450    2.1940 O.3     1  UNL1       -0.4810
      5  H          6.3320    4.6120    2.7090 H       1  UNL1        0.2960
      6  C          5.3150    1.5710    0.7880 C.3     1  UNL1        0.0470
      7  C          6.1010    0.4660    0.2360 C.2     1  UNL1       -0.0430
      8  C          6.5760   -0.5580    1.0410 C.2     1  UNL1        0.0080
      9  C          6.4230    0.4320   -1.0950 C.2     1  UNL1        0.0540
     10  C          7.3460   -1.5790    0.5290 C.2     1  UNL1        0.0510
     11  C          7.1940   -0.5820   -1.6300 C.2     1  UNL1        0.1660
     12  C          7.6580   -1.5910   -0.8210 C.2     1  UNL1        0.1650
     13  O          7.6360   -0.8180   -2.9200 O.2     1  UNL1       -0.4540
     14  O          8.3940   -2.4540   -1.6340 O.2     1  UNL1       -0.4540
     15  C          8.6540   -1.8290   -2.8700 C.3     1  UNL1        0.4680
@<TRIPOS>BOND
     1    13    15    1
     2    13    11    1
     3    15    14    1
     4    14    12    1
     5    11     9    1
     6    11    12    2
     7     9     7    2
     8    12    10    1
     9     1     6    1
    10     1     2    1
    11     7     6    1
    12     7     8    1
    13     3     2    2
    14    10     8    2
    15     2     4    1
    16     4     5    1
