@<TRIPOS>MOLECULE
/home/cewinharhar/GITHUB/reincatalyze/data/processed/docking_pred/2023-May-17-1006_maxeplen10_maxtrainstep1000_seadep16_gamma099_lrac9e-4_lrcr1e-3_sub6/bdfc35a41e3d78d3bf59a6b88613069133e00868_ligand_6.pdbqt
 15 16 0 0 0
SMALL
GASTEIGER

@<TRIPOS>ATOM
      1  C          8.2690   -0.1990   -2.8250 C.3     1  UNL1        0.1270
      2  C          8.4970   -1.6190   -3.0430 C.2     1  UNL1        0.3030
      3  O          9.5820   -2.1940   -2.9460 O.2     1  UNL1       -0.2520
      4  O          7.3870   -2.4030   -3.3930 O.3     1  UNL1       -0.4810
      5  H          6.7600   -2.6470   -2.6420 H       1  UNL1        0.2960
      6  C          8.7170    0.2850   -1.5020 C.3     1  UNL1        0.0470
      7  C          7.7570    0.2230   -0.3970 C.2     1  UNL1       -0.0430
      8  C          7.7620   -0.8260    0.5090 C.2     1  UNL1        0.0080
      9  C          6.7950    1.1870   -0.2510 C.2     1  UNL1        0.0540
     10  C          6.8370   -0.9050    1.5260 C.2     1  UNL1        0.0510
     11  C          5.8570    1.1290    0.7620 C.2     1  UNL1        0.1660
     12  C          5.8740    0.0840    1.6540 C.2     1  UNL1        0.1650
     13  O          4.8130    1.9740    1.0980 O.2     1  UNL1       -0.4540
     14  O          4.8230    0.2980    2.5470 O.2     1  UNL1       -0.4540
     15  C          3.9650    1.2910    2.0340 C.3     1  UNL1        0.4680
@<TRIPOS>BOND
     1     4     2    1
     2     4     5    1
     3     2     3    2
     4     2     1    1
     5     1     6    1
     6     6     7    1
     7     7     9    2
     8     7     8    1
     9     9    11    1
    10     8    10    2
    11    11    13    1
    12    11    12    2
    13    13    15    1
    14    10    12    1
    15    12    14    1
    16    15    14    1
