@<TRIPOS>MOLECULE
/home/cewinharhar/GITHUB/reincatalyze/data/processed/docking_pred/2023-May-17-1006_maxeplen10_maxtrainstep1000_seadep16_gamma099_lrac9e-4_lrcr1e-3_sub6/bdfc35a41e3d78d3bf59a6b88613069133e00868_ligand_6.pdbqt
 15 16 0 0 0
SMALL
GASTEIGER

@<TRIPOS>ATOM
      1  C          4.6960    1.8720    0.6750 C.3     1  UNL1        0.1270
      2  C          4.4110    1.1630    1.9130 C.2     1  UNL1        0.3030
      3  O          5.1550    0.3450    2.4580 O.2     1  UNL1       -0.2520
      4  O          3.1850    1.4300    2.5410 O.3     1  UNL1       -0.4810
      5  H          3.1550    2.2490    3.1280 H       1  UNL1        0.2960
      6  C          6.1170    2.2450    0.5110 C.3     1  UNL1        0.0470
      7  C          6.9720    1.3340   -0.2520 C.2     1  UNL1       -0.0430
      8  C          8.3350    1.5540   -0.3780 C.2     1  UNL1        0.0080
      9  C          6.4390    0.2520   -0.9010 C.2     1  UNL1        0.0540
     10  C          9.1350    0.7180   -1.1250 C.2     1  UNL1        0.0510
     11  C          7.2220   -0.6010   -1.6550 C.2     1  UNL1        0.1660
     12  C          8.5720   -0.3720   -1.7700 C.2     1  UNL1        0.1650
     13  O          6.9070   -1.7350   -2.3830 O.2     1  UNL1       -0.4540
     14  O          9.0850   -1.3840   -2.5830 O.2     1  UNL1       -0.4540
     15  C          8.0260   -2.0550   -3.2240 C.3     1  UNL1        0.4680
@<TRIPOS>BOND
     1    15    14    1
     2    15    13    1
     3    14    12    1
     4    13    11    1
     5    12    11    2
     6    12    10    1
     7    11     9    1
     8    10     8    2
     9     9     7    2
    10     8     7    1
    11     7     6    1
    12     6     1    1
    13     1     2    1
    14     2     3    2
    15     2     4    1
    16     4     5    1
