@<TRIPOS>MOLECULE
/home/cewinharhar/GITHUB/reincatalyze/data/processed/docking_pred/2023-May-17-1006_maxeplen10_maxtrainstep1000_seadep16_gamma099_lrac9e-4_lrcr1e-3_sub6/be159ddb300952c005bf82764a5ce22912cca304_ligand_6.pdbqt
 15 16 0 0 0
SMALL
GASTEIGER

@<TRIPOS>ATOM
      1  C          6.3870    1.3310    0.6320 C.3     1  UNL1        0.1270
      2  C          5.1820    1.3220    1.4460 C.2     1  UNL1        0.3030
      3  O          4.2550    2.1300    1.3650 O.2     1  UNL1       -0.2520
      4  O          5.0620    0.3060    2.4080 O.3     1  UNL1       -0.4810
      5  H          5.3360   -0.6190    2.1160 H       1  UNL1        0.2960
      6  C          6.1770    0.8640   -0.7550 C.3     1  UNL1        0.0470
      7  C          6.9500   -0.2960   -1.2040 C.2     1  UNL1       -0.0430
      8  C          7.2680   -0.4820   -2.5400 C.2     1  UNL1        0.0080
      9  C          7.3490   -1.2580   -0.3140 C.2     1  UNL1        0.0540
     10  C          7.9630   -1.5920   -2.9680 C.2     1  UNL1        0.0510
     11  C          8.0480   -2.3780   -0.7200 C.2     1  UNL1        0.1660
     12  C          8.3580   -2.5490   -2.0480 C.2     1  UNL1        0.1650
     13  O          8.5450   -3.4590   -0.0120 O.2     1  UNL1       -0.4540
     14  O          9.0550   -3.7550   -2.1470 O.2     1  UNL1       -0.4540
     15  C          8.9080   -4.4830   -0.9500 C.3     1  UNL1        0.4680
@<TRIPOS>BOND
     1    10     8    1
     2    10    12    2
     3     8     7    2
     4    14    12    1
     5    14    15    1
     6    12    11    1
     7     7     6    1
     8     7     9    1
     9    15    13    1
    10     6     1    1
    11    11     9    2
    12    11    13    1
    13     1     2    1
    14     3     2    2
    15     2     4    1
    16     5     4    1
