@<TRIPOS>MOLECULE
/home/cewinharhar/GITHUB/reincatalyze/data/processed/docking_pred/2023-May-17-1006_maxeplen10_maxtrainstep1000_seadep16_gamma099_lrac9e-4_lrcr1e-3_sub6/be159ddb300952c005bf82764a5ce22912cca304_ligand_6.pdbqt
 15 16 0 0 0
SMALL
GASTEIGER

@<TRIPOS>ATOM
      1  C          5.3880    2.8330    0.0740 C.3     1  UNL1        0.1270
      2  C          6.1070    3.8430    0.8340 C.2     1  UNL1        0.3030
      3  O          6.1080    3.9530    2.0610 O.2     1  UNL1       -0.2520
      4  O          6.8670    4.7750    0.1090 O.3     1  UNL1       -0.4810
      5  H          7.8010    4.4900   -0.1410 H       1  UNL1        0.2960
      6  C          5.3780    1.4980    0.7100 C.3     1  UNL1        0.0470
      7  C          6.2260    0.4600    0.1190 C.2     1  UNL1       -0.0430
      8  C          6.5330    0.4580   -1.2330 C.2     1  UNL1        0.0080
      9  C          6.7110   -0.5670    0.8840 C.2     1  UNL1        0.0540
     10  C          7.3000   -0.5370   -1.7970 C.2     1  UNL1        0.0510
     11  C          7.4830   -1.5760    0.3400 C.2     1  UNL1        0.1660
     12  C          7.7800   -1.5640   -1.0020 C.2     1  UNL1        0.1650
     13  O          8.0700   -2.6920    0.9090 O.2     1  UNL1       -0.4540
     14  O          8.5620   -2.6940   -1.2510 O.2     1  UNL1       -0.4540
     15  C          8.4910   -3.5670   -0.1480 C.3     1  UNL1        0.4680
@<TRIPOS>BOND
     1    10     8    1
     2    10    12    2
     3    14    12    1
     4    14    15    1
     5     8     7    2
     6    12    11    1
     7    15    13    1
     8     5     4    1
     9     1     6    1
    10     1     2    1
    11     4     2    1
    12     7     6    1
    13     7     9    1
    14    11     9    2
    15    11    13    1
    16     2     3    2
