@<TRIPOS>MOLECULE
/home/cewinharhar/GITHUB/reincatalyze/data/processed/docking_pred/2023-May-17-1006_maxeplen10_maxtrainstep1000_seadep16_gamma099_lrac9e-4_lrcr1e-3_sub6/be159ddb300952c005bf82764a5ce22912cca304_ligand_6.pdbqt
 15 16 0 0 0
SMALL
GASTEIGER

@<TRIPOS>ATOM
      1  C          8.1960   -0.2050   -2.8390 C.3     1  UNL1        0.1270
      2  C          8.4480   -1.6230   -3.0440 C.2     1  UNL1        0.3030
      3  O          9.5390   -2.1820   -2.9220 O.2     1  UNL1       -0.2520
      4  O          7.3560   -2.4250   -3.4110 O.3     1  UNL1       -0.4810
      5  H          7.3640   -3.3730   -3.0670 H       1  UNL1        0.2960
      6  C          8.6560    0.3030   -1.5290 C.3     1  UNL1        0.0470
      7  C          7.7120    0.2470   -0.4110 C.2     1  UNL1       -0.0430
      8  C          7.7480   -0.7820    0.5170 C.2     1  UNL1        0.0080
      9  C          6.7350    1.1970   -0.2710 C.2     1  UNL1        0.0540
     10  C          6.8380   -0.8560    1.5480 C.2     1  UNL1        0.0510
     11  C          5.8120    1.1440    0.7560 C.2     1  UNL1        0.1660
     12  C          5.8600    0.1180    1.6690 C.2     1  UNL1        0.1650
     13  O          4.7580    1.9770    1.0880 O.2     1  UNL1       -0.4540
     14  O          4.8170    0.3320    2.5710 O.2     1  UNL1       -0.4540
     15  C          3.9350    1.2990    2.0500 C.3     1  UNL1        0.4680
@<TRIPOS>BOND
     1     4     5    1
     2     4     2    1
     3     2     3    2
     4     2     1    1
     5     1     6    1
     6     6     7    1
     7     7     9    2
     8     7     8    1
     9     9    11    1
    10     8    10    2
    11    11    13    1
    12    11    12    2
    13    13    15    1
    14    10    12    1
    15    12    14    1
    16    15    14    1
