@<TRIPOS>MOLECULE
/home/cewinharhar/GITHUB/reincatalyze/data/processed/docking_pred/2023-May-17-1006_maxeplen10_maxtrainstep1000_seadep16_gamma099_lrac9e-4_lrcr1e-3_sub6/be159ddb300952c005bf82764a5ce22912cca304_ligand_6.pdbqt
 15 16 0 0 0
SMALL
GASTEIGER

@<TRIPOS>ATOM
      1  C          5.4030    2.8780    0.1230 C.3     1  UNL1        0.1270
      2  C          6.2330    3.8490    0.8190 C.2     1  UNL1        0.3030
      3  O          6.8540    4.7720    0.2890 O.2     1  UNL1       -0.2520
      4  O          6.3380    3.7250    2.2130 O.3     1  UNL1       -0.4810
      5  H          6.4340    4.5860    2.7310 H       1  UNL1        0.2960
      6  C          5.3150    1.5670    0.8020 C.3     1  UNL1        0.0470
      7  C          6.0990    0.4620    0.2460 C.2     1  UNL1       -0.0430
      8  C          6.5560   -0.5750    1.0440 C.2     1  UNL1        0.0080
      9  C          6.4380    0.4430   -1.0810 C.2     1  UNL1        0.0540
     10  C          7.3240   -1.5960    0.5300 C.2     1  UNL1        0.0510
     11  C          7.2070   -0.5720   -1.6190 C.2     1  UNL1        0.1660
     12  C          7.6520   -1.5940   -0.8160 C.2     1  UNL1        0.1650
     13  O          7.6630   -0.7950   -2.9060 O.2     1  UNL1       -0.4540
     14  O          8.3920   -2.4530   -1.6310 O.2     1  UNL1       -0.4540
     15  C          8.6720   -1.8150   -2.8560 C.3     1  UNL1        0.4680
@<TRIPOS>BOND
     1    13    15    1
     2    13    11    1
     3    15    14    1
     4    14    12    1
     5    11     9    1
     6    11    12    2
     7     9     7    2
     8    12    10    1
     9     1     6    1
    10     1     2    1
    11     7     6    1
    12     7     8    1
    13     3     2    2
    14    10     8    2
    15     2     4    1
    16     4     5    1
