@<TRIPOS>MOLECULE
/home/cewinharhar/GITHUB/reincatalyze/data/processed/docking_pred/2023-May-17-1006_maxeplen10_maxtrainstep1000_seadep16_gamma099_lrac9e-4_lrcr1e-3_sub6/be159ddb300952c005bf82764a5ce22912cca304_ligand_6.pdbqt
 15 16 0 0 0
SMALL
GASTEIGER

@<TRIPOS>ATOM
      1  C          4.7070    1.8610    0.6850 C.3     1  UNL1        0.1270
      2  C          4.4090    1.1540    1.9200 C.2     1  UNL1        0.3030
      3  O          5.1420    0.3290    2.4690 O.2     1  UNL1       -0.2520
      4  O          3.1820    1.4310    2.5420 O.3     1  UNL1       -0.4810
      5  H          2.3900    0.8920    2.2260 H       1  UNL1        0.2960
      6  C          6.1310    2.2300    0.5330 C.3     1  UNL1        0.0470
      7  C          6.9860    1.3270   -0.2390 C.2     1  UNL1       -0.0430
      8  C          8.3460    1.5600   -0.3800 C.2     1  UNL1        0.0080
      9  C          6.4560    0.2390   -0.8800 C.2     1  UNL1        0.0540
     10  C          9.1450    0.7310   -1.1360 C.2     1  UNL1        0.0510
     11  C          7.2390   -0.6070   -1.6430 C.2     1  UNL1        0.1660
     12  C          8.5850   -0.3650   -1.7740 C.2     1  UNL1        0.1650
     13  O          6.9260   -1.7450   -2.3670 O.2     1  UNL1       -0.4540
     14  O          9.0990   -1.3730   -2.5910 O.2     1  UNL1       -0.4540
     15  C          8.0380   -2.0540   -3.2200 C.3     1  UNL1        0.4680
@<TRIPOS>BOND
     1    15    14    1
     2    15    13    1
     3    14    12    1
     4    13    11    1
     5    12    11    2
     6    12    10    1
     7    11     9    1
     8    10     8    2
     9     9     7    2
    10     8     7    1
    11     7     6    1
    12     6     1    1
    13     1     2    1
    14     2     3    2
    15     2     4    1
    16     5     4    1
