@<TRIPOS>MOLECULE
/home/cewinharhar/GITHUB/reincatalyze/data/processed/docking_pred/2023-May-17-1006_maxeplen10_maxtrainstep1000_seadep16_gamma099_lrac9e-4_lrcr1e-3_sub6/bef029ec7f2d3d0301694813bb63cef4e6663bb8_ligand_6.pdbqt
 15 16 0 0 0
SMALL
GASTEIGER

@<TRIPOS>ATOM
      1  C          5.4090    2.8820    0.1160 C.3     1  UNL1        0.1270
      2  C          6.2390    3.8530    0.8110 C.2     1  UNL1        0.3030
      3  O          6.8660    4.7710    0.2800 O.2     1  UNL1       -0.2520
      4  O          6.3360    3.7360    2.2070 O.3     1  UNL1       -0.4810
      5  H          5.8770    4.4530    2.7470 H       1  UNL1        0.2960
      6  C          5.3210    1.5710    0.7950 C.3     1  UNL1        0.0470
      7  C          6.0980    0.4640    0.2350 C.2     1  UNL1       -0.0430
      8  C          6.5450   -0.5820    1.0270 C.2     1  UNL1        0.0080
      9  C          6.4420    0.4510   -1.0910 C.2     1  UNL1        0.0540
     10  C          7.3070   -1.6050    0.5080 C.2     1  UNL1        0.0510
     11  C          7.2050   -0.5660   -1.6340 C.2     1  UNL1        0.1660
     12  C          7.6400   -1.5970   -0.8370 C.2     1  UNL1        0.1650
     13  O          7.6630   -0.7840   -2.9210 O.2     1  UNL1       -0.4540
     14  O          8.3760   -2.4560   -1.6550 O.2     1  UNL1       -0.4540
     15  C          8.6640   -1.8120   -2.8740 C.3     1  UNL1        0.4680
@<TRIPOS>BOND
     1    13    15    1
     2    13    11    1
     3    15    14    1
     4    14    12    1
     5    11     9    1
     6    11    12    2
     7     9     7    2
     8    12    10    1
     9     1     6    1
    10     1     2    1
    11     7     6    1
    12     7     8    1
    13     3     2    2
    14    10     8    2
    15     2     4    1
    16     4     5    1
