MODEL 1
REMARK VINA RESULT:      -7.7      0.000      0.000
REMARK SMILES O=C(O)CCc1ccc2c(c1)OCO2
REMARK SMILES IDX 4 1 2 2 1 3 3 4 5 6 6 7 7 8 11 9 8 10 10 11 9 12 12 13 14 14
REMARK SMILES IDX 13 15
REMARK H PARENT 3 5
REMARK Flexibility Score: inf
ROOT
ATOM      1  C   UNL     1       5.409   2.882   0.116  1.00  0.00     0.127 C 
ENDROOT
BRANCH   1   2
ATOM      2  C   UNL     1       6.239   3.853   0.811  1.00  0.00     0.303 C 
ATOM      3  O   UNL     1       6.866   4.771   0.280  1.00  0.00    -0.252 OA
BRANCH   2   4
ATOM      4  O   UNL     1       6.336   3.736   2.207  1.00  0.00    -0.481 OA
ATOM      5  H   UNL     1       5.877   4.453   2.747  1.00  0.00     0.296 HD
ENDBRANCH   2   4
ENDBRANCH   1   2
BRANCH   1   6
ATOM      6  C   UNL     1       5.321   1.571   0.795  1.00  0.00     0.047 C 
BRANCH   6   7
ATOM      7  C   UNL     1       6.098   0.464   0.235  1.00  0.00    -0.043 A 
ATOM      8  C   UNL     1       6.545  -0.582   1.027  1.00  0.00     0.008 A 
ATOM      9  C   UNL     1       6.442   0.451  -1.091  1.00  0.00     0.054 A 
ATOM     10  C   UNL     1       7.307  -1.605   0.508  1.00  0.00     0.051 A 
ATOM     11  C   UNL     1       7.205  -0.566  -1.634  1.00  0.00     0.166 A 
ATOM     12  C   UNL     1       7.640  -1.597  -0.837  1.00  0.00     0.165 A 
ATOM     13  O   UNL     1       7.663  -0.784  -2.921  1.00  0.00    -0.454 OA
ATOM     14  O   UNL     1       8.376  -2.456  -1.655  1.00  0.00    -0.454 OA
ATOM     15  C   UNL     1       8.664  -1.812  -2.874  1.00  0.00     0.468 C 
ENDBRANCH   6   7
ENDBRANCH   1   6
TORSDOF 4
ENDMDL
MODEL 2
REMARK VINA RESULT:      -7.6      2.128      2.522
REMARK SMILES O=C(O)CCc1ccc2c(c1)OCO2
REMARK SMILES IDX 4 1 2 2 1 3 3 4 5 6 6 7 7 8 11 9 8 10 10 11 9 12 12 13 14 14
REMARK SMILES IDX 13 15
REMARK H PARENT 3 5
REMARK Flexibility Score: inf
ROOT
ATOM      1  C   UNL     1       4.717   1.862   0.702  1.00  0.00     0.127 C 
ENDROOT
BRANCH   1   2
ATOM      2  C   UNL     1       4.418   1.138   1.927  1.00  0.00     0.303 C 
ATOM      3  O   UNL     1       5.151   0.307   2.466  1.00  0.00    -0.252 OA
BRANCH   2   4
ATOM      4  O   UNL     1       3.190   1.408   2.552  1.00  0.00    -0.481 OA
ATOM      5  H   UNL     1       3.230   1.632   3.534  1.00  0.00     0.296 HD
ENDBRANCH   2   4
ENDBRANCH   1   2
BRANCH   1   6
ATOM      6  C   UNL     1       6.143   2.221   0.549  1.00  0.00     0.047 C 
BRANCH   6   7
ATOM      7  C   UNL     1       6.990   1.314  -0.228  1.00  0.00    -0.043 A 
ATOM      8  C   UNL     1       8.352   1.533  -0.364  1.00  0.00     0.008 A 
ATOM      9  C   UNL     1       6.450   0.236  -0.879  1.00  0.00     0.054 A 
ATOM     10  C   UNL     1       9.144   0.701  -1.124  1.00  0.00     0.051 A 
ATOM     11  C   UNL     1       7.225  -0.612  -1.646  1.00  0.00     0.166 A 
ATOM     12  C   UNL     1       8.574  -0.383  -1.772  1.00  0.00     0.165 A 
ATOM     13  O   UNL     1       6.902  -1.741  -2.379  1.00  0.00    -0.454 OA
ATOM     14  O   UNL     1       9.079  -1.391  -2.595  1.00  0.00    -0.454 OA
ATOM     15  C   UNL     1       8.013  -2.056  -3.232  1.00  0.00     0.468 C 
ENDBRANCH   6   7
ENDBRANCH   1   6
TORSDOF 4
ENDMDL
MODEL 3
REMARK VINA RESULT:      -7.5      1.960      2.869
REMARK SMILES O=C(O)CCc1ccc2c(c1)OCO2
REMARK SMILES IDX 4 1 2 2 1 3 3 4 5 6 6 7 7 8 11 9 8 10 10 11 9 12 12 13 14 14
REMARK SMILES IDX 13 15
REMARK H PARENT 3 5
REMARK Flexibility Score: inf
ROOT
ATOM      1  C   UNL     1       6.427   1.334   0.678  1.00  0.00     0.127 C 
ENDROOT
BRANCH   1   2
ATOM      2  C   UNL     1       5.189   1.350   1.442  1.00  0.00     0.303 C 
ATOM      3  O   UNL     1       4.263   2.148   1.290  1.00  0.00    -0.252 OA
BRANCH   2   4
ATOM      4  O   UNL     1       5.035   0.374   2.439  1.00  0.00    -0.481 OA
ATOM      5  H   UNL     1       5.160  -0.583   2.148  1.00  0.00     0.296 HD
ENDBRANCH   2   4
ENDBRANCH   1   2
BRANCH   1   6
ATOM      6  C   UNL     1       6.264   0.876  -0.718  1.00  0.00     0.047 C 
BRANCH   6   7
ATOM      7  C   UNL     1       7.008  -0.316  -1.131  1.00  0.00    -0.043 A 
ATOM      8  C   UNL     1       7.310  -0.558  -2.462  1.00  0.00     0.008 A 
ATOM      9  C   UNL     1       7.395  -1.254  -0.210  1.00  0.00     0.054 A 
ATOM     10  C   UNL     1       7.978  -1.696  -2.855  1.00  0.00     0.051 A 
ATOM     11  C   UNL     1       8.066  -2.403  -0.581  1.00  0.00     0.166 A 
ATOM     12  C   UNL     1       8.360  -2.628  -1.904  1.00  0.00     0.165 A 
ATOM     13  O   UNL     1       8.546  -3.467   0.162  1.00  0.00    -0.454 OA
ATOM     14  O   UNL     1       9.030  -3.851  -1.965  1.00  0.00    -0.454 OA
ATOM     15  C   UNL     1       8.879  -4.532  -0.741  1.00  0.00     0.468 C 
ENDBRANCH   6   7
ENDBRANCH   1   6
TORSDOF 4
ENDMDL
MODEL 4
REMARK VINA RESULT:      -7.5      1.791      5.282
REMARK SMILES O=C(O)CCc1ccc2c(c1)OCO2
REMARK SMILES IDX 4 1 2 2 1 3 3 4 5 6 6 7 7 8 11 9 8 10 10 11 9 12 12 13 14 14
REMARK SMILES IDX 13 15
REMARK H PARENT 3 5
REMARK Flexibility Score: inf
ROOT
ATOM      1  C   UNL     1       8.312  -0.320  -2.865  1.00  0.00     0.127 C 
ENDROOT
BRANCH   1   2
ATOM      2  C   UNL     1       8.474  -1.749  -3.079  1.00  0.00     0.303 C 
ATOM      3  O   UNL     1       9.542  -2.363  -3.043  1.00  0.00    -0.252 OA
BRANCH   2   4
ATOM      4  O   UNL     1       7.317  -2.496  -3.348  1.00  0.00    -0.481 OA
ATOM      5  H   UNL     1       7.372  -3.486  -3.163  1.00  0.00     0.296 HD
ENDBRANCH   2   4
ENDBRANCH   1   2
BRANCH   1   6
ATOM      6  C   UNL     1       8.764   0.144  -1.536  1.00  0.00     0.047 C 
BRANCH   6   7
ATOM      7  C   UNL     1       7.796   0.099  -0.438  1.00  0.00    -0.043 A 
ATOM      8  C   UNL     1       7.740  -0.975   0.436  1.00  0.00     0.008 A 
ATOM      9  C   UNL     1       6.885   1.108  -0.266  1.00  0.00     0.054 A 
ATOM     10  C   UNL     1       6.806  -1.035   1.447  1.00  0.00     0.051 A 
ATOM     11  C   UNL     1       5.940   1.070   0.742  1.00  0.00     0.166 A 
ATOM     12  C   UNL     1       5.897  -0.001   1.601  1.00  0.00     0.165 A 
ATOM     13  O   UNL     1       4.941   1.958   1.098  1.00  0.00    -0.454 OA
ATOM     14  O   UNL     1       4.853   0.241   2.496  1.00  0.00    -0.454 OA
ATOM     15  C   UNL     1       4.053   1.294   2.010  1.00  0.00     0.468 C 
ENDBRANCH   6   7
ENDBRANCH   1   6
TORSDOF 4
ENDMDL
