@<TRIPOS>MOLECULE
/home/cewinharhar/GITHUB/reincatalyze/data/processed/docking_pred/2023-May-17-1006_maxeplen10_maxtrainstep1000_seadep16_gamma099_lrac9e-4_lrcr1e-3_sub6/bef029ec7f2d3d0301694813bb63cef4e6663bb8_ligand_6.pdbqt
 15 16 0 0 0
SMALL
GASTEIGER

@<TRIPOS>ATOM
      1  C          4.7170    1.8620    0.7020 C.3     1  UNL1        0.1270
      2  C          4.4180    1.1380    1.9270 C.2     1  UNL1        0.3030
      3  O          5.1510    0.3070    2.4660 O.2     1  UNL1       -0.2520
      4  O          3.1900    1.4080    2.5520 O.3     1  UNL1       -0.4810
      5  H          3.2300    1.6320    3.5340 H       1  UNL1        0.2960
      6  C          6.1430    2.2210    0.5490 C.3     1  UNL1        0.0470
      7  C          6.9900    1.3140   -0.2280 C.2     1  UNL1       -0.0430
      8  C          8.3520    1.5330   -0.3640 C.2     1  UNL1        0.0080
      9  C          6.4500    0.2360   -0.8790 C.2     1  UNL1        0.0540
     10  C          9.1440    0.7010   -1.1240 C.2     1  UNL1        0.0510
     11  C          7.2250   -0.6120   -1.6460 C.2     1  UNL1        0.1660
     12  C          8.5740   -0.3830   -1.7720 C.2     1  UNL1        0.1650
     13  O          6.9020   -1.7410   -2.3790 O.2     1  UNL1       -0.4540
     14  O          9.0790   -1.3910   -2.5950 O.2     1  UNL1       -0.4540
     15  C          8.0130   -2.0560   -3.2320 C.3     1  UNL1        0.4680
@<TRIPOS>BOND
     1    15    14    1
     2    15    13    1
     3    14    12    1
     4    13    11    1
     5    12    11    2
     6    12    10    1
     7    11     9    1
     8    10     8    2
     9     9     7    2
    10     8     7    1
    11     7     6    1
    12     6     1    1
    13     1     2    1
    14     2     3    2
    15     2     4    1
    16     4     5    1
