@<TRIPOS>MOLECULE
/home/cewinharhar/GITHUB/reincatalyze/data/processed/docking_pred/2023-May-17-1006_maxeplen10_maxtrainstep1000_seadep16_gamma099_lrac9e-4_lrcr1e-3_sub6/bef029ec7f2d3d0301694813bb63cef4e6663bb8_ligand_6.pdbqt
 15 16 0 0 0
SMALL
GASTEIGER

@<TRIPOS>ATOM
      1  C          6.4270    1.3340    0.6780 C.3     1  UNL1        0.1270
      2  C          5.1890    1.3500    1.4420 C.2     1  UNL1        0.3030
      3  O          4.2630    2.1480    1.2900 O.2     1  UNL1       -0.2520
      4  O          5.0350    0.3740    2.4390 O.3     1  UNL1       -0.4810
      5  H          5.1600   -0.5830    2.1480 H       1  UNL1        0.2960
      6  C          6.2640    0.8760   -0.7180 C.3     1  UNL1        0.0470
      7  C          7.0080   -0.3160   -1.1310 C.2     1  UNL1       -0.0430
      8  C          7.3100   -0.5580   -2.4620 C.2     1  UNL1        0.0080
      9  C          7.3950   -1.2540   -0.2100 C.2     1  UNL1        0.0540
     10  C          7.9780   -1.6960   -2.8550 C.2     1  UNL1        0.0510
     11  C          8.0660   -2.4030   -0.5810 C.2     1  UNL1        0.1660
     12  C          8.3600   -2.6280   -1.9040 C.2     1  UNL1        0.1650
     13  O          8.5460   -3.4670    0.1620 O.2     1  UNL1       -0.4540
     14  O          9.0300   -3.8510   -1.9650 O.2     1  UNL1       -0.4540
     15  C          8.8790   -4.5320   -0.7410 C.3     1  UNL1        0.4680
@<TRIPOS>BOND
     1    10     8    1
     2    10    12    2
     3     8     7    2
     4    14    12    1
     5    14    15    1
     6    12    11    1
     7     7     6    1
     8     7     9    1
     9    15    13    1
    10     6     1    1
    11    11     9    2
    12    11    13    1
    13     1     2    1
    14     3     2    2
    15     2     4    1
    16     5     4    1
