@<TRIPOS>MOLECULE
/home/cewinharhar/GITHUB/reincatalyze/data/processed/docking_pred/2023-May-17-1006_maxeplen10_maxtrainstep1000_seadep16_gamma099_lrac9e-4_lrcr1e-3_sub6/bef029ec7f2d3d0301694813bb63cef4e6663bb8_ligand_6.pdbqt
 15 16 0 0 0
SMALL
GASTEIGER

@<TRIPOS>ATOM
      1  C          5.1680    0.3220    1.8160 C.3     1  UNL1        0.1270
      2  C          6.2800   -0.4460    2.3550 C.2     1  UNL1        0.3030
      3  O          7.2820    0.0260    2.8940 O.2     1  UNL1       -0.2520
      4  O          6.2070   -1.8440    2.2520 O.3     1  UNL1       -0.4810
      5  H          6.2750   -2.3580    3.1170 H       1  UNL1        0.2960
      6  C          5.4840    1.0340    0.5590 C.3     1  UNL1        0.0470
      7  C          6.6150    0.5440   -0.2320 C.2     1  UNL1       -0.0430
      8  C          7.7700    1.2940   -0.3870 C.2     1  UNL1        0.0080
      9  C          6.5470   -0.6620   -0.8770 C.2     1  UNL1        0.0540
     10  C          8.8200    0.8500   -1.1590 C.2     1  UNL1        0.0510
     11  C          7.5880   -1.1280   -1.6580 C.2     1  UNL1        0.1660
     12  C          8.7280   -0.3740   -1.8010 C.2     1  UNL1        0.1650
     13  O          7.7380   -2.2940   -2.3880 O.2     1  UNL1       -0.4540
     14  O          9.5850   -1.0950   -2.6340 O.2     1  UNL1       -0.4540
     15  C          8.8700   -2.1370   -3.2580 C.3     1  UNL1        0.4680
@<TRIPOS>BOND
     1    15    14    1
     2    15    13    1
     3    14    12    1
     4    13    11    1
     5    12    11    2
     6    12    10    1
     7    11     9    1
     8    10     8    2
     9     9     7    2
    10     8     7    1
    11     7     6    1
    12     6     1    1
    13     1     2    1
    14     4     2    1
    15     4     5    1
    16     2     3    2
