@<TRIPOS>MOLECULE
/home/cewinharhar/GITHUB/reincatalyze/data/processed/docking_pred/2023-May-17-1006_maxeplen10_maxtrainstep1000_seadep16_gamma099_lrac9e-4_lrcr1e-3_sub6/bef029ec7f2d3d0301694813bb63cef4e6663bb8_ligand_6.pdbqt
 15 16 0 0 0
SMALL
GASTEIGER

@<TRIPOS>ATOM
      1  C          8.3120   -0.3200   -2.8650 C.3     1  UNL1        0.1270
      2  C          8.4740   -1.7490   -3.0790 C.2     1  UNL1        0.3030
      3  O          9.5420   -2.3630   -3.0430 O.2     1  UNL1       -0.2520
      4  O          7.3170   -2.4960   -3.3480 O.3     1  UNL1       -0.4810
      5  H          7.3720   -3.4860   -3.1630 H       1  UNL1        0.2960
      6  C          8.7640    0.1440   -1.5360 C.3     1  UNL1        0.0470
      7  C          7.7960    0.0990   -0.4380 C.2     1  UNL1       -0.0430
      8  C          7.7400   -0.9750    0.4360 C.2     1  UNL1        0.0080
      9  C          6.8850    1.1080   -0.2660 C.2     1  UNL1        0.0540
     10  C          6.8060   -1.0350    1.4470 C.2     1  UNL1        0.0510
     11  C          5.9400    1.0700    0.7420 C.2     1  UNL1        0.1660
     12  C          5.8970   -0.0010    1.6010 C.2     1  UNL1        0.1650
     13  O          4.9410    1.9580    1.0980 O.2     1  UNL1       -0.4540
     14  O          4.8530    0.2410    2.4960 O.2     1  UNL1       -0.4540
     15  C          4.0530    1.2940    2.0100 C.3     1  UNL1        0.4680
@<TRIPOS>BOND
     1     4     5    1
     2     4     2    1
     3     2     3    2
     4     2     1    1
     5     1     6    1
     6     6     7    1
     7     7     9    2
     8     7     8    1
     9     9    11    1
    10     8    10    2
    11    11    13    1
    12    11    12    2
    13    13    15    1
    14    10    12    1
    15    12    14    1
    16    15    14    1
