@<TRIPOS>MOLECULE
/home/cewinharhar/GITHUB/reincatalyze/data/processed/docking_pred/2023-May-17-1006_maxeplen10_maxtrainstep1000_seadep16_gamma099_lrac9e-4_lrcr1e-3_sub6/bf1bd72bf83e0bbc7f208f1f88a3802cf16c22f1_ligand_6.pdbqt
 15 16 0 0 0
SMALL
GASTEIGER

@<TRIPOS>ATOM
      1  C          8.3000   -0.3160   -2.8460 C.3     1  UNL1        0.1270
      2  C          8.4660   -1.7440   -3.0690 C.2     1  UNL1        0.3030
      3  O          9.5350   -2.3560   -3.0300 O.2     1  UNL1       -0.2520
      4  O          7.3120   -2.4910   -3.3530 O.3     1  UNL1       -0.4810
      5  H          7.3740   -3.4850   -3.1950 H       1  UNL1        0.2960
      6  C          8.7550    0.1400   -1.5160 C.3     1  UNL1        0.0470
      7  C          7.7870    0.0990   -0.4180 C.2     1  UNL1       -0.0430
      8  C          7.7400   -0.9670    0.4680 C.2     1  UNL1        0.0080
      9  C          6.8670    1.1010   -0.2570 C.2     1  UNL1        0.0540
     10  C          6.8070   -1.0240    1.4790 C.2     1  UNL1        0.0510
     11  C          5.9220    1.0650    0.7510 C.2     1  UNL1        0.1660
     12  C          5.8890    0.0030    1.6220 C.2     1  UNL1        0.1650
     13  O          4.9150    1.9490    1.0980 O.2     1  UNL1       -0.4540
     14  O          4.8420    0.2460    2.5130 O.2     1  UNL1       -0.4540
     15  C          4.0320    1.2860    2.0160 C.3     1  UNL1        0.4680
@<TRIPOS>BOND
     1     4     5    1
     2     4     2    1
     3     2     3    2
     4     2     1    1
     5     1     6    1
     6     6     7    1
     7     7     9    2
     8     7     8    1
     9     9    11    1
    10     8    10    2
    11    11    13    1
    12    11    12    2
    13    13    15    1
    14    10    12    1
    15    12    14    1
    16    15    14    1
