MODEL 1
REMARK VINA RESULT:      -7.7      0.000      0.000
REMARK SMILES O=C(O)CCc1ccc2c(c1)OCO2
REMARK SMILES IDX 4 1 2 2 1 3 3 4 5 6 6 7 7 8 11 9 8 10 10 11 9 12 12 13 14 14
REMARK SMILES IDX 13 15
REMARK H PARENT 3 5
REMARK Flexibility Score: inf
ROOT
ATOM      1  C   UNL     1       5.411   2.876   0.116  1.00  0.00     0.127 C 
ENDROOT
BRANCH   1   2
ATOM      2  C   UNL     1       6.234   3.859   0.802  1.00  0.00     0.303 C 
ATOM      3  O   UNL     1       6.876   4.761   0.260  1.00  0.00    -0.252 OA
BRANCH   2   4
ATOM      4  O   UNL     1       6.306   3.777   2.202  1.00  0.00    -0.481 OA
ATOM      5  H   UNL     1       5.775   4.463   2.716  1.00  0.00     0.296 HD
ENDBRANCH   2   4
ENDBRANCH   1   2
BRANCH   1   6
ATOM      6  C   UNL     1       5.343   1.567   0.802  1.00  0.00     0.047 C 
BRANCH   6   7
ATOM      7  C   UNL     1       6.117   0.463   0.232  1.00  0.00    -0.043 A 
ATOM      8  C   UNL     1       6.574  -0.584   1.018  1.00  0.00     0.008 A 
ATOM      9  C   UNL     1       6.449   0.453  -1.097  1.00  0.00     0.054 A 
ATOM     10  C   UNL     1       7.333  -1.604   0.490  1.00  0.00     0.051 A 
ATOM     11  C   UNL     1       7.209  -0.561  -1.649  1.00  0.00     0.166 A 
ATOM     12  C   UNL     1       7.653  -1.593  -0.858  1.00  0.00     0.165 A 
ATOM     13  O   UNL     1       7.656  -0.775  -2.941  1.00  0.00    -0.454 OA
ATOM     14  O   UNL     1       8.383  -2.448  -1.685  1.00  0.00    -0.454 OA
ATOM     15  C   UNL     1       8.659  -1.801  -2.905  1.00  0.00     0.468 C 
ENDBRANCH   6   7
ENDBRANCH   1   6
TORSDOF 4
ENDMDL
MODEL 2
REMARK VINA RESULT:      -7.6      2.124      2.507
REMARK SMILES O=C(O)CCc1ccc2c(c1)OCO2
REMARK SMILES IDX 4 1 2 2 1 3 3 4 5 6 6 7 7 8 11 9 8 10 10 11 9 12 12 13 14 14
REMARK SMILES IDX 13 15
REMARK H PARENT 3 5
REMARK Flexibility Score: inf
ROOT
ATOM      1  C   UNL     1       4.685   1.865   0.688  1.00  0.00     0.127 C 
ENDROOT
BRANCH   1   2
ATOM      2  C   UNL     1       4.408   1.144   1.921  1.00  0.00     0.303 C 
ATOM      3  O   UNL     1       5.154   0.321   2.454  1.00  0.00    -0.252 OA
BRANCH   2   4
ATOM      4  O   UNL     1       3.185   1.407   2.559  1.00  0.00    -0.481 OA
ATOM      5  H   UNL     1       2.494   1.896   2.013  1.00  0.00     0.296 HD
ENDBRANCH   2   4
ENDBRANCH   1   2
BRANCH   1   6
ATOM      6  C   UNL     1       6.105   2.240   0.518  1.00  0.00     0.047 C 
BRANCH   6   7
ATOM      7  C   UNL     1       6.961   1.326  -0.241  1.00  0.00    -0.043 A 
ATOM      8  C   UNL     1       8.326   1.536  -0.353  1.00  0.00     0.008 A 
ATOM      9  C   UNL     1       6.426   0.250  -0.900  1.00  0.00     0.054 A 
ATOM     10  C   UNL     1       9.127   0.698  -1.097  1.00  0.00     0.051 A 
ATOM     11  C   UNL     1       7.209  -0.604  -1.652  1.00  0.00     0.166 A 
ATOM     12  C   UNL     1       8.562  -0.384  -1.753  1.00  0.00     0.165 A 
ATOM     13  O   UNL     1       6.893  -1.733  -2.388  1.00  0.00    -0.454 OA
ATOM     14  O   UNL     1       9.075  -1.397  -2.565  1.00  0.00    -0.454 OA
ATOM     15  C   UNL     1       8.017  -2.056  -3.220  1.00  0.00     0.468 C 
ENDBRANCH   6   7
ENDBRANCH   1   6
TORSDOF 4
ENDMDL
MODEL 3
REMARK VINA RESULT:      -7.4      1.799      5.286
REMARK SMILES O=C(O)CCc1ccc2c(c1)OCO2
REMARK SMILES IDX 4 1 2 2 1 3 3 4 5 6 6 7 7 8 11 9 8 10 10 11 9 12 12 13 14 14
REMARK SMILES IDX 13 15
REMARK H PARENT 3 5
REMARK Flexibility Score: inf
ROOT
ATOM      1  C   UNL     1       8.300  -0.316  -2.846  1.00  0.00     0.127 C 
ENDROOT
BRANCH   1   2
ATOM      2  C   UNL     1       8.466  -1.744  -3.069  1.00  0.00     0.303 C 
ATOM      3  O   UNL     1       9.535  -2.356  -3.030  1.00  0.00    -0.252 OA
BRANCH   2   4
ATOM      4  O   UNL     1       7.312  -2.491  -3.353  1.00  0.00    -0.481 OA
ATOM      5  H   UNL     1       7.374  -3.485  -3.195  1.00  0.00     0.296 HD
ENDBRANCH   2   4
ENDBRANCH   1   2
BRANCH   1   6
ATOM      6  C   UNL     1       8.755   0.140  -1.516  1.00  0.00     0.047 C 
BRANCH   6   7
ATOM      7  C   UNL     1       7.787   0.099  -0.418  1.00  0.00    -0.043 A 
ATOM      8  C   UNL     1       7.740  -0.967   0.468  1.00  0.00     0.008 A 
ATOM      9  C   UNL     1       6.867   1.101  -0.257  1.00  0.00     0.054 A 
ATOM     10  C   UNL     1       6.807  -1.024   1.479  1.00  0.00     0.051 A 
ATOM     11  C   UNL     1       5.922   1.065   0.751  1.00  0.00     0.166 A 
ATOM     12  C   UNL     1       5.889   0.003   1.622  1.00  0.00     0.165 A 
ATOM     13  O   UNL     1       4.915   1.949   1.098  1.00  0.00    -0.454 OA
ATOM     14  O   UNL     1       4.842   0.246   2.513  1.00  0.00    -0.454 OA
ATOM     15  C   UNL     1       4.032   1.286   2.016  1.00  0.00     0.468 C 
ENDBRANCH   6   7
ENDBRANCH   1   6
TORSDOF 4
ENDMDL
MODEL 4
REMARK VINA RESULT:      -7.4      1.954      2.856
REMARK SMILES O=C(O)CCc1ccc2c(c1)OCO2
REMARK SMILES IDX 4 1 2 2 1 3 3 4 5 6 6 7 7 8 11 9 8 10 10 11 9 12 12 13 14 14
REMARK SMILES IDX 13 15
REMARK H PARENT 3 5
REMARK Flexibility Score: inf
ROOT
ATOM      1  C   UNL     1       6.426   1.321   0.718  1.00  0.00     0.127 C 
ENDROOT
BRANCH   1   2
ATOM      2  C   UNL     1       5.186   1.327   1.479  1.00  0.00     0.303 C 
ATOM      3  O   UNL     1       4.268   2.139   1.348  1.00  0.00    -0.252 OA
BRANCH   2   4
ATOM      4  O   UNL     1       5.018   0.323   2.445  1.00  0.00    -0.481 OA
ATOM      5  H   UNL     1       5.813   0.136   3.036  1.00  0.00     0.296 HD
ENDBRANCH   2   4
ENDBRANCH   1   2
BRANCH   1   6
ATOM      6  C   UNL     1       6.261   0.918  -0.695  1.00  0.00     0.047 C 
BRANCH   6   7
ATOM      7  C   UNL     1       7.002  -0.259  -1.155  1.00  0.00    -0.043 A 
ATOM      8  C   UNL     1       7.276  -0.464  -2.498  1.00  0.00     0.008 A 
ATOM      9  C   UNL     1       7.415  -1.217  -0.267  1.00  0.00     0.054 A 
ATOM     10  C   UNL     1       7.940  -1.588  -2.935  1.00  0.00     0.051 A 
ATOM     11  C   UNL     1       8.084  -2.352  -0.683  1.00  0.00     0.166 A 
ATOM     12  C   UNL     1       8.349  -2.542  -2.018  1.00  0.00     0.165 A 
ATOM     13  O   UNL     1       8.587  -3.432   0.022  1.00  0.00    -0.454 OA
ATOM     14  O   UNL     1       9.025  -3.758  -2.125  1.00  0.00    -0.454 OA
ATOM     15  C   UNL     1       8.905  -4.471  -0.916  1.00  0.00     0.468 C 
ENDBRANCH   6   7
ENDBRANCH   1   6
TORSDOF 4
ENDMDL
MODEL 5
REMARK VINA RESULT:      -7.4      1.008      2.129
REMARK SMILES O=C(O)CCc1ccc2c(c1)OCO2
REMARK SMILES IDX 4 1 2 2 1 3 3 4 5 6 6 7 7 8 11 9 8 10 10 11 9 12 12 13 14 14
REMARK SMILES IDX 13 15
REMARK H PARENT 3 5
REMARK Flexibility Score: inf
ROOT
ATOM      1  C   UNL     1       5.582   2.612  -0.024  1.00  0.00     0.127 C 
ENDROOT
BRANCH   1   2
ATOM      2  C   UNL     1       6.156   3.658   0.809  1.00  0.00     0.303 C 
ATOM      3  O   UNL     1       6.093   3.710   2.038  1.00  0.00    -0.252 OA
BRANCH   2   4
ATOM      4  O   UNL     1       6.839   4.697   0.158  1.00  0.00    -0.481 OA
ATOM      5  H   UNL     1       6.350   5.145  -0.601  1.00  0.00     0.296 HD
ENDBRANCH   2   4
ENDBRANCH   1   2
BRANCH   1   6
ATOM      6  C   UNL     1       5.571   1.277   0.612  1.00  0.00     0.047 C 
BRANCH   6   7
ATOM      7  C   UNL     1       6.374   0.223  -0.012  1.00  0.00    -0.043 A 
ATOM      8  C   UNL     1       6.548   0.161  -1.386  1.00  0.00     0.008 A 
ATOM      9  C   UNL     1       6.949  -0.761   0.748  1.00  0.00     0.054 A 
ATOM     10  C   UNL     1       7.273  -0.850  -1.977  1.00  0.00     0.051 A 
ATOM     11  C   UNL     1       7.681  -1.785   0.177  1.00  0.00     0.166 A 
ATOM     12  C   UNL     1       7.846  -1.833  -1.186  1.00  0.00     0.165 A 
ATOM     13  O   UNL     1       8.340  -2.866   0.736  1.00  0.00    -0.454 OA
ATOM     14  O   UNL     1       8.618  -2.963  -1.459  1.00  0.00    -0.454 OA
ATOM     15  C   UNL     1       8.670  -3.785  -0.316  1.00  0.00     0.468 C 
ENDBRANCH   6   7
ENDBRANCH   1   6
TORSDOF 4
ENDMDL
