@<TRIPOS>MOLECULE
/home/cewinharhar/GITHUB/reincatalyze/data/processed/docking_pred/2023-May-17-1006_maxeplen10_maxtrainstep1000_seadep16_gamma099_lrac9e-4_lrcr1e-3_sub6/bf1bd72bf83e0bbc7f208f1f88a3802cf16c22f1_ligand_6.pdbqt
 15 16 0 0 0
SMALL
GASTEIGER

@<TRIPOS>ATOM
      1  C          5.5820    2.6120   -0.0240 C.3     1  UNL1        0.1270
      2  C          6.1560    3.6580    0.8090 C.2     1  UNL1        0.3030
      3  O          6.0930    3.7100    2.0380 O.2     1  UNL1       -0.2520
      4  O          6.8390    4.6970    0.1580 O.3     1  UNL1       -0.4810
      5  H          6.3500    5.1450   -0.6010 H       1  UNL1        0.2960
      6  C          5.5710    1.2770    0.6120 C.3     1  UNL1        0.0470
      7  C          6.3740    0.2230   -0.0120 C.2     1  UNL1       -0.0430
      8  C          6.5480    0.1610   -1.3860 C.2     1  UNL1        0.0080
      9  C          6.9490   -0.7610    0.7480 C.2     1  UNL1        0.0540
     10  C          7.2730   -0.8500   -1.9770 C.2     1  UNL1        0.0510
     11  C          7.6810   -1.7850    0.1770 C.2     1  UNL1        0.1660
     12  C          7.8460   -1.8330   -1.1860 C.2     1  UNL1        0.1650
     13  O          8.3400   -2.8660    0.7360 O.2     1  UNL1       -0.4540
     14  O          8.6180   -2.9630   -1.4590 O.2     1  UNL1       -0.4540
     15  C          8.6700   -3.7850   -0.3160 C.3     1  UNL1        0.4680
@<TRIPOS>BOND
     1    10     8    1
     2    10    12    2
     3    14    12    1
     4    14    15    1
     5     8     7    2
     6    12    11    1
     7     5     4    1
     8    15    13    1
     9     1     6    1
    10     1     2    1
    11     7     6    1
    12     7     9    1
    13     4     2    1
    14    11    13    1
    15    11     9    2
    16     2     3    2
