@<TRIPOS>MOLECULE
/home/cewinharhar/GITHUB/reincatalyze/data/processed/docking_pred/2023-May-17-1006_maxeplen10_maxtrainstep1000_seadep16_gamma099_lrac9e-4_lrcr1e-3_sub6/bf1bd72bf83e0bbc7f208f1f88a3802cf16c22f1_ligand_6.pdbqt
 15 16 0 0 0
SMALL
GASTEIGER

@<TRIPOS>ATOM
      1  C          6.4260    1.3210    0.7180 C.3     1  UNL1        0.1270
      2  C          5.1860    1.3270    1.4790 C.2     1  UNL1        0.3030
      3  O          4.2680    2.1390    1.3480 O.2     1  UNL1       -0.2520
      4  O          5.0180    0.3230    2.4450 O.3     1  UNL1       -0.4810
      5  H          5.8130    0.1360    3.0360 H       1  UNL1        0.2960
      6  C          6.2610    0.9180   -0.6950 C.3     1  UNL1        0.0470
      7  C          7.0020   -0.2590   -1.1550 C.2     1  UNL1       -0.0430
      8  C          7.2760   -0.4640   -2.4980 C.2     1  UNL1        0.0080
      9  C          7.4150   -1.2170   -0.2670 C.2     1  UNL1        0.0540
     10  C          7.9400   -1.5880   -2.9350 C.2     1  UNL1        0.0510
     11  C          8.0840   -2.3520   -0.6830 C.2     1  UNL1        0.1660
     12  C          8.3490   -2.5420   -2.0180 C.2     1  UNL1        0.1650
     13  O          8.5870   -3.4320    0.0220 O.2     1  UNL1       -0.4540
     14  O          9.0250   -3.7580   -2.1250 O.2     1  UNL1       -0.4540
     15  C          8.9050   -4.4710   -0.9160 C.3     1  UNL1        0.4680
@<TRIPOS>BOND
     1    10     8    1
     2    10    12    2
     3     8     7    2
     4    14    12    1
     5    14    15    1
     6    12    11    1
     7     7     6    1
     8     7     9    1
     9    15    13    1
    10     6     1    1
    11    11     9    2
    12    11    13    1
    13     1     2    1
    14     3     2    2
    15     2     4    1
    16     4     5    1
