@<TRIPOS>MOLECULE
/home/cewinharhar/GITHUB/reincatalyze/data/processed/docking_pred/2023-May-17-1006_maxeplen10_maxtrainstep1000_seadep16_gamma099_lrac9e-4_lrcr1e-3_sub6/bfaa3bc067c86e8b5ef89a85d12e30cfe25fe09e_ligand_6.pdbqt
 15 16 0 0 0
SMALL
GASTEIGER

@<TRIPOS>ATOM
      1  C          6.4220    1.2680    0.7340 C.3     1  UNL1        0.1270
      2  C          5.2450    1.1580    1.5820 C.2     1  UNL1        0.3030
      3  O          5.0780    0.3210    2.4710 O.2     1  UNL1       -0.2520
      4  O          4.2100    2.0820    1.3720 O.3     1  UNL1       -0.4810
      5  H          3.4230    2.0200    1.9990 H       1  UNL1        0.2960
      6  C          6.2160    0.7750   -0.6450 C.3     1  UNL1        0.0470
      7  C          6.9720   -0.4080   -1.0620 C.2     1  UNL1       -0.0430
      8  C          7.2590   -0.6520   -2.3960 C.2     1  UNL1        0.0080
      9  C          7.3860   -1.3340   -0.1410 C.2     1  UNL1        0.0540
     10  C          7.9380   -1.7820   -2.7920 C.2     1  UNL1        0.0510
     11  C          8.0700   -2.4750   -0.5160 C.2     1  UNL1        0.1660
     12  C          8.3480   -2.7030   -1.8420 C.2     1  UNL1        0.1650
     13  O          8.5770   -3.5270    0.2260 O.2     1  UNL1       -0.4540
     14  O          9.0360   -3.9160   -1.9060 O.2     1  UNL1       -0.4540
     15  C          8.9140   -4.5920   -0.6760 C.3     1  UNL1        0.4680
@<TRIPOS>BOND
     1    10     8    1
     2    10    12    2
     3     8     7    2
     4    14    12    1
     5    14    15    1
     6    12    11    1
     7     7     6    1
     8     7     9    1
     9    15    13    1
    10     6     1    1
    11    11     9    2
    12    11    13    1
    13     1     2    1
    14     4     2    1
    15     4     5    1
    16     2     3    2
