@<TRIPOS>MOLECULE
/home/cewinharhar/GITHUB/reincatalyze/data/processed/docking_pred/2023-May-17-1006_maxeplen10_maxtrainstep1000_seadep16_gamma099_lrac9e-4_lrcr1e-3_sub6/bfaa3bc067c86e8b5ef89a85d12e30cfe25fe09e_ligand_6.pdbqt
 15 16 0 0 0
SMALL
GASTEIGER

@<TRIPOS>ATOM
      1  C          8.3080   -0.3180   -2.8180 C.3     1  UNL1        0.1270
      2  C          8.4700   -1.7440   -3.0540 C.2     1  UNL1        0.3030
      3  O          9.5380   -2.3600   -3.0240 O.2     1  UNL1       -0.2520
      4  O          7.3130   -2.4850   -3.3420 O.3     1  UNL1       -0.4810
      5  H          7.0230   -3.1480   -2.6390 H       1  UNL1        0.2960
      6  C          8.7640    0.1240   -1.4830 C.3     1  UNL1        0.0470
      7  C          7.7880    0.0950   -0.3910 C.2     1  UNL1       -0.0430
      8  C          7.7380   -0.9600    0.5080 C.2     1  UNL1        0.0080
      9  C          6.8660    1.0980   -0.2480 C.2     1  UNL1        0.0540
     10  C          6.7980   -1.0060    1.5130 C.2     1  UNL1        0.0510
     11  C          5.9140    1.0730    0.7530 C.2     1  UNL1        0.1660
     12  C          5.8770    0.0210    1.6370 C.2     1  UNL1        0.1650
     13  O          4.9040    1.9590    1.0830 O.2     1  UNL1       -0.4540
     14  O          4.8240    0.2740    2.5190 O.2     1  UNL1       -0.4540
     15  C          4.0160    1.3060    2.0030 C.3     1  UNL1        0.4680
@<TRIPOS>BOND
     1     4     2    1
     2     4     5    1
     3     2     3    2
     4     2     1    1
     5     1     6    1
     6     6     7    1
     7     7     9    2
     8     7     8    1
     9     9    11    1
    10     8    10    2
    11    11    13    1
    12    11    12    2
    13    13    15    1
    14    10    12    1
    15    12    14    1
    16    15    14    1
