@<TRIPOS>MOLECULE
/home/cewinharhar/GITHUB/reincatalyze/data/processed/docking_pred/2023-May-17-1006_maxeplen10_maxtrainstep1000_seadep16_gamma099_lrac9e-4_lrcr1e-3_sub6/bfaa3bc067c86e8b5ef89a85d12e30cfe25fe09e_ligand_6.pdbqt
 15 16 0 0 0
SMALL
GASTEIGER

@<TRIPOS>ATOM
      1  C          4.7290    1.8880    0.7000 C.3     1  UNL1        0.1270
      2  C          4.4190    1.1620    1.9220 C.2     1  UNL1        0.3030
      3  O          5.1470    0.3290    2.4660 O.2     1  UNL1       -0.2520
      4  O          3.1850    1.4300    2.5360 O.3     1  UNL1       -0.4810
      5  H          2.4330    1.7050    1.9220 H       1  UNL1        0.2960
      6  C          6.1590    2.2360    0.5560 C.3     1  UNL1        0.0470
      7  C          7.0010    1.3290   -0.2260 C.2     1  UNL1       -0.0430
      8  C          8.3590    1.5570   -0.3860 C.2     1  UNL1        0.0080
      9  C          6.4600    0.2410   -0.8580 C.2     1  UNL1        0.0540
     10  C          9.1460    0.7250   -1.1500 C.2     1  UNL1        0.0510
     11  C          7.2300   -0.6090   -1.6290 C.2     1  UNL1        0.1660
     12  C          8.5750   -0.3700   -1.7780 C.2     1  UNL1        0.1650
     13  O          6.9050   -1.7470   -2.3460 O.2     1  UNL1       -0.4540
     14  O          9.0750   -1.3810   -2.6000 O.2     1  UNL1       -0.4540
     15  C          8.0050   -2.0610   -3.2140 C.3     1  UNL1        0.4680
@<TRIPOS>BOND
     1    15    14    1
     2    15    13    1
     3    14    12    1
     4    13    11    1
     5    12    11    2
     6    12    10    1
     7    11     9    1
     8    10     8    2
     9     9     7    2
    10     8     7    1
    11     7     6    1
    12     6     1    1
    13     1     2    1
    14     2     3    2
    15     2     4    1
    16     5     4    1
