@<TRIPOS>MOLECULE
/home/cewinharhar/GITHUB/reincatalyze/data/processed/docking_pred/2023-May-17-1006_maxeplen10_maxtrainstep1000_seadep16_gamma099_lrac9e-4_lrcr1e-3_sub6/bfaa3bc067c86e8b5ef89a85d12e30cfe25fe09e_ligand_6.pdbqt
 15 16 0 0 0
SMALL
GASTEIGER

@<TRIPOS>ATOM
      1  C          5.4680    2.4040    0.2100 C.3     1  UNL1        0.1270
      2  C          6.2480    3.4850    0.7910 C.2     1  UNL1        0.3030
      3  O          6.6060    4.5070    0.2030 O.2     1  UNL1       -0.2520
      4  O          6.6260    3.3560    2.1370 O.3     1  UNL1       -0.4810
      5  H          6.5320    2.4360    2.5400 H       1  UNL1        0.2960
      6  C          5.6510    1.1010    0.8860 C.3     1  UNL1        0.0470
      7  C          6.4340    0.0800    0.1870 C.2     1  UNL1       -0.0430
      8  C          6.5420    0.0700   -1.1960 C.2     1  UNL1        0.0080
      9  C          7.0550   -0.9240    0.8810 C.2     1  UNL1        0.0540
     10  C          7.2480   -0.9110   -1.8560 C.2     1  UNL1        0.0510
     11  C          7.7690   -1.9180    0.2400 C.2     1  UNL1        0.1660
     12  C          7.8680   -1.9150   -1.1310 C.2     1  UNL1        0.1650
     13  O          8.4650   -3.0100    0.7270 O.2     1  UNL1       -0.4540
     14  O          8.6380   -3.0250   -1.4810 O.2     1  UNL1       -0.4540
     15  C          8.7540   -3.8870   -0.3730 C.3     1  UNL1        0.4680
@<TRIPOS>BOND
     1    10     8    1
     2    10    12    2
     3    14    12    1
     4    14    15    1
     5     8     7    2
     6    12    11    1
     7    15    13    1
     8     7     9    1
     9     7     6    1
    10     3     2    2
    11     1     2    1
    12     1     6    1
    13    11    13    1
    14    11     9    2
    15     2     4    1
    16     4     5    1
