MODEL 1
REMARK VINA RESULT:      -7.7      0.000      0.000
REMARK SMILES O=C(O)CCc1ccc2c(c1)OCO2
REMARK SMILES IDX 4 1 2 2 1 3 3 4 5 6 6 7 7 8 11 9 8 10 10 11 9 12 12 13 14 14
REMARK SMILES IDX 13 15
REMARK H PARENT 3 5
REMARK Flexibility Score: inf
ROOT
ATOM      1  C   UNL     1       5.413   2.878   0.115  1.00  0.00     0.127 C 
ENDROOT
BRANCH   1   2
ATOM      2  C   UNL     1       6.237   3.862   0.800  1.00  0.00     0.303 C 
ATOM      3  O   UNL     1       6.872   4.768   0.257  1.00  0.00    -0.252 OA
BRANCH   2   4
ATOM      4  O   UNL     1       6.319   3.773   2.199  1.00  0.00    -0.481 OA
ATOM      5  H   UNL     1       6.453   2.849   2.579  1.00  0.00     0.296 HD
ENDBRANCH   2   4
ENDBRANCH   1   2
BRANCH   1   6
ATOM      6  C   UNL     1       5.347   1.569   0.800  1.00  0.00     0.047 C 
BRANCH   6   7
ATOM      7  C   UNL     1       6.123   0.467   0.229  1.00  0.00    -0.043 A 
ATOM      8  C   UNL     1       6.585  -0.578   1.015  1.00  0.00     0.008 A 
ATOM      9  C   UNL     1       6.450   0.456  -1.101  1.00  0.00     0.054 A 
ATOM     10  C   UNL     1       7.346  -1.597   0.486  1.00  0.00     0.051 A 
ATOM     11  C   UNL     1       7.212  -0.557  -1.654  1.00  0.00     0.166 A 
ATOM     12  C   UNL     1       7.662  -1.586  -0.863  1.00  0.00     0.165 A 
ATOM     13  O   UNL     1       7.656  -0.771  -2.947  1.00  0.00    -0.454 OA
ATOM     14  O   UNL     1       8.392  -2.440  -1.690  1.00  0.00    -0.454 OA
ATOM     15  C   UNL     1       8.662  -1.794  -2.913  1.00  0.00     0.468 C 
ENDBRANCH   6   7
ENDBRANCH   1   6
TORSDOF 4
ENDMDL
MODEL 2
REMARK VINA RESULT:      -7.6      2.121      2.516
REMARK SMILES O=C(O)CCc1ccc2c(c1)OCO2
REMARK SMILES IDX 4 1 2 2 1 3 3 4 5 6 6 7 7 8 11 9 8 10 10 11 9 12 12 13 14 14
REMARK SMILES IDX 13 15
REMARK H PARENT 3 5
REMARK Flexibility Score: inf
ROOT
ATOM      1  C   UNL     1       4.729   1.888   0.700  1.00  0.00     0.127 C 
ENDROOT
BRANCH   1   2
ATOM      2  C   UNL     1       4.419   1.162   1.922  1.00  0.00     0.303 C 
ATOM      3  O   UNL     1       5.147   0.329   2.466  1.00  0.00    -0.252 OA
BRANCH   2   4
ATOM      4  O   UNL     1       3.185   1.430   2.536  1.00  0.00    -0.481 OA
ATOM      5  H   UNL     1       2.433   1.705   1.922  1.00  0.00     0.296 HD
ENDBRANCH   2   4
ENDBRANCH   1   2
BRANCH   1   6
ATOM      6  C   UNL     1       6.159   2.236   0.556  1.00  0.00     0.047 C 
BRANCH   6   7
ATOM      7  C   UNL     1       7.001   1.329  -0.226  1.00  0.00    -0.043 A 
ATOM      8  C   UNL     1       8.359   1.557  -0.386  1.00  0.00     0.008 A 
ATOM      9  C   UNL     1       6.460   0.241  -0.858  1.00  0.00     0.054 A 
ATOM     10  C   UNL     1       9.146   0.725  -1.150  1.00  0.00     0.051 A 
ATOM     11  C   UNL     1       7.230  -0.609  -1.629  1.00  0.00     0.166 A 
ATOM     12  C   UNL     1       8.575  -0.370  -1.778  1.00  0.00     0.165 A 
ATOM     13  O   UNL     1       6.905  -1.747  -2.346  1.00  0.00    -0.454 OA
ATOM     14  O   UNL     1       9.075  -1.381  -2.600  1.00  0.00    -0.454 OA
ATOM     15  C   UNL     1       8.005  -2.061  -3.214  1.00  0.00     0.468 C 
ENDBRANCH   6   7
ENDBRANCH   1   6
TORSDOF 4
ENDMDL
MODEL 3
REMARK VINA RESULT:      -7.5      2.008      3.001
REMARK SMILES O=C(O)CCc1ccc2c(c1)OCO2
REMARK SMILES IDX 4 1 2 2 1 3 3 4 5 6 6 7 7 8 11 9 8 10 10 11 9 12 12 13 14 14
REMARK SMILES IDX 13 15
REMARK H PARENT 3 5
REMARK Flexibility Score: inf
ROOT
ATOM      1  C   UNL     1       6.422   1.268   0.734  1.00  0.00     0.127 C 
ENDROOT
BRANCH   1   2
ATOM      2  C   UNL     1       5.245   1.158   1.582  1.00  0.00     0.303 C 
ATOM      3  O   UNL     1       5.078   0.321   2.471  1.00  0.00    -0.252 OA
BRANCH   2   4
ATOM      4  O   UNL     1       4.210   2.082   1.372  1.00  0.00    -0.481 OA
ATOM      5  H   UNL     1       3.423   2.020   1.999  1.00  0.00     0.296 HD
ENDBRANCH   2   4
ENDBRANCH   1   2
BRANCH   1   6
ATOM      6  C   UNL     1       6.216   0.775  -0.645  1.00  0.00     0.047 C 
BRANCH   6   7
ATOM      7  C   UNL     1       6.972  -0.408  -1.062  1.00  0.00    -0.043 A 
ATOM      8  C   UNL     1       7.259  -0.652  -2.396  1.00  0.00     0.008 A 
ATOM      9  C   UNL     1       7.386  -1.334  -0.141  1.00  0.00     0.054 A 
ATOM     10  C   UNL     1       7.938  -1.782  -2.792  1.00  0.00     0.051 A 
ATOM     11  C   UNL     1       8.070  -2.475  -0.516  1.00  0.00     0.166 A 
ATOM     12  C   UNL     1       8.348  -2.703  -1.842  1.00  0.00     0.165 A 
ATOM     13  O   UNL     1       8.577  -3.527   0.226  1.00  0.00    -0.454 OA
ATOM     14  O   UNL     1       9.036  -3.916  -1.906  1.00  0.00    -0.454 OA
ATOM     15  C   UNL     1       8.914  -4.592  -0.676  1.00  0.00     0.468 C 
ENDBRANCH   6   7
ENDBRANCH   1   6
TORSDOF 4
ENDMDL
MODEL 4
REMARK VINA RESULT:      -7.5      1.801      5.289
REMARK SMILES O=C(O)CCc1ccc2c(c1)OCO2
REMARK SMILES IDX 4 1 2 2 1 3 3 4 5 6 6 7 7 8 11 9 8 10 10 11 9 12 12 13 14 14
REMARK SMILES IDX 13 15
REMARK H PARENT 3 5
REMARK Flexibility Score: inf
ROOT
ATOM      1  C   UNL     1       8.308  -0.318  -2.818  1.00  0.00     0.127 C 
ENDROOT
BRANCH   1   2
ATOM      2  C   UNL     1       8.470  -1.744  -3.054  1.00  0.00     0.303 C 
ATOM      3  O   UNL     1       9.538  -2.360  -3.024  1.00  0.00    -0.252 OA
BRANCH   2   4
ATOM      4  O   UNL     1       7.313  -2.485  -3.342  1.00  0.00    -0.481 OA
ATOM      5  H   UNL     1       7.023  -3.148  -2.639  1.00  0.00     0.296 HD
ENDBRANCH   2   4
ENDBRANCH   1   2
BRANCH   1   6
ATOM      6  C   UNL     1       8.764   0.124  -1.483  1.00  0.00     0.047 C 
BRANCH   6   7
ATOM      7  C   UNL     1       7.788   0.095  -0.391  1.00  0.00    -0.043 A 
ATOM      8  C   UNL     1       7.738  -0.960   0.508  1.00  0.00     0.008 A 
ATOM      9  C   UNL     1       6.866   1.098  -0.248  1.00  0.00     0.054 A 
ATOM     10  C   UNL     1       6.798  -1.006   1.513  1.00  0.00     0.051 A 
ATOM     11  C   UNL     1       5.914   1.073   0.753  1.00  0.00     0.166 A 
ATOM     12  C   UNL     1       5.877   0.021   1.637  1.00  0.00     0.165 A 
ATOM     13  O   UNL     1       4.904   1.959   1.083  1.00  0.00    -0.454 OA
ATOM     14  O   UNL     1       4.824   0.274   2.519  1.00  0.00    -0.454 OA
ATOM     15  C   UNL     1       4.016   1.306   2.003  1.00  0.00     0.468 C 
ENDBRANCH   6   7
ENDBRANCH   1   6
TORSDOF 4
ENDMDL
MODEL 5
REMARK VINA RESULT:      -7.4      1.068      1.987
REMARK SMILES O=C(O)CCc1ccc2c(c1)OCO2
REMARK SMILES IDX 4 1 2 2 1 3 3 4 5 6 6 7 7 8 11 9 8 10 10 11 9 12 12 13 14 14
REMARK SMILES IDX 13 15
REMARK H PARENT 3 5
REMARK Flexibility Score: inf
ROOT
ATOM      1  C   UNL     1       5.468   2.404   0.210  1.00  0.00     0.127 C 
ENDROOT
BRANCH   1   2
ATOM      2  C   UNL     1       6.248   3.485   0.791  1.00  0.00     0.303 C 
ATOM      3  O   UNL     1       6.606   4.507   0.203  1.00  0.00    -0.252 OA
BRANCH   2   4
ATOM      4  O   UNL     1       6.626   3.356   2.137  1.00  0.00    -0.481 OA
ATOM      5  H   UNL     1       6.532   2.436   2.540  1.00  0.00     0.296 HD
ENDBRANCH   2   4
ENDBRANCH   1   2
BRANCH   1   6
ATOM      6  C   UNL     1       5.651   1.101   0.886  1.00  0.00     0.047 C 
BRANCH   6   7
ATOM      7  C   UNL     1       6.434   0.080   0.187  1.00  0.00    -0.043 A 
ATOM      8  C   UNL     1       6.542   0.070  -1.196  1.00  0.00     0.008 A 
ATOM      9  C   UNL     1       7.055  -0.924   0.881  1.00  0.00     0.054 A 
ATOM     10  C   UNL     1       7.248  -0.911  -1.856  1.00  0.00     0.051 A 
ATOM     11  C   UNL     1       7.769  -1.918   0.240  1.00  0.00     0.166 A 
ATOM     12  C   UNL     1       7.868  -1.915  -1.131  1.00  0.00     0.165 A 
ATOM     13  O   UNL     1       8.465  -3.010   0.727  1.00  0.00    -0.454 OA
ATOM     14  O   UNL     1       8.638  -3.025  -1.481  1.00  0.00    -0.454 OA
ATOM     15  C   UNL     1       8.754  -3.887  -0.373  1.00  0.00     0.468 C 
ENDBRANCH   6   7
ENDBRANCH   1   6
TORSDOF 4
ENDMDL
