@<TRIPOS>MOLECULE
/home/cewinharhar/GITHUB/reincatalyze/data/processed/docking_pred/2023-May-17-1006_maxeplen10_maxtrainstep1000_seadep16_gamma099_lrac9e-4_lrcr1e-3_sub6/c00c8b20774af87dd702fd508d588995eeb45aaa_ligand_6.pdbqt
 15 16 0 0 0
SMALL
GASTEIGER

@<TRIPOS>ATOM
      1  C          8.3150   -0.3150   -2.8720 C.3     1  UNL1        0.1270
      2  C          8.4820   -1.7430   -3.0950 C.2     1  UNL1        0.3030
      3  O          9.5510   -2.3540   -3.0550 O.2     1  UNL1       -0.2520
      4  O          7.3280   -2.4900   -3.3800 O.3     1  UNL1       -0.4810
      5  H          6.5540   -1.9800   -3.7770 H       1  UNL1        0.2960
      6  C          8.7560    0.1390   -1.5360 C.3     1  UNL1        0.0470
      7  C          7.7840    0.0750   -0.4430 C.2     1  UNL1       -0.0430
      8  C          7.7320   -1.0100    0.4180 C.2     1  UNL1        0.0080
      9  C          6.8660    1.0760   -0.2630 C.2     1  UNL1        0.0540
     10  C          6.7940   -1.0890    1.4230 C.2     1  UNL1        0.0510
     11  C          5.9160    1.0190    0.7400 C.2     1  UNL1        0.1660
     12  C          5.8770   -0.0630    1.5860 C.2     1  UNL1        0.1650
     13  O          4.9100    1.8960    1.1030 O.2     1  UNL1       -0.4540
     14  O          4.8280    0.1620    2.4790 O.2     1  UNL1       -0.4540
     15  C          4.0220    1.2150    2.0020 C.3     1  UNL1        0.4680
@<TRIPOS>BOND
     1     5     4    1
     2     4     2    1
     3     2     3    2
     4     2     1    1
     5     1     6    1
     6     6     7    1
     7     7     9    2
     8     7     8    1
     9     9    11    1
    10     8    10    2
    11    11    13    1
    12    11    12    2
    13    13    15    1
    14    10    12    1
    15    12    14    1
    16    15    14    1
