MODEL 1
REMARK VINA RESULT:      -7.7      0.000      0.000
REMARK SMILES O=C(O)CCc1ccc2c(c1)OCO2
REMARK SMILES IDX 4 1 2 2 1 3 3 4 5 6 6 7 7 8 11 9 8 10 10 11 9 12 12 13 14 14
REMARK SMILES IDX 13 15
REMARK H PARENT 3 5
REMARK Flexibility Score: inf
ROOT
ATOM      1  C   UNL     1       5.437   2.879   0.087  1.00  0.00     0.127 C 
ENDROOT
BRANCH   1   2
ATOM      2  C   UNL     1       6.243   3.875   0.775  1.00  0.00     0.303 C 
ATOM      3  O   UNL     1       6.923   4.748   0.233  1.00  0.00    -0.252 OA
BRANCH   2   4
ATOM      4  O   UNL     1       6.249   3.840   2.179  1.00  0.00    -0.481 OA
ATOM      5  H   UNL     1       5.357   3.692   2.624  1.00  0.00     0.296 HD
ENDBRANCH   2   4
ENDBRANCH   1   2
BRANCH   1   6
ATOM      6  C   UNL     1       5.373   1.575   0.780  1.00  0.00     0.047 C 
BRANCH   6   7
ATOM      7  C   UNL     1       6.142   0.466   0.210  1.00  0.00    -0.043 A 
ATOM      8  C   UNL     1       6.570  -0.596   0.991  1.00  0.00     0.008 A 
ATOM      9  C   UNL     1       6.495   0.467  -1.113  1.00  0.00     0.054 A 
ATOM     10  C   UNL     1       7.324  -1.621   0.464  1.00  0.00     0.051 A 
ATOM     11  C   UNL     1       7.250  -0.551  -1.664  1.00  0.00     0.166 A 
ATOM     12  C   UNL     1       7.667  -1.598  -0.878  1.00  0.00     0.165 A 
ATOM     13  O   UNL     1       7.716  -0.757  -2.951  1.00  0.00    -0.454 OA
ATOM     14  O   UNL     1       8.399  -2.454  -1.702  1.00  0.00    -0.454 OA
ATOM     15  C   UNL     1       8.705  -1.797  -2.910  1.00  0.00     0.468 C 
ENDBRANCH   6   7
ENDBRANCH   1   6
TORSDOF 4
ENDMDL
MODEL 2
REMARK VINA RESULT:      -7.6      2.137      2.527
REMARK SMILES O=C(O)CCc1ccc2c(c1)OCO2
REMARK SMILES IDX 4 1 2 2 1 3 3 4 5 6 6 7 7 8 11 9 8 10 10 11 9 12 12 13 14 14
REMARK SMILES IDX 13 15
REMARK H PARENT 3 5
REMARK Flexibility Score: inf
ROOT
ATOM      1  C   UNL     1       4.730   1.878   0.689  1.00  0.00     0.127 C 
ENDROOT
BRANCH   1   2
ATOM      2  C   UNL     1       4.402   1.159   1.910  1.00  0.00     0.303 C 
ATOM      3  O   UNL     1       5.113   0.315   2.459  1.00  0.00    -0.252 OA
BRANCH   2   4
ATOM      4  O   UNL     1       3.170   1.450   2.518  1.00  0.00    -0.481 OA
ATOM      5  H   UNL     1       2.443   0.761   2.402  1.00  0.00     0.296 HD
ENDBRANCH   2   4
ENDBRANCH   1   2
BRANCH   1   6
ATOM      6  C   UNL     1       6.162   2.225   0.564  1.00  0.00     0.047 C 
BRANCH   6   7
ATOM      7  C   UNL     1       7.011   1.324  -0.219  1.00  0.00    -0.043 A 
ATOM      8  C   UNL     1       8.369   1.556  -0.368  1.00  0.00     0.008 A 
ATOM      9  C   UNL     1       6.475   0.240  -0.862  1.00  0.00     0.054 A 
ATOM     10  C   UNL     1       9.162   0.730  -1.133  1.00  0.00     0.051 A 
ATOM     11  C   UNL     1       7.251  -0.603  -1.635  1.00  0.00     0.166 A 
ATOM     12  C   UNL     1       8.597  -0.362  -1.773  1.00  0.00     0.165 A 
ATOM     13  O   UNL     1       6.933  -1.736  -2.362  1.00  0.00    -0.454 OA
ATOM     14  O   UNL     1       9.104  -1.366  -2.599  1.00  0.00    -0.454 OA
ATOM     15  C   UNL     1       8.038  -2.043  -3.225  1.00  0.00     0.468 C 
ENDBRANCH   6   7
ENDBRANCH   1   6
TORSDOF 4
ENDMDL
MODEL 3
REMARK VINA RESULT:      -7.5      1.988      2.957
REMARK SMILES O=C(O)CCc1ccc2c(c1)OCO2
REMARK SMILES IDX 4 1 2 2 1 3 3 4 5 6 6 7 7 8 11 9 8 10 10 11 9 12 12 13 14 14
REMARK SMILES IDX 13 15
REMARK H PARENT 3 5
REMARK Flexibility Score: inf
ROOT
ATOM      1  C   UNL     1       6.393   1.328   0.673  1.00  0.00     0.127 C 
ENDROOT
BRANCH   1   2
ATOM      2  C   UNL     1       5.263   1.141   1.569  1.00  0.00     0.303 C 
ATOM      3  O   UNL     1       5.161   0.257   2.421  1.00  0.00    -0.252 OA
BRANCH   2   4
ATOM      4  O   UNL     1       4.194   2.045   1.456  1.00  0.00    -0.481 OA
ATOM      5  H   UNL     1       3.372   1.705   0.981  1.00  0.00     0.296 HD
ENDBRANCH   2   4
ENDBRANCH   1   2
BRANCH   1   6
ATOM      6  C   UNL     1       6.156   0.838  -0.702  1.00  0.00     0.047 C 
BRANCH   6   7
ATOM      7  C   UNL     1       6.935  -0.316  -1.154  1.00  0.00    -0.043 A 
ATOM      8  C   UNL     1       7.253  -0.498  -2.491  1.00  0.00     0.008 A 
ATOM      9  C   UNL     1       7.342  -1.277  -0.266  1.00  0.00     0.054 A 
ATOM     10  C   UNL     1       7.955  -1.602  -2.922  1.00  0.00     0.051 A 
ATOM     11  C   UNL     1       8.047  -2.393  -0.675  1.00  0.00     0.166 A 
ATOM     12  C   UNL     1       8.357  -2.559  -2.004  1.00  0.00     0.165 A 
ATOM     13  O   UNL     1       8.552  -3.471   0.030  1.00  0.00    -0.454 OA
ATOM     14  O   UNL     1       9.061  -3.760  -2.106  1.00  0.00    -0.454 OA
ATOM     15  C   UNL     1       8.921  -4.491  -0.910  1.00  0.00     0.468 C 
ENDBRANCH   6   7
ENDBRANCH   1   6
TORSDOF 4
ENDMDL
MODEL 4
REMARK VINA RESULT:      -7.4      1.819      5.285
REMARK SMILES O=C(O)CCc1ccc2c(c1)OCO2
REMARK SMILES IDX 4 1 2 2 1 3 3 4 5 6 6 7 7 8 11 9 8 10 10 11 9 12 12 13 14 14
REMARK SMILES IDX 13 15
REMARK H PARENT 3 5
REMARK Flexibility Score: inf
ROOT
ATOM      1  C   UNL     1       8.315  -0.315  -2.872  1.00  0.00     0.127 C 
ENDROOT
BRANCH   1   2
ATOM      2  C   UNL     1       8.482  -1.743  -3.095  1.00  0.00     0.303 C 
ATOM      3  O   UNL     1       9.551  -2.354  -3.055  1.00  0.00    -0.252 OA
BRANCH   2   4
ATOM      4  O   UNL     1       7.328  -2.490  -3.380  1.00  0.00    -0.481 OA
ATOM      5  H   UNL     1       6.554  -1.980  -3.777  1.00  0.00     0.296 HD
ENDBRANCH   2   4
ENDBRANCH   1   2
BRANCH   1   6
ATOM      6  C   UNL     1       8.756   0.139  -1.536  1.00  0.00     0.047 C 
BRANCH   6   7
ATOM      7  C   UNL     1       7.784   0.075  -0.443  1.00  0.00    -0.043 A 
ATOM      8  C   UNL     1       7.732  -1.010   0.418  1.00  0.00     0.008 A 
ATOM      9  C   UNL     1       6.866   1.076  -0.263  1.00  0.00     0.054 A 
ATOM     10  C   UNL     1       6.794  -1.089   1.423  1.00  0.00     0.051 A 
ATOM     11  C   UNL     1       5.916   1.019   0.740  1.00  0.00     0.166 A 
ATOM     12  C   UNL     1       5.877  -0.063   1.586  1.00  0.00     0.165 A 
ATOM     13  O   UNL     1       4.910   1.896   1.103  1.00  0.00    -0.454 OA
ATOM     14  O   UNL     1       4.828   0.162   2.479  1.00  0.00    -0.454 OA
ATOM     15  C   UNL     1       4.022   1.215   2.002  1.00  0.00     0.468 C 
ENDBRANCH   6   7
ENDBRANCH   1   6
TORSDOF 4
ENDMDL
MODEL 5
REMARK VINA RESULT:      -7.3      1.023      2.104
REMARK SMILES O=C(O)CCc1ccc2c(c1)OCO2
REMARK SMILES IDX 4 1 2 2 1 3 3 4 5 6 6 7 7 8 11 9 8 10 10 11 9 12 12 13 14 14
REMARK SMILES IDX 13 15
REMARK H PARENT 3 5
REMARK Flexibility Score: inf
ROOT
ATOM      1  C   UNL     1       5.694   2.592   0.486  1.00  0.00     0.127 C 
ENDROOT
BRANCH   1   2
ATOM      2  C   UNL     1       6.222   3.812   1.077  1.00  0.00     0.303 C 
ATOM      3  O   UNL     1       6.146   4.124   2.266  1.00  0.00    -0.252 OA
BRANCH   2   4
ATOM      4  O   UNL     1       6.874   4.713   0.220  1.00  0.00    -0.481 OA
ATOM      5  H   UNL     1       6.322   5.086  -0.537  1.00  0.00     0.296 HD
ENDBRANCH   2   4
ENDBRANCH   1   2
BRANCH   1   6
ATOM      6  C   UNL     1       6.119   1.357   1.180  1.00  0.00     0.047 C 
BRANCH   6   7
ATOM      7  C   UNL     1       6.693   0.285   0.364  1.00  0.00    -0.043 A 
ATOM      8  C   UNL     1       6.529   0.255  -1.013  1.00  0.00     0.008 A 
ATOM      9  C   UNL     1       7.381  -0.746   0.946  1.00  0.00     0.054 A 
ATOM     10  C   UNL     1       7.038  -0.771  -1.777  1.00  0.00     0.051 A 
ATOM     11  C   UNL     1       7.901  -1.786   0.198  1.00  0.00     0.166 A 
ATOM     12  C   UNL     1       7.731  -1.802  -1.165  1.00  0.00     0.165 A 
ATOM     13  O   UNL     1       8.618  -2.912   0.564  1.00  0.00    -0.454 OA
ATOM     14  O   UNL     1       8.356  -2.959  -1.635  1.00  0.00    -0.454 OA
ATOM     15  C   UNL     1       8.638  -3.814  -0.552  1.00  0.00     0.468 C 
ENDBRANCH   6   7
ENDBRANCH   1   6
TORSDOF 4
ENDMDL
