@<TRIPOS>MOLECULE
/home/cewinharhar/GITHUB/reincatalyze/data/processed/docking_pred/2023-May-17-1006_maxeplen10_maxtrainstep1000_seadep16_gamma099_lrac9e-4_lrcr1e-3_sub6/c00c8b20774af87dd702fd508d588995eeb45aaa_ligand_6.pdbqt
 15 16 0 0 0
SMALL
GASTEIGER

@<TRIPOS>ATOM
      1  C          4.7300    1.8780    0.6890 C.3     1  UNL1        0.1270
      2  C          4.4020    1.1590    1.9100 C.2     1  UNL1        0.3030
      3  O          5.1130    0.3150    2.4590 O.2     1  UNL1       -0.2520
      4  O          3.1700    1.4500    2.5180 O.3     1  UNL1       -0.4810
      5  H          2.4430    0.7610    2.4020 H       1  UNL1        0.2960
      6  C          6.1620    2.2250    0.5640 C.3     1  UNL1        0.0470
      7  C          7.0110    1.3240   -0.2190 C.2     1  UNL1       -0.0430
      8  C          8.3690    1.5560   -0.3680 C.2     1  UNL1        0.0080
      9  C          6.4750    0.2400   -0.8620 C.2     1  UNL1        0.0540
     10  C          9.1620    0.7300   -1.1330 C.2     1  UNL1        0.0510
     11  C          7.2510   -0.6030   -1.6350 C.2     1  UNL1        0.1660
     12  C          8.5970   -0.3620   -1.7730 C.2     1  UNL1        0.1650
     13  O          6.9330   -1.7360   -2.3620 O.2     1  UNL1       -0.4540
     14  O          9.1040   -1.3660   -2.5990 O.2     1  UNL1       -0.4540
     15  C          8.0380   -2.0430   -3.2250 C.3     1  UNL1        0.4680
@<TRIPOS>BOND
     1    15    14    1
     2    15    13    1
     3    14    12    1
     4    13    11    1
     5    12    11    2
     6    12    10    1
     7    11     9    1
     8    10     8    2
     9     9     7    2
    10     8     7    1
    11     7     6    1
    12     6     1    1
    13     1     2    1
    14     2     3    2
    15     2     4    1
    16     5     4    1
