@<TRIPOS>MOLECULE
/home/cewinharhar/GITHUB/reincatalyze/data/processed/docking_pred/2023-May-17-1006_maxeplen10_maxtrainstep1000_seadep16_gamma099_lrac9e-4_lrcr1e-3_sub6/c00c8b20774af87dd702fd508d588995eeb45aaa_ligand_6.pdbqt
 15 16 0 0 0
SMALL
GASTEIGER

@<TRIPOS>ATOM
      1  C          5.6940    2.5920    0.4860 C.3     1  UNL1        0.1270
      2  C          6.2220    3.8120    1.0770 C.2     1  UNL1        0.3030
      3  O          6.1460    4.1240    2.2660 O.2     1  UNL1       -0.2520
      4  O          6.8740    4.7130    0.2200 O.3     1  UNL1       -0.4810
      5  H          6.3220    5.0860   -0.5370 H       1  UNL1        0.2960
      6  C          6.1190    1.3570    1.1800 C.3     1  UNL1        0.0470
      7  C          6.6930    0.2850    0.3640 C.2     1  UNL1       -0.0430
      8  C          6.5290    0.2550   -1.0130 C.2     1  UNL1        0.0080
      9  C          7.3810   -0.7460    0.9460 C.2     1  UNL1        0.0540
     10  C          7.0380   -0.7710   -1.7770 C.2     1  UNL1        0.0510
     11  C          7.9010   -1.7860    0.1980 C.2     1  UNL1        0.1660
     12  C          7.7310   -1.8020   -1.1650 C.2     1  UNL1        0.1650
     13  O          8.6180   -2.9120    0.5640 O.2     1  UNL1       -0.4540
     14  O          8.3560   -2.9590   -1.6350 O.2     1  UNL1       -0.4540
     15  C          8.6380   -3.8140   -0.5520 C.3     1  UNL1        0.4680
@<TRIPOS>BOND
     1    10    12    2
     2    10     8    1
     3    14    12    1
     4    14    15    1
     5    12    11    1
     6     8     7    2
     7    15    13    1
     8     5     4    1
     9    11    13    1
    10    11     9    2
    11     4     2    1
    12     7     9    1
    13     7     6    1
    14     1     2    1
    15     1     6    1
    16     2     3    2
