@<TRIPOS>MOLECULE
/home/cewinharhar/GITHUB/reincatalyze/data/processed/docking_pred/2023-May-17-1006_maxeplen10_maxtrainstep1000_seadep16_gamma099_lrac9e-4_lrcr1e-3_sub6/c00c8b20774af87dd702fd508d588995eeb45aaa_ligand_6.pdbqt
 15 16 0 0 0
SMALL
GASTEIGER

@<TRIPOS>ATOM
      1  C          6.3930    1.3280    0.6730 C.3     1  UNL1        0.1270
      2  C          5.2630    1.1410    1.5690 C.2     1  UNL1        0.3030
      3  O          5.1610    0.2570    2.4210 O.2     1  UNL1       -0.2520
      4  O          4.1940    2.0450    1.4560 O.3     1  UNL1       -0.4810
      5  H          3.3720    1.7050    0.9810 H       1  UNL1        0.2960
      6  C          6.1560    0.8380   -0.7020 C.3     1  UNL1        0.0470
      7  C          6.9350   -0.3160   -1.1540 C.2     1  UNL1       -0.0430
      8  C          7.2530   -0.4980   -2.4910 C.2     1  UNL1        0.0080
      9  C          7.3420   -1.2770   -0.2660 C.2     1  UNL1        0.0540
     10  C          7.9550   -1.6020   -2.9220 C.2     1  UNL1        0.0510
     11  C          8.0470   -2.3930   -0.6750 C.2     1  UNL1        0.1660
     12  C          8.3570   -2.5590   -2.0040 C.2     1  UNL1        0.1650
     13  O          8.5520   -3.4710    0.0300 O.2     1  UNL1       -0.4540
     14  O          9.0610   -3.7600   -2.1060 O.2     1  UNL1       -0.4540
     15  C          8.9210   -4.4910   -0.9100 C.3     1  UNL1        0.4680
@<TRIPOS>BOND
     1    10     8    1
     2    10    12    2
     3     8     7    2
     4    14    12    1
     5    14    15    1
     6    12    11    1
     7     7     6    1
     8     7     9    1
     9    15    13    1
    10     6     1    1
    11    11     9    2
    12    11    13    1
    13     1     2    1
    14     5     4    1
    15     4     2    1
    16     2     3    2
