@<TRIPOS>MOLECULE
/home/cewinharhar/GITHUB/reincatalyze/data/processed/docking_pred/2023-May-17-1006_maxeplen10_maxtrainstep1000_seadep16_gamma099_lrac9e-4_lrcr1e-3_sub6/c054a7f490e8e5c171bc57af56a9ae5cb4d717f8_ligand_6.pdbqt
 15 16 0 0 0
SMALL
GASTEIGER

@<TRIPOS>ATOM
      1  C          5.5590    2.6870    0.1070 C.3     1  UNL1        0.1270
      2  C          6.2110    3.7070    0.9120 C.2     1  UNL1        0.3030
      3  O          6.2370    3.7410    2.1440 O.2     1  UNL1       -0.2520
      4  O          6.8690    4.7430    0.2310 O.3     1  UNL1       -0.4810
      5  H          6.2850    5.4850   -0.1240 H       1  UNL1        0.2960
      6  C          5.5430    1.3470    0.7320 C.3     1  UNL1        0.0470
      7  C          6.3320    0.2920    0.0930 C.2     1  UNL1       -0.0430
      8  C          6.4590    0.2170   -1.2860 C.2     1  UNL1        0.0080
      9  C          6.9400   -0.6800    0.8420 C.2     1  UNL1        0.0540
     10  C          7.1710   -0.7950   -1.8900 C.2     1  UNL1        0.0510
     11  C          7.6590   -1.7050    0.2580 C.2     1  UNL1        0.1660
     12  C          7.7780   -1.7660   -1.1100 C.2     1  UNL1        0.1650
     13  O          8.3450   -2.7750    0.8050 O.2     1  UNL1       -0.4540
     14  O          8.5480   -2.8940   -1.3970 O.2     1  UNL1       -0.4540
     15  C          8.6460   -3.7030   -0.2480 C.3     1  UNL1        0.4680
@<TRIPOS>BOND
     1    10     8    1
     2    10    12    2
     3    14    12    1
     4    14    15    1
     5     8     7    2
     6    12    11    1
     7    15    13    1
     8     5     4    1
     9     7     6    1
    10     7     9    1
    11     1     6    1
    12     1     2    1
    13     4     2    1
    14    11    13    1
    15    11     9    2
    16     2     3    2
