MODEL 1
REMARK VINA RESULT:      -7.7      0.000      0.000
REMARK SMILES O=C(O)CCc1ccc2c(c1)OCO2
REMARK SMILES IDX 4 1 2 2 1 3 3 4 5 6 6 7 7 8 11 9 8 10 10 11 9 12 12 13 14 14
REMARK SMILES IDX 13 15
REMARK H PARENT 3 5
REMARK Flexibility Score: inf
ROOT
ATOM      1  C   UNL     1       5.410   2.919   0.068  1.00  0.00     0.127 C 
ENDROOT
BRANCH   1   2
ATOM      2  C   UNL     1       6.242   3.871   0.788  1.00  0.00     0.303 C 
ATOM      3  O   UNL     1       6.905   4.774   0.276  1.00  0.00    -0.252 OA
BRANCH   2   4
ATOM      4  O   UNL     1       6.294   3.752   2.185  1.00  0.00    -0.481 OA
ATOM      5  H   UNL     1       6.945   4.359   2.659  1.00  0.00     0.296 HD
ENDBRANCH   2   4
ENDBRANCH   1   2
BRANCH   1   6
ATOM      6  C   UNL     1       5.287   1.605   0.735  1.00  0.00     0.047 C 
BRANCH   6   7
ATOM      7  C   UNL     1       6.073   0.494   0.194  1.00  0.00    -0.043 A 
ATOM      8  C   UNL     1       6.505  -0.548   0.999  1.00  0.00     0.008 A 
ATOM      9  C   UNL     1       6.438   0.473  -1.126  1.00  0.00     0.054 A 
ATOM     10  C   UNL     1       7.275  -1.574   0.499  1.00  0.00     0.051 A 
ATOM     11  C   UNL     1       7.210  -0.547  -1.650  1.00  0.00     0.166 A 
ATOM     12  C   UNL     1       7.630  -1.574  -0.840  1.00  0.00     0.165 A 
ATOM     13  O   UNL     1       7.690  -0.773  -2.928  1.00  0.00    -0.454 OA
ATOM     14  O   UNL     1       8.379  -2.438  -1.640  1.00  0.00    -0.454 OA
ATOM     15  C   UNL     1       8.689  -1.801  -2.858  1.00  0.00     0.468 C 
ENDBRANCH   6   7
ENDBRANCH   1   6
TORSDOF 4
ENDMDL
MODEL 2
REMARK VINA RESULT:      -7.6      2.128      2.525
REMARK SMILES O=C(O)CCc1ccc2c(c1)OCO2
REMARK SMILES IDX 4 1 2 2 1 3 3 4 5 6 6 7 7 8 11 9 8 10 10 11 9 12 12 13 14 14
REMARK SMILES IDX 13 15
REMARK H PARENT 3 5
REMARK Flexibility Score: inf
ROOT
ATOM      1  C   UNL     1       4.705   1.880   0.684  1.00  0.00     0.127 C 
ENDROOT
BRANCH   1   2
ATOM      2  C   UNL     1       4.388   1.169   1.913  1.00  0.00     0.303 C 
ATOM      3  O   UNL     1       5.103   0.327   2.460  1.00  0.00    -0.252 OA
BRANCH   2   4
ATOM      4  O   UNL     1       3.164   1.467   2.532  1.00  0.00    -0.481 OA
ATOM      5  H   UNL     1       3.154   1.428   3.540  1.00  0.00     0.296 HD
ENDBRANCH   2   4
ENDBRANCH   1   2
BRANCH   1   6
ATOM      6  C   UNL     1       6.134   2.234   0.547  1.00  0.00     0.047 C 
BRANCH   6   7
ATOM      7  C   UNL     1       6.984   1.331  -0.230  1.00  0.00    -0.043 A 
ATOM      8  C   UNL     1       8.346   1.555  -0.368  1.00  0.00     0.008 A 
ATOM      9  C   UNL     1       6.448   0.251  -0.881  1.00  0.00     0.054 A 
ATOM     10  C   UNL     1       9.140   0.727  -1.128  1.00  0.00     0.051 A 
ATOM     11  C   UNL     1       7.226  -0.594  -1.649  1.00  0.00     0.166 A 
ATOM     12  C   UNL     1       8.574  -0.360  -1.775  1.00  0.00     0.165 A 
ATOM     13  O   UNL     1       6.908  -1.725  -2.381  1.00  0.00    -0.454 OA
ATOM     14  O   UNL     1       9.083  -1.365  -2.599  1.00  0.00    -0.454 OA
ATOM     15  C   UNL     1       8.019  -2.035  -3.235  1.00  0.00     0.468 C 
ENDBRANCH   6   7
ENDBRANCH   1   6
TORSDOF 4
ENDMDL
MODEL 3
REMARK VINA RESULT:      -7.4      1.990      2.977
REMARK SMILES O=C(O)CCc1ccc2c(c1)OCO2
REMARK SMILES IDX 4 1 2 2 1 3 3 4 5 6 6 7 7 8 11 9 8 10 10 11 9 12 12 13 14 14
REMARK SMILES IDX 13 15
REMARK H PARENT 3 5
REMARK Flexibility Score: inf
ROOT
ATOM      1  C   UNL     1       6.446   1.302   0.710  1.00  0.00     0.127 C 
ENDROOT
BRANCH   1   2
ATOM      2  C   UNL     1       5.258   1.181   1.541  1.00  0.00     0.303 C 
ATOM      3  O   UNL     1       5.081   0.336   2.421  1.00  0.00    -0.252 OA
BRANCH   2   4
ATOM      4  O   UNL     1       4.224   2.105   1.325  1.00  0.00    -0.481 OA
ATOM      5  H   UNL     1       3.423   1.765   0.814  1.00  0.00     0.296 HD
ENDBRANCH   2   4
ENDBRANCH   1   2
BRANCH   1   6
ATOM      6  C   UNL     1       6.250   0.855  -0.685  1.00  0.00     0.047 C 
BRANCH   6   7
ATOM      7  C   UNL     1       6.988  -0.331  -1.126  1.00  0.00    -0.043 A 
ATOM      8  C   UNL     1       7.295  -0.539  -2.461  1.00  0.00     0.008 A 
ATOM      9  C   UNL     1       7.363  -1.296  -0.228  1.00  0.00     0.054 A 
ATOM     10  C   UNL     1       7.957  -1.671  -2.882  1.00  0.00     0.051 A 
ATOM     11  C   UNL     1       8.028  -2.440  -0.627  1.00  0.00     0.166 A 
ATOM     12  C   UNL     1       8.328  -2.631  -1.954  1.00  0.00     0.165 A 
ATOM     13  O   UNL     1       8.497  -3.527   0.089  1.00  0.00    -0.454 OA
ATOM     14  O   UNL     1       8.990  -3.857  -2.045  1.00  0.00    -0.454 OA
ATOM     15  C   UNL     1       8.827  -4.569  -0.841  1.00  0.00     0.468 C 
ENDBRANCH   6   7
ENDBRANCH   1   6
TORSDOF 4
ENDMDL
MODEL 4
REMARK VINA RESULT:      -7.4      0.981      2.113
REMARK SMILES O=C(O)CCc1ccc2c(c1)OCO2
REMARK SMILES IDX 4 1 2 2 1 3 3 4 5 6 6 7 7 8 11 9 8 10 10 11 9 12 12 13 14 14
REMARK SMILES IDX 13 15
REMARK H PARENT 3 5
REMARK Flexibility Score: inf
ROOT
ATOM      1  C   UNL     1       5.559   2.687   0.107  1.00  0.00     0.127 C 
ENDROOT
BRANCH   1   2
ATOM      2  C   UNL     1       6.211   3.707   0.912  1.00  0.00     0.303 C 
ATOM      3  O   UNL     1       6.237   3.741   2.144  1.00  0.00    -0.252 OA
BRANCH   2   4
ATOM      4  O   UNL     1       6.869   4.743   0.231  1.00  0.00    -0.481 OA
ATOM      5  H   UNL     1       6.285   5.485  -0.124  1.00  0.00     0.296 HD
ENDBRANCH   2   4
ENDBRANCH   1   2
BRANCH   1   6
ATOM      6  C   UNL     1       5.543   1.347   0.732  1.00  0.00     0.047 C 
BRANCH   6   7
ATOM      7  C   UNL     1       6.332   0.292   0.093  1.00  0.00    -0.043 A 
ATOM      8  C   UNL     1       6.459   0.217  -1.286  1.00  0.00     0.008 A 
ATOM      9  C   UNL     1       6.940  -0.680   0.842  1.00  0.00     0.054 A 
ATOM     10  C   UNL     1       7.171  -0.795  -1.890  1.00  0.00     0.051 A 
ATOM     11  C   UNL     1       7.659  -1.705   0.258  1.00  0.00     0.166 A 
ATOM     12  C   UNL     1       7.778  -1.766  -1.110  1.00  0.00     0.165 A 
ATOM     13  O   UNL     1       8.345  -2.775   0.805  1.00  0.00    -0.454 OA
ATOM     14  O   UNL     1       8.548  -2.894  -1.397  1.00  0.00    -0.454 OA
ATOM     15  C   UNL     1       8.646  -3.703  -0.248  1.00  0.00     0.468 C 
ENDBRANCH   6   7
ENDBRANCH   1   6
TORSDOF 4
ENDMDL
MODEL 5
REMARK VINA RESULT:      -7.4      1.803      5.282
REMARK SMILES O=C(O)CCc1ccc2c(c1)OCO2
REMARK SMILES IDX 4 1 2 2 1 3 3 4 5 6 6 7 7 8 11 9 8 10 10 11 9 12 12 13 14 14
REMARK SMILES IDX 13 15
REMARK H PARENT 3 5
REMARK Flexibility Score: inf
ROOT
ATOM      1  C   UNL     1       8.316  -0.325  -2.864  1.00  0.00     0.127 C 
ENDROOT
BRANCH   1   2
ATOM      2  C   UNL     1       8.477  -1.754  -3.079  1.00  0.00     0.303 C 
ATOM      3  O   UNL     1       9.545  -2.368  -3.046  1.00  0.00    -0.252 OA
BRANCH   2   4
ATOM      4  O   UNL     1       7.319  -2.500  -3.348  1.00  0.00    -0.481 OA
ATOM      5  H   UNL     1       6.542  -1.990  -3.740  1.00  0.00     0.296 HD
ENDBRANCH   2   4
ENDBRANCH   1   2
BRANCH   1   6
ATOM      6  C   UNL     1       8.766   0.137  -1.533  1.00  0.00     0.047 C 
BRANCH   6   7
ATOM      7  C   UNL     1       7.795   0.095  -0.438  1.00  0.00    -0.043 A 
ATOM      8  C   UNL     1       7.734  -0.979   0.437  1.00  0.00     0.008 A 
ATOM      9  C   UNL     1       6.886   1.106  -0.269  1.00  0.00     0.054 A 
ATOM     10  C   UNL     1       6.798  -1.037   1.445  1.00  0.00     0.051 A 
ATOM     11  C   UNL     1       5.938   1.070   0.736  1.00  0.00     0.166 A 
ATOM     12  C   UNL     1       5.890  -0.001   1.596  1.00  0.00     0.165 A 
ATOM     13  O   UNL     1       4.940   1.961   1.090  1.00  0.00    -0.454 OA
ATOM     14  O   UNL     1       4.845   0.245   2.488  1.00  0.00    -0.454 OA
ATOM     15  C   UNL     1       4.048   1.299   1.999  1.00  0.00     0.468 C 
ENDBRANCH   6   7
ENDBRANCH   1   6
TORSDOF 4
ENDMDL
