@<TRIPOS>MOLECULE
/home/cewinharhar/GITHUB/reincatalyze/data/processed/docking_pred/2023-May-17-1006_maxeplen10_maxtrainstep1000_seadep16_gamma099_lrac9e-4_lrcr1e-3_sub6/c054a7f490e8e5c171bc57af56a9ae5cb4d717f8_ligand_6.pdbqt
 15 16 0 0 0
SMALL
GASTEIGER

@<TRIPOS>ATOM
      1  C          6.4460    1.3020    0.7100 C.3     1  UNL1        0.1270
      2  C          5.2580    1.1810    1.5410 C.2     1  UNL1        0.3030
      3  O          5.0810    0.3360    2.4210 O.2     1  UNL1       -0.2520
      4  O          4.2240    2.1050    1.3250 O.3     1  UNL1       -0.4810
      5  H          3.4230    1.7650    0.8140 H       1  UNL1        0.2960
      6  C          6.2500    0.8550   -0.6850 C.3     1  UNL1        0.0470
      7  C          6.9880   -0.3310   -1.1260 C.2     1  UNL1       -0.0430
      8  C          7.2950   -0.5390   -2.4610 C.2     1  UNL1        0.0080
      9  C          7.3630   -1.2960   -0.2280 C.2     1  UNL1        0.0540
     10  C          7.9570   -1.6710   -2.8820 C.2     1  UNL1        0.0510
     11  C          8.0280   -2.4400   -0.6270 C.2     1  UNL1        0.1660
     12  C          8.3280   -2.6310   -1.9540 C.2     1  UNL1        0.1650
     13  O          8.4970   -3.5270    0.0890 O.2     1  UNL1       -0.4540
     14  O          8.9900   -3.8570   -2.0450 O.2     1  UNL1       -0.4540
     15  C          8.8270   -4.5690   -0.8410 C.3     1  UNL1        0.4680
@<TRIPOS>BOND
     1    10     8    1
     2    10    12    2
     3     8     7    2
     4    14    12    1
     5    14    15    1
     6    12    11    1
     7     7     6    1
     8     7     9    1
     9    15    13    1
    10     6     1    1
    11    11     9    2
    12    11    13    1
    13     1     2    1
    14     5     4    1
    15     4     2    1
    16     2     3    2
