@<TRIPOS>MOLECULE
/home/cewinharhar/GITHUB/reincatalyze/data/processed/docking_pred/2023-May-17-1006_maxeplen10_maxtrainstep1000_seadep16_gamma099_lrac9e-4_lrcr1e-3_sub6/c054a7f490e8e5c171bc57af56a9ae5cb4d717f8_ligand_6.pdbqt
 15 16 0 0 0
SMALL
GASTEIGER

@<TRIPOS>ATOM
      1  C          5.4100    2.9190    0.0680 C.3     1  UNL1        0.1270
      2  C          6.2420    3.8710    0.7880 C.2     1  UNL1        0.3030
      3  O          6.9050    4.7740    0.2760 O.2     1  UNL1       -0.2520
      4  O          6.2940    3.7520    2.1850 O.3     1  UNL1       -0.4810
      5  H          6.9450    4.3590    2.6590 H       1  UNL1        0.2960
      6  C          5.2870    1.6050    0.7350 C.3     1  UNL1        0.0470
      7  C          6.0730    0.4940    0.1940 C.2     1  UNL1       -0.0430
      8  C          6.5050   -0.5480    0.9990 C.2     1  UNL1        0.0080
      9  C          6.4380    0.4730   -1.1260 C.2     1  UNL1        0.0540
     10  C          7.2750   -1.5740    0.4990 C.2     1  UNL1        0.0510
     11  C          7.2100   -0.5470   -1.6500 C.2     1  UNL1        0.1660
     12  C          7.6300   -1.5740   -0.8400 C.2     1  UNL1        0.1650
     13  O          7.6900   -0.7730   -2.9280 O.2     1  UNL1       -0.4540
     14  O          8.3790   -2.4380   -1.6400 O.2     1  UNL1       -0.4540
     15  C          8.6890   -1.8010   -2.8580 C.3     1  UNL1        0.4680
@<TRIPOS>BOND
     1    13    15    1
     2    13    11    1
     3    15    14    1
     4    11     9    1
     5    11    12    2
     6    14    12    1
     7     9     7    2
     8    12    10    1
     9     1     6    1
    10     1     2    1
    11     7     6    1
    12     7     8    1
    13     3     2    2
    14    10     8    2
    15     2     4    1
    16     4     5    1
