@<TRIPOS>MOLECULE
/home/cewinharhar/GITHUB/reincatalyze/data/processed/docking_pred/2023-May-17-1006_maxeplen10_maxtrainstep1000_seadep16_gamma099_lrac9e-4_lrcr1e-3_sub6/c054a7f490e8e5c171bc57af56a9ae5cb4d717f8_ligand_6.pdbqt
 15 16 0 0 0
SMALL
GASTEIGER

@<TRIPOS>ATOM
      1  C          8.3160   -0.3250   -2.8640 C.3     1  UNL1        0.1270
      2  C          8.4770   -1.7540   -3.0790 C.2     1  UNL1        0.3030
      3  O          9.5450   -2.3680   -3.0460 O.2     1  UNL1       -0.2520
      4  O          7.3190   -2.5000   -3.3480 O.3     1  UNL1       -0.4810
      5  H          6.5420   -1.9900   -3.7400 H       1  UNL1        0.2960
      6  C          8.7660    0.1370   -1.5330 C.3     1  UNL1        0.0470
      7  C          7.7950    0.0950   -0.4380 C.2     1  UNL1       -0.0430
      8  C          7.7340   -0.9790    0.4370 C.2     1  UNL1        0.0080
      9  C          6.8860    1.1060   -0.2690 C.2     1  UNL1        0.0540
     10  C          6.7980   -1.0370    1.4450 C.2     1  UNL1        0.0510
     11  C          5.9380    1.0700    0.7360 C.2     1  UNL1        0.1660
     12  C          5.8900   -0.0010    1.5960 C.2     1  UNL1        0.1650
     13  O          4.9400    1.9610    1.0900 O.2     1  UNL1       -0.4540
     14  O          4.8450    0.2450    2.4880 O.2     1  UNL1       -0.4540
     15  C          4.0480    1.2990    1.9990 C.3     1  UNL1        0.4680
@<TRIPOS>BOND
     1     5     4    1
     2     4     2    1
     3     2     3    2
     4     2     1    1
     5     1     6    1
     6     6     7    1
     7     7     9    2
     8     7     8    1
     9     9    11    1
    10     8    10    2
    11    11    13    1
    12    11    12    2
    13    13    15    1
    14    10    12    1
    15    12    14    1
    16    15    14    1
