@<TRIPOS>MOLECULE
/home/cewinharhar/GITHUB/reincatalyze/data/processed/docking_pred/2023-May-17-1006_maxeplen10_maxtrainstep1000_seadep16_gamma099_lrac9e-4_lrcr1e-3_sub6/c2b16f598521213e119e3a09a49f7e8c9c89cc3b_ligand_6.pdbqt
 15 16 0 0 0
SMALL
GASTEIGER

@<TRIPOS>ATOM
      1  C          6.4430    1.2790    0.7850 C.3     1  UNL1        0.1270
      2  C          5.2520    1.1330    1.6070 C.2     1  UNL1        0.3030
      3  O          5.0770    0.2710    2.4700 O.2     1  UNL1       -0.2520
      4  O          4.2110    2.0520    1.4020 O.3     1  UNL1       -0.4810
      5  H          3.4070    1.9560    2.0030 H       1  UNL1        0.2960
      6  C          6.2630    0.8400   -0.6150 C.3     1  UNL1        0.0470
      7  C          7.0010   -0.3460   -1.0540 C.2     1  UNL1       -0.0430
      8  C          7.2830   -0.5700   -2.3930 C.2     1  UNL1        0.0080
      9  C          7.4030   -1.2940   -0.1510 C.2     1  UNL1        0.0540
     10  C          7.9460   -1.7030   -2.8100 C.2     1  UNL1        0.0510
     11  C          8.0690   -2.4380   -0.5470 C.2     1  UNL1        0.1660
     12  C          8.3430   -2.6470   -1.8770 C.2     1  UNL1        0.1650
     13  O          8.5610   -3.5110    0.1760 O.2     1  UNL1       -0.4540
     14  O          9.0130   -3.8680   -1.9640 O.2     1  UNL1       -0.4540
     15  C          8.8820   -4.5640   -0.7460 C.3     1  UNL1        0.4680
@<TRIPOS>BOND
     1    10     8    1
     2    10    12    2
     3     8     7    2
     4    14    12    1
     5    14    15    1
     6    12    11    1
     7     7     6    1
     8     7     9    1
     9    15    13    1
    10     6     1    1
    11    11     9    2
    12    11    13    1
    13     1     2    1
    14     4     2    1
    15     4     5    1
    16     2     3    2
