@<TRIPOS>MOLECULE
/home/cewinharhar/GITHUB/reincatalyze/data/processed/docking_pred/2023-May-17-1006_maxeplen10_maxtrainstep1000_seadep16_gamma099_lrac9e-4_lrcr1e-3_sub6/c2b16f598521213e119e3a09a49f7e8c9c89cc3b_ligand_6.pdbqt
 15 16 0 0 0
SMALL
GASTEIGER

@<TRIPOS>ATOM
      1  C          8.2990   -0.3180   -2.8350 C.3     1  UNL1        0.1270
      2  C          8.4600   -1.7460   -3.0600 C.2     1  UNL1        0.3030
      3  O          9.5260   -2.3630   -3.0150 O.2     1  UNL1       -0.2520
      4  O          7.3050   -2.4870   -3.3530 O.3     1  UNL1       -0.4810
      5  H          7.2620   -2.9010   -4.2710 H       1  UNL1        0.2960
      6  C          8.7540    0.1350   -1.5040 C.3     1  UNL1        0.0470
      7  C          7.7820    0.1050   -0.4090 C.2     1  UNL1       -0.0430
      8  C          7.7290   -0.9540    0.4840 C.2     1  UNL1        0.0080
      9  C          6.8640    1.1100   -0.2590 C.2     1  UNL1        0.0540
     10  C          6.7920   -1.0020    1.4920 C.2     1  UNL1        0.0510
     11  C          5.9150    1.0840    0.7450 C.2     1  UNL1        0.1660
     12  C          5.8760    0.0290    1.6240 C.2     1  UNL1        0.1650
     13  O          4.9090    1.9730    1.0820 O.2     1  UNL1       -0.4540
     14  O          4.8270    0.2810    2.5090 O.2     1  UNL1       -0.4540
     15  C          4.0210    1.3190    2.0010 C.3     1  UNL1        0.4680
@<TRIPOS>BOND
     1     5     4    1
     2     4     2    1
     3     2     3    2
     4     2     1    1
     5     1     6    1
     6     6     7    1
     7     7     9    2
     8     7     8    1
     9     9    11    1
    10     8    10    2
    11    11    13    1
    12    11    12    2
    13    13    15    1
    14    10    12    1
    15    12    14    1
    16    15    14    1
