@<TRIPOS>MOLECULE
/home/cewinharhar/GITHUB/reincatalyze/data/processed/docking_pred/2023-May-17-1006_maxeplen10_maxtrainstep1000_seadep16_gamma099_lrac9e-4_lrcr1e-3_sub6/c2b16f598521213e119e3a09a49f7e8c9c89cc3b_ligand_6.pdbqt
 15 16 0 0 0
SMALL
GASTEIGER

@<TRIPOS>ATOM
      1  C          5.4320    2.7870    0.1150 C.3     1  UNL1        0.1270
      2  C          6.2310    3.6770    0.9420 C.2     1  UNL1        0.3030
      3  O          6.4240    3.5500    2.1530 O.2     1  UNL1       -0.2520
      4  O          6.8360    4.7750    0.3100 O.3     1  UNL1       -0.4810
      5  H          6.3250    5.6440    0.3420 H       1  UNL1        0.2960
      6  C          5.3070    1.4160    0.6550 C.3     1  UNL1        0.0470
      7  C          6.1750    0.3830    0.0870 C.2     1  UNL1       -0.0430
      8  C          6.4960    0.3660   -1.2620 C.2     1  UNL1        0.0080
      9  C          6.6670   -0.6270    0.8710 C.2     1  UNL1        0.0540
     10  C          7.2830   -0.6260   -1.8040 C.2     1  UNL1        0.0510
     11  C          7.4590   -1.6320    0.3490 C.2     1  UNL1        0.1660
     12  C          7.7700   -1.6350   -0.9890 C.2     1  UNL1        0.1650
     13  O          8.0570   -2.7310    0.9400 O.2     1  UNL1       -0.4540
     14  O          8.5700   -2.7560   -1.2150 O.2     1  UNL1       -0.4540
     15  C          8.5010   -3.6150   -0.1000 C.3     1  UNL1        0.4680
@<TRIPOS>BOND
     1    10     8    1
     2    10    12    2
     3     8     7    2
     4    14    12    1
     5    14    15    1
     6    12    11    1
     7    15    13    1
     8     7     6    1
     9     7     9    1
    10     1     6    1
    11     1     2    1
    12     4     5    1
    13     4     2    1
    14    11     9    2
    15    11    13    1
    16     2     3    2
