@<TRIPOS>MOLECULE
/home/cewinharhar/GITHUB/reincatalyze/data/processed/docking_pred/2023-May-17-1006_maxeplen10_maxtrainstep1000_seadep16_gamma099_lrac9e-4_lrcr1e-3_sub6/c2b16f598521213e119e3a09a49f7e8c9c89cc3b_ligand_6.pdbqt
 15 16 0 0 0
SMALL
GASTEIGER

@<TRIPOS>ATOM
      1  C          4.7200    1.8800    0.7010 C.3     1  UNL1        0.1270
      2  C          4.4210    1.1480    1.9220 C.2     1  UNL1        0.3030
      3  O          5.1540    0.3140    2.4560 O.2     1  UNL1       -0.2520
      4  O          3.1920    1.4130    2.5470 O.3     1  UNL1       -0.4810
      5  H          2.5180    0.6630    2.5400 H       1  UNL1        0.2960
      6  C          6.1470    2.2340    0.5480 C.3     1  UNL1        0.0470
      7  C          6.9920    1.3230   -0.2280 C.2     1  UNL1       -0.0430
      8  C          8.3550    1.5370   -0.3620 C.2     1  UNL1        0.0080
      9  C          6.4480    0.2490   -0.8800 C.2     1  UNL1        0.0540
     10  C          9.1440    0.7020   -1.1210 C.2     1  UNL1        0.0510
     11  C          7.2210   -0.6030   -1.6460 C.2     1  UNL1        0.1660
     12  C          8.5710   -0.3800   -1.7700 C.2     1  UNL1        0.1650
     13  O          6.8940   -1.7300   -2.3800 O.2     1  UNL1       -0.4540
     14  O          9.0730   -1.3900   -2.5920 O.2     1  UNL1       -0.4540
     15  C          8.0040   -2.0500   -3.2310 C.3     1  UNL1        0.4680
@<TRIPOS>BOND
     1    15    14    1
     2    15    13    1
     3    14    12    1
     4    13    11    1
     5    12    11    2
     6    12    10    1
     7    11     9    1
     8    10     8    2
     9     9     7    2
    10     8     7    1
    11     7     6    1
    12     6     1    1
    13     1     2    1
    14     2     3    2
    15     2     4    1
    16     5     4    1
