@<TRIPOS>MOLECULE
/home/cewinharhar/GITHUB/reincatalyze/data/processed/docking_pred/2023-May-17-1006_maxeplen10_maxtrainstep1000_seadep16_gamma099_lrac9e-4_lrcr1e-3_sub6/c2b16f598521213e119e3a09a49f7e8c9c89cc3b_ligand_6.pdbqt
 15 16 0 0 0
SMALL
GASTEIGER

@<TRIPOS>ATOM
      1  C          5.4210    2.8650    0.1300 C.3     1  UNL1        0.1270
      2  C          6.2570    3.8470    0.8020 C.2     1  UNL1        0.3030
      3  O          6.8820    4.7540    0.2500 O.2     1  UNL1       -0.2520
      4  O          6.3610    3.7570    2.1990 O.3     1  UNL1       -0.4810
      5  H          5.6620    4.2510    2.7300 H       1  UNL1        0.2960
      6  C          5.3590    1.5580    0.8180 C.3     1  UNL1        0.0470
      7  C          6.1400    0.4560    0.2510 C.2     1  UNL1       -0.0430
      8  C          6.6080   -0.5830    1.0410 C.2     1  UNL1        0.0080
      9  C          6.4660    0.4410   -1.0790 C.2     1  UNL1        0.0540
     10  C          7.3720   -1.6000    0.5160 C.2     1  UNL1        0.0510
     11  C          7.2310   -0.5700   -1.6280 C.2     1  UNL1        0.1660
     12  C          7.6870   -1.5940   -0.8330 C.2     1  UNL1        0.1650
     13  O          7.6750   -0.7880   -2.9210 O.2     1  UNL1       -0.4540
     14  O          8.4200   -2.4490   -1.6580 O.2     1  UNL1       -0.4540
     15  C          8.6860   -1.8060   -2.8830 C.3     1  UNL1        0.4680
@<TRIPOS>BOND
     1    13    15    1
     2    13    11    1
     3    15    14    1
     4    14    12    1
     5    11     9    1
     6    11    12    2
     7     9     7    2
     8    12    10    1
     9     1     2    1
    10     1     6    1
    11     3     2    2
    12     7     6    1
    13     7     8    1
    14    10     8    2
    15     2     4    1
    16     4     5    1
