@<TRIPOS>MOLECULE
/home/cewinharhar/GITHUB/reincatalyze/data/processed/docking_pred/2023-May-17-1006_maxeplen10_maxtrainstep1000_seadep16_gamma099_lrac9e-4_lrcr1e-3_sub6/c584487daa348165e33ca71579c90fd99cb4babd_ligand_6.pdbqt
 15 16 0 0 0
SMALL
GASTEIGER

@<TRIPOS>ATOM
      1  C          5.0770    0.1480    1.9910 C.3     1  UNL1        0.1270
      2  C          4.2090    1.3100    1.8840 C.2     1  UNL1        0.3030
      3  O          4.3790    2.2650    1.1240 O.2     1  UNL1       -0.2520
      4  O          3.0790    1.3490    2.7160 O.3     1  UNL1       -0.4810
      5  H          3.0810    2.0550    3.4360 H       1  UNL1        0.2960
      6  C          6.4680    0.3960    1.5530 C.3     1  UNL1        0.0470
      7  C          6.9830   -0.4130    0.4460 C.2     1  UNL1       -0.0430
      8  C          6.7610   -0.0590   -0.8750 C.2     1  UNL1        0.0080
      9  C          7.6720   -1.5720    0.6880 C.2     1  UNL1        0.0540
     10  C          7.2140   -0.8370   -1.9170 C.2     1  UNL1        0.0510
     11  C          8.1360   -2.3690   -0.3420 C.2     1  UNL1        0.1660
     12  C          7.9090   -2.0050   -1.6470 C.2     1  UNL1        0.1650
     13  O          8.8420   -3.5590   -0.3350 O.2     1  UNL1       -0.4540
     14  O          8.4880   -2.9910   -2.4470 O.2     1  UNL1       -0.4540
     15  C          8.7960   -4.1170   -1.6570 C.3     1  UNL1        0.4680
@<TRIPOS>BOND
     1    14    15    1
     2    14    12    1
     3    10    12    2
     4    10     8    1
     5    15    13    1
     6    12    11    1
     7     8     7    2
     8    11    13    1
     9    11     9    2
    10     7     9    1
    11     7     6    1
    12     3     2    2
    13     6     1    1
    14     2     1    1
    15     2     4    1
    16     4     5    1
