@<TRIPOS>MOLECULE
/home/cewinharhar/GITHUB/reincatalyze/data/processed/docking_pred/2023-May-17-1006_maxeplen10_maxtrainstep1000_seadep16_gamma099_lrac9e-4_lrcr1e-3_sub6/c584487daa348165e33ca71579c90fd99cb4babd_ligand_6.pdbqt
 15 16 0 0 0
SMALL
GASTEIGER

@<TRIPOS>ATOM
      1  C          8.2210   -0.2390   -2.8220 C.3     1  UNL1        0.1270
      2  C          8.4580   -1.6610   -3.0150 C.2     1  UNL1        0.3030
      3  O          9.5430   -2.2310   -2.8890 O.2     1  UNL1       -0.2520
      4  O          7.3580   -2.4540   -3.3770 O.3     1  UNL1       -0.4810
      5  H          7.4370   -3.4400   -3.1830 H       1  UNL1        0.2960
      6  C          8.6740    0.2720   -1.5100 C.3     1  UNL1        0.0470
      7  C          7.7190    0.2330   -0.4010 C.2     1  UNL1       -0.0430
      8  C          7.7480   -0.7810    0.5450 C.2     1  UNL1        0.0080
      9  C          6.7370    1.1810   -0.2880 C.2     1  UNL1        0.0540
     10  C          6.8280   -0.8390    1.5680 C.2     1  UNL1        0.0510
     11  C          5.8040    1.1430    0.7300 C.2     1  UNL1        0.1660
     12  C          5.8460    0.1330    1.6610 C.2     1  UNL1        0.1650
     13  O          4.7440    1.9780    1.0370 O.2     1  UNL1       -0.4540
     14  O          4.7920    0.3590    2.5490 O.2     1  UNL1       -0.4540
     15  C          3.9130    1.3140    2.0010 C.3     1  UNL1        0.4680
@<TRIPOS>BOND
     1     4     5    1
     2     4     2    1
     3     2     3    2
     4     2     1    1
     5     1     6    1
     6     6     7    1
     7     7     9    2
     8     7     8    1
     9     9    11    1
    10     8    10    2
    11    11    13    1
    12    11    12    2
    13    13    15    1
    14    10    12    1
    15    12    14    1
    16    15    14    1
