@<TRIPOS>MOLECULE
/home/cewinharhar/GITHUB/reincatalyze/data/processed/docking_pred/2023-May-17-1006_maxeplen10_maxtrainstep1000_seadep16_gamma099_lrac9e-4_lrcr1e-3_sub6/c584487daa348165e33ca71579c90fd99cb4babd_ligand_6.pdbqt
 15 16 0 0 0
SMALL
GASTEIGER

@<TRIPOS>ATOM
      1  C          4.6960    1.8820    0.6770 C.3     1  UNL1        0.1270
      2  C          4.4130    1.1670    1.9110 C.2     1  UNL1        0.3030
      3  O          5.1590    0.3490    2.4530 O.2     1  UNL1       -0.2520
      4  O          3.1860    1.4280    2.5400 O.3     1  UNL1       -0.4810
      5  H          3.1350    1.2100    3.5240 H       1  UNL1        0.2960
      6  C          6.1180    2.2530    0.5100 C.3     1  UNL1        0.0470
      7  C          6.9710    1.3400   -0.2530 C.2     1  UNL1       -0.0430
      8  C          8.3350    1.5570   -0.3780 C.2     1  UNL1        0.0080
      9  C          6.4360    0.2600   -0.9030 C.2     1  UNL1        0.0540
     10  C          9.1330    0.7200   -1.1250 C.2     1  UNL1        0.0510
     11  C          7.2170   -0.5940   -1.6580 C.2     1  UNL1        0.1660
     12  C          8.5670   -0.3680   -1.7720 C.2     1  UNL1        0.1650
     13  O          6.8990   -1.7260   -2.3870 O.2     1  UNL1       -0.4540
     14  O          9.0790   -1.3810   -2.5850 O.2     1  UNL1       -0.4540
     15  C          8.0180   -2.0480   -3.2280 C.3     1  UNL1        0.4680
@<TRIPOS>BOND
     1    15    14    1
     2    15    13    1
     3    14    12    1
     4    13    11    1
     5    12    11    2
     6    12    10    1
     7    11     9    1
     8    10     8    2
     9     9     7    2
    10     8     7    1
    11     7     6    1
    12     6     1    1
    13     1     2    1
    14     2     3    2
    15     2     4    1
    16     4     5    1
