@<TRIPOS>MOLECULE
/home/cewinharhar/GITHUB/reincatalyze/data/processed/docking_pred/2023-May-17-1006_maxeplen10_maxtrainstep1000_seadep16_gamma099_lrac9e-4_lrcr1e-3_sub6/c584487daa348165e33ca71579c90fd99cb4babd_ligand_6.pdbqt
 15 16 0 0 0
SMALL
GASTEIGER

@<TRIPOS>ATOM
      1  C          5.3910    2.9000    0.0740 C.3     1  UNL1        0.1270
      2  C          6.1710    3.9330    0.7370 C.2     1  UNL1        0.3030
      3  O          6.8720    4.7750    0.1730 O.2     1  UNL1       -0.2520
      4  O          6.1230    3.9770    2.1390 O.3     1  UNL1       -0.4810
      5  H          6.1620    3.0880    2.6140 H       1  UNL1        0.2960
      6  C          5.3630    1.6110    0.7980 C.3     1  UNL1        0.0470
      7  C          6.1260    0.4980    0.2280 C.2     1  UNL1       -0.0430
      8  C          6.5390   -0.5710    1.0080 C.2     1  UNL1        0.0080
      9  C          6.4880    0.5010   -1.0920 C.2     1  UNL1        0.0540
     10  C          7.2870   -1.6010    0.4830 C.2     1  UNL1        0.0510
     11  C          7.2380   -0.5220   -1.6420 C.2     1  UNL1        0.1660
     12  C          7.6400   -1.5760   -0.8570 C.2     1  UNL1        0.1650
     13  O          7.7110   -0.7270   -2.9260 O.2     1  UNL1       -0.4540
     14  O          8.3700   -2.4350   -1.6790 O.2     1  UNL1       -0.4540
     15  C          8.6900   -1.7760   -2.8830 C.3     1  UNL1        0.4680
@<TRIPOS>BOND
     1    13    15    1
     2    13    11    1
     3    15    14    1
     4    14    12    1
     5    11     9    1
     6    11    12    2
     7     9     7    2
     8    12    10    1
     9     1     2    1
    10     1     6    1
    11     3     2    2
    12     7     6    1
    13     7     8    1
    14    10     8    2
    15     2     4    1
    16     4     5    1
