MODEL 1
REMARK VINA RESULT:      -7.7      0.000      0.000
REMARK SMILES O=C(O)CCc1ccc2c(c1)OCO2
REMARK SMILES IDX 4 1 2 2 1 3 3 4 5 6 6 7 7 8 11 9 8 10 10 11 9 12 12 13 14 14
REMARK SMILES IDX 13 15
REMARK H PARENT 3 5
REMARK Flexibility Score: inf
ROOT
ATOM      1  C   UNL     1       4.696   1.882   0.677  1.00  0.00     0.127 C 
ENDROOT
BRANCH   1   2
ATOM      2  C   UNL     1       4.413   1.167   1.911  1.00  0.00     0.303 C 
ATOM      3  O   UNL     1       5.159   0.349   2.453  1.00  0.00    -0.252 OA
BRANCH   2   4
ATOM      4  O   UNL     1       3.186   1.428   2.540  1.00  0.00    -0.481 OA
ATOM      5  H   UNL     1       3.135   1.210   3.524  1.00  0.00     0.296 HD
ENDBRANCH   2   4
ENDBRANCH   1   2
BRANCH   1   6
ATOM      6  C   UNL     1       6.118   2.253   0.510  1.00  0.00     0.047 C 
BRANCH   6   7
ATOM      7  C   UNL     1       6.971   1.340  -0.253  1.00  0.00    -0.043 A 
ATOM      8  C   UNL     1       8.335   1.557  -0.378  1.00  0.00     0.008 A 
ATOM      9  C   UNL     1       6.436   0.260  -0.903  1.00  0.00     0.054 A 
ATOM     10  C   UNL     1       9.133   0.720  -1.125  1.00  0.00     0.051 A 
ATOM     11  C   UNL     1       7.217  -0.594  -1.658  1.00  0.00     0.166 A 
ATOM     12  C   UNL     1       8.567  -0.368  -1.772  1.00  0.00     0.165 A 
ATOM     13  O   UNL     1       6.899  -1.726  -2.387  1.00  0.00    -0.454 OA
ATOM     14  O   UNL     1       9.079  -1.381  -2.585  1.00  0.00    -0.454 OA
ATOM     15  C   UNL     1       8.018  -2.048  -3.228  1.00  0.00     0.468 C 
ENDBRANCH   6   7
ENDBRANCH   1   6
TORSDOF 4
ENDMDL
MODEL 2
REMARK VINA RESULT:      -7.6      1.438      5.362
REMARK SMILES O=C(O)CCc1ccc2c(c1)OCO2
REMARK SMILES IDX 4 1 2 2 1 3 3 4 5 6 6 7 7 8 11 9 8 10 10 11 9 12 12 13 14 14
REMARK SMILES IDX 13 15
REMARK H PARENT 3 5
REMARK Flexibility Score: inf
ROOT
ATOM      1  C   UNL     1       8.221  -0.239  -2.822  1.00  0.00     0.127 C 
ENDROOT
BRANCH   1   2
ATOM      2  C   UNL     1       8.458  -1.661  -3.015  1.00  0.00     0.303 C 
ATOM      3  O   UNL     1       9.543  -2.231  -2.889  1.00  0.00    -0.252 OA
BRANCH   2   4
ATOM      4  O   UNL     1       7.358  -2.454  -3.377  1.00  0.00    -0.481 OA
ATOM      5  H   UNL     1       7.437  -3.440  -3.183  1.00  0.00     0.296 HD
ENDBRANCH   2   4
ENDBRANCH   1   2
BRANCH   1   6
ATOM      6  C   UNL     1       8.674   0.272  -1.510  1.00  0.00     0.047 C 
BRANCH   6   7
ATOM      7  C   UNL     1       7.719   0.233  -0.401  1.00  0.00    -0.043 A 
ATOM      8  C   UNL     1       7.748  -0.781   0.545  1.00  0.00     0.008 A 
ATOM      9  C   UNL     1       6.737   1.181  -0.288  1.00  0.00     0.054 A 
ATOM     10  C   UNL     1       6.828  -0.839   1.568  1.00  0.00     0.051 A 
ATOM     11  C   UNL     1       5.804   1.143   0.730  1.00  0.00     0.166 A 
ATOM     12  C   UNL     1       5.846   0.133   1.661  1.00  0.00     0.165 A 
ATOM     13  O   UNL     1       4.744   1.978   1.037  1.00  0.00    -0.454 OA
ATOM     14  O   UNL     1       4.792   0.359   2.549  1.00  0.00    -0.454 OA
ATOM     15  C   UNL     1       3.913   1.314   2.001  1.00  0.00     0.468 C 
ENDBRANCH   6   7
ENDBRANCH   1   6
TORSDOF 4
ENDMDL
MODEL 3
REMARK VINA RESULT:      -7.4      1.853      2.224
REMARK SMILES O=C(O)CCc1ccc2c(c1)OCO2
REMARK SMILES IDX 4 1 2 2 1 3 3 4 5 6 6 7 7 8 11 9 8 10 10 11 9 12 12 13 14 14
REMARK SMILES IDX 13 15
REMARK H PARENT 3 5
REMARK Flexibility Score: inf
ROOT
ATOM      1  C   UNL     1       5.077   0.148   1.991  1.00  0.00     0.127 C 
ENDROOT
BRANCH   1   2
ATOM      2  C   UNL     1       4.209   1.310   1.884  1.00  0.00     0.303 C 
ATOM      3  O   UNL     1       4.379   2.265   1.124  1.00  0.00    -0.252 OA
BRANCH   2   4
ATOM      4  O   UNL     1       3.079   1.349   2.716  1.00  0.00    -0.481 OA
ATOM      5  H   UNL     1       3.081   2.055   3.436  1.00  0.00     0.296 HD
ENDBRANCH   2   4
ENDBRANCH   1   2
BRANCH   1   6
ATOM      6  C   UNL     1       6.468   0.396   1.553  1.00  0.00     0.047 C 
BRANCH   6   7
ATOM      7  C   UNL     1       6.983  -0.413   0.446  1.00  0.00    -0.043 A 
ATOM      8  C   UNL     1       6.761  -0.059  -0.875  1.00  0.00     0.008 A 
ATOM      9  C   UNL     1       7.672  -1.572   0.688  1.00  0.00     0.054 A 
ATOM     10  C   UNL     1       7.214  -0.837  -1.917  1.00  0.00     0.051 A 
ATOM     11  C   UNL     1       8.136  -2.369  -0.342  1.00  0.00     0.166 A 
ATOM     12  C   UNL     1       7.909  -2.005  -1.647  1.00  0.00     0.165 A 
ATOM     13  O   UNL     1       8.842  -3.559  -0.335  1.00  0.00    -0.454 OA
ATOM     14  O   UNL     1       8.488  -2.991  -2.447  1.00  0.00    -0.454 OA
ATOM     15  C   UNL     1       8.796  -4.117  -1.657  1.00  0.00     0.468 C 
ENDBRANCH   6   7
ENDBRANCH   1   6
TORSDOF 4
ENDMDL
MODEL 4
REMARK VINA RESULT:      -7.2      1.901      5.586
REMARK SMILES O=C(O)CCc1ccc2c(c1)OCO2
REMARK SMILES IDX 4 1 2 2 1 3 3 4 5 6 6 7 7 8 11 9 8 10 10 11 9 12 12 13 14 14
REMARK SMILES IDX 13 15
REMARK H PARENT 3 5
REMARK Flexibility Score: inf
ROOT
ATOM      1  C   UNL     1       8.067  -1.870  -1.318  1.00  0.00     0.127 C 
ENDROOT
BRANCH   1   2
ATOM      2  C   UNL     1       8.419  -2.329  -2.652  1.00  0.00     0.303 C 
ATOM      3  O   UNL     1       9.555  -2.608  -3.038  1.00  0.00    -0.252 OA
BRANCH   2   4
ATOM      4  O   UNL     1       7.376  -2.467  -3.582  1.00  0.00    -0.481 OA
ATOM      5  H   UNL     1       6.466  -2.156  -3.280  1.00  0.00     0.296 HD
ENDBRANCH   2   4
ENDBRANCH   1   2
BRANCH   1   6
ATOM      6  C   UNL     1       6.738  -1.227  -1.235  1.00  0.00     0.047 C 
BRANCH   6   7
ATOM      7  C   UNL     1       6.581  -0.113  -0.298  1.00  0.00    -0.043 A 
ATOM      8  C   UNL     1       5.965  -0.281   0.932  1.00  0.00     0.008 A 
ATOM      9  C   UNL     1       7.008   1.146  -0.630  1.00  0.00     0.054 A 
ATOM     10  C   UNL     1       5.785   0.773   1.799  1.00  0.00     0.051 A 
ATOM     11  C   UNL     1       6.839   2.219   0.225  1.00  0.00     0.166 A 
ATOM     12  C   UNL     1       6.227   2.037   1.441  1.00  0.00     0.165 A 
ATOM     13  O   UNL     1       7.184   3.553   0.103  1.00  0.00    -0.454 OA
ATOM     14  O   UNL     1       6.200   3.283   2.070  1.00  0.00    -0.454 OA
ATOM     15  C   UNL     1       6.504   4.289   1.132  1.00  0.00     0.468 C 
ENDBRANCH   6   7
ENDBRANCH   1   6
TORSDOF 4
ENDMDL
MODEL 5
REMARK VINA RESULT:      -6.7      2.151      2.522
REMARK SMILES O=C(O)CCc1ccc2c(c1)OCO2
REMARK SMILES IDX 4 1 2 2 1 3 3 4 5 6 6 7 7 8 11 9 8 10 10 11 9 12 12 13 14 14
REMARK SMILES IDX 13 15
REMARK H PARENT 3 5
REMARK Flexibility Score: inf
ROOT
ATOM      1  C   UNL     1       5.391   2.900   0.074  1.00  0.00     0.127 C 
ENDROOT
BRANCH   1   2
ATOM      2  C   UNL     1       6.171   3.933   0.737  1.00  0.00     0.303 C 
ATOM      3  O   UNL     1       6.872   4.775   0.173  1.00  0.00    -0.252 OA
BRANCH   2   4
ATOM      4  O   UNL     1       6.123   3.977   2.139  1.00  0.00    -0.481 OA
ATOM      5  H   UNL     1       6.162   3.088   2.614  1.00  0.00     0.296 HD
ENDBRANCH   2   4
ENDBRANCH   1   2
BRANCH   1   6
ATOM      6  C   UNL     1       5.363   1.611   0.798  1.00  0.00     0.047 C 
BRANCH   6   7
ATOM      7  C   UNL     1       6.126   0.498   0.228  1.00  0.00    -0.043 A 
ATOM      8  C   UNL     1       6.539  -0.571   1.008  1.00  0.00     0.008 A 
ATOM      9  C   UNL     1       6.488   0.501  -1.092  1.00  0.00     0.054 A 
ATOM     10  C   UNL     1       7.287  -1.601   0.483  1.00  0.00     0.051 A 
ATOM     11  C   UNL     1       7.238  -0.522  -1.642  1.00  0.00     0.166 A 
ATOM     12  C   UNL     1       7.640  -1.576  -0.857  1.00  0.00     0.165 A 
ATOM     13  O   UNL     1       7.711  -0.727  -2.926  1.00  0.00    -0.454 OA
ATOM     14  O   UNL     1       8.370  -2.435  -1.679  1.00  0.00    -0.454 OA
ATOM     15  C   UNL     1       8.690  -1.776  -2.883  1.00  0.00     0.468 C 
ENDBRANCH   6   7
ENDBRANCH   1   6
TORSDOF 4
ENDMDL
