@<TRIPOS>MOLECULE
/home/cewinharhar/GITHUB/reincatalyze/data/processed/docking_pred/2023-May-17-1006_maxeplen10_maxtrainstep1000_seadep16_gamma099_lrac9e-4_lrcr1e-3_sub6/c584487daa348165e33ca71579c90fd99cb4babd_ligand_6.pdbqt
 15 16 0 0 0
SMALL
GASTEIGER

@<TRIPOS>ATOM
      1  C          8.0670   -1.8700   -1.3180 C.3     1  UNL1        0.1270
      2  C          8.4190   -2.3290   -2.6520 C.2     1  UNL1        0.3030
      3  O          9.5550   -2.6080   -3.0380 O.2     1  UNL1       -0.2520
      4  O          7.3760   -2.4670   -3.5820 O.3     1  UNL1       -0.4810
      5  H          6.4660   -2.1560   -3.2800 H       1  UNL1        0.2960
      6  C          6.7380   -1.2270   -1.2350 C.3     1  UNL1        0.0470
      7  C          6.5810   -0.1130   -0.2980 C.2     1  UNL1       -0.0430
      8  C          5.9650   -0.2810    0.9320 C.2     1  UNL1        0.0080
      9  C          7.0080    1.1460   -0.6300 C.2     1  UNL1        0.0540
     10  C          5.7850    0.7730    1.7990 C.2     1  UNL1        0.0510
     11  C          6.8390    2.2190    0.2250 C.2     1  UNL1        0.1660
     12  C          6.2270    2.0370    1.4410 C.2     1  UNL1        0.1650
     13  O          7.1840    3.5530    0.1030 O.2     1  UNL1       -0.4540
     14  O          6.2000    3.2830    2.0700 O.2     1  UNL1       -0.4540
     15  C          6.5040    4.2890    1.1320 C.3     1  UNL1        0.4680
@<TRIPOS>BOND
     1     4     5    1
     2     4     2    1
     3     3     2    2
     4     2     1    1
     5     1     6    1
     6     6     7    1
     7     9     7    2
     8     9    11    1
     9     7     8    1
    10    13    11    1
    11    13    15    1
    12    11    12    2
    13     8    10    2
    14    15    14    1
    15    12    10    1
    16    12    14    1
