@<TRIPOS>MOLECULE
/home/cewinharhar/GITHUB/reincatalyze/data/processed/docking_pred/2023-May-17-1006_maxeplen10_maxtrainstep1000_seadep16_gamma099_lrac9e-4_lrcr1e-3_sub6/c5f7f675b3df69e676e62d17e40489667b0e6a6f_ligand_6.pdbqt
 15 16 0 0 0
SMALL
GASTEIGER

@<TRIPOS>ATOM
      1  C          6.4400    1.3600    0.6280 C.3     1  UNL1        0.1270
      2  C          5.2250    1.3700    1.4270 C.2     1  UNL1        0.3030
      3  O          4.2830    2.1530    1.2890 O.2     1  UNL1       -0.2520
      4  O          5.1130    0.4080    2.4420 O.3     1  UNL1       -0.4810
      5  H          4.7190   -0.4800    2.1730 H       1  UNL1        0.2960
      6  C          6.2480    0.8620   -0.7510 C.3     1  UNL1        0.0470
      7  C          6.9980   -0.3300   -1.1520 C.2     1  UNL1       -0.0430
      8  C          7.3050   -0.5810   -2.4800 C.2     1  UNL1        0.0080
      9  C          7.3870   -1.2570   -0.2220 C.2     1  UNL1        0.0540
     10  C          7.9790   -1.7200   -2.8620 C.2     1  UNL1        0.0510
     11  C          8.0650   -2.4070   -0.5820 C.2     1  UNL1        0.1660
     12  C          8.3630   -2.6420   -1.9020 C.2     1  UNL1        0.1650
     13  O          8.5480   -3.4630    0.1710 O.2     1  UNL1       -0.4540
     14  O          9.0390   -3.8620   -1.9520 O.2     1  UNL1       -0.4540
     15  C          8.8890   -4.5330   -0.7220 C.3     1  UNL1        0.4680
@<TRIPOS>BOND
     1    10     8    1
     2    10    12    2
     3     8     7    2
     4    14    12    1
     5    14    15    1
     6    12    11    1
     7     7     6    1
     8     7     9    1
     9     6     1    1
    10    15    13    1
    11    11     9    2
    12    11    13    1
    13     1     2    1
    14     3     2    2
    15     2     4    1
    16     5     4    1
