@<TRIPOS>MOLECULE
/home/cewinharhar/GITHUB/reincatalyze/data/processed/docking_pred/2023-May-17-1006_maxeplen10_maxtrainstep1000_seadep16_gamma099_lrac9e-4_lrcr1e-3_sub6/c5f7f675b3df69e676e62d17e40489667b0e6a6f_ligand_6.pdbqt
 15 16 0 0 0
SMALL
GASTEIGER

@<TRIPOS>ATOM
      1  C          5.3830    2.8340    0.0980 C.3     1  UNL1        0.1270
      2  C          6.1000    3.8610    0.8370 C.2     1  UNL1        0.3030
      3  O          6.0960    3.9970    2.0620 O.2     1  UNL1       -0.2520
      4  O          6.8640    4.7750    0.0940 O.3     1  UNL1       -0.4810
      5  H          6.8850    4.6300   -0.9030 H       1  UNL1        0.2960
      6  C          5.3940    1.5070    0.7490 C.3     1  UNL1        0.0470
      7  C          6.2380    0.4680    0.1540 C.2     1  UNL1       -0.0430
      8  C          6.5360    0.4640   -1.2000 C.2     1  UNL1        0.0080
      9  C          6.7280   -0.5580    0.9170 C.2     1  UNL1        0.0540
     10  C          7.2990   -0.5320   -1.7680 C.2     1  UNL1        0.0510
     11  C          7.4960   -1.5680    0.3700 C.2     1  UNL1        0.1660
     12  C          7.7850   -1.5590   -0.9740 C.2     1  UNL1        0.1650
     13  O          8.0870   -2.6840    0.9370 O.2     1  UNL1       -0.4540
     14  O          8.5640   -2.6890   -1.2260 O.2     1  UNL1       -0.4540
     15  C          8.5010   -3.5610   -0.1220 C.3     1  UNL1        0.4680
@<TRIPOS>BOND
     1    10     8    1
     2    10    12    2
     3    14    12    1
     4    14    15    1
     5     8     7    2
     6    12    11    1
     7     5     4    1
     8    15    13    1
     9     4     2    1
    10     1     6    1
    11     1     2    1
    12     7     6    1
    13     7     9    1
    14    11     9    2
    15    11    13    1
    16     2     3    2
