@<TRIPOS>MOLECULE
/home/cewinharhar/GITHUB/reincatalyze/data/processed/docking_pred/2023-May-17-1006_maxeplen10_maxtrainstep1000_seadep16_gamma099_lrac9e-4_lrcr1e-3_sub6/c5f7f675b3df69e676e62d17e40489667b0e6a6f_ligand_6.pdbqt
 15 16 0 0 0
SMALL
GASTEIGER

@<TRIPOS>ATOM
      1  C          8.2860   -0.1980   -2.8260 C.3     1  UNL1        0.1270
      2  C          8.5110   -1.6200   -3.0320 C.2     1  UNL1        0.3030
      3  O          9.5980   -2.1940   -2.9470 O.2     1  UNL1       -0.2520
      4  O          7.3960   -2.4090   -3.3570 O.3     1  UNL1       -0.4810
      5  H          7.1010   -3.0720   -2.6570 H       1  UNL1        0.2960
      6  C          8.7230    0.2930   -1.5010 C.3     1  UNL1        0.0470
      7  C          7.7610    0.2160   -0.4000 C.2     1  UNL1       -0.0430
      8  C          7.7650   -0.8440    0.4930 C.2     1  UNL1        0.0080
      9  C          6.7990    1.1780   -0.2420 C.2     1  UNL1        0.0540
     10  C          6.8390   -0.9360    1.5080 C.2     1  UNL1        0.0510
     11  C          5.8600    1.1070    0.7690 C.2     1  UNL1        0.1660
     12  C          5.8760    0.0510    1.6470 C.2     1  UNL1        0.1650
     13  O          4.8150    1.9480    1.1130 O.2     1  UNL1       -0.4540
     14  O          4.8230    0.2540    2.5410 O.2     1  UNL1       -0.4540
     15  C          3.9660    1.2530    2.0390 C.3     1  UNL1        0.4680
@<TRIPOS>BOND
     1     4     2    1
     2     4     5    1
     3     2     3    2
     4     2     1    1
     5     1     6    1
     6     6     7    1
     7     7     9    2
     8     7     8    1
     9     9    11    1
    10     8    10    2
    11    11    13    1
    12    11    12    2
    13    13    15    1
    14    10    12    1
    15    12    14    1
    16    15    14    1
