@<TRIPOS>MOLECULE
/home/cewinharhar/GITHUB/reincatalyze/data/processed/docking_pred/2023-May-17-1006_maxeplen10_maxtrainstep1000_seadep16_gamma099_lrac9e-4_lrcr1e-3_sub6/c5f7f675b3df69e676e62d17e40489667b0e6a6f_ligand_6.pdbqt
 15 16 0 0 0
SMALL
GASTEIGER

@<TRIPOS>ATOM
      1  C          4.7010    1.8700    0.7010 C.3     1  UNL1        0.1270
      2  C          4.4090    1.1410    1.9260 C.2     1  UNL1        0.3030
      3  O          5.1440    0.3060    2.4560 O.2     1  UNL1       -0.2520
      4  O          3.1860    1.4100    2.5600 O.3     1  UNL1       -0.4810
      5  H          2.4210    0.7940    2.3300 H       1  UNL1        0.2960
      6  C          6.1260    2.2330    0.5440 C.3     1  UNL1        0.0470
      7  C          6.9750    1.3240   -0.2290 C.2     1  UNL1       -0.0430
      8  C          8.3380    1.5390   -0.3570 C.2     1  UNL1        0.0080
      9  C          6.4350    0.2490   -0.8840 C.2     1  UNL1        0.0540
     10  C          9.1320    0.7060   -1.1140 C.2     1  UNL1        0.0510
     11  C          7.2120   -0.6010   -1.6480 C.2     1  UNL1        0.1660
     12  C          8.5630   -0.3760   -1.7660 C.2     1  UNL1        0.1650
     13  O          6.8900   -1.7280   -2.3840 O.2     1  UNL1       -0.4540
     14  O          9.0690   -1.3840   -2.5880 O.2     1  UNL1       -0.4540
     15  C          8.0050   -2.0450   -3.2320 C.3     1  UNL1        0.4680
@<TRIPOS>BOND
     1    15    14    1
     2    15    13    1
     3    14    12    1
     4    13    11    1
     5    12    11    2
     6    12    10    1
     7    11     9    1
     8    10     8    2
     9     9     7    2
    10     8     7    1
    11     7     6    1
    12     6     1    1
    13     1     2    1
    14     2     3    2
    15     2     4    1
    16     5     4    1
