MODEL 1
REMARK VINA RESULT:      -7.6      0.000      0.000
REMARK SMILES O=C(O)CCc1ccc2c(c1)OCO2
REMARK SMILES IDX 4 1 2 2 1 3 3 4 5 6 6 7 7 8 11 9 8 10 10 11 9 12 12 13 14 14
REMARK SMILES IDX 13 15
REMARK H PARENT 3 5
REMARK Flexibility Score: inf
ROOT
ATOM      1  C   UNL     1       5.426   2.866   0.127  1.00  0.00     0.127 C 
ENDROOT
BRANCH   1   2
ATOM      2  C   UNL     1       6.262   3.841   0.810  1.00  0.00     0.303 C 
ATOM      3  O   UNL     1       6.890   4.752   0.268  1.00  0.00    -0.252 OA
BRANCH   2   4
ATOM      4  O   UNL     1       6.363   3.738   2.206  1.00  0.00    -0.481 OA
ATOM      5  H   UNL     1       5.877   2.964   2.632  1.00  0.00     0.296 HD
ENDBRANCH   2   4
ENDBRANCH   1   2
BRANCH   1   6
ATOM      6  C   UNL     1       5.353   1.556   0.809  1.00  0.00     0.047 C 
BRANCH   6   7
ATOM      7  C   UNL     1       6.135   0.454   0.244  1.00  0.00    -0.043 A 
ATOM      8  C   UNL     1       6.602  -0.583   1.036  1.00  0.00     0.008 A 
ATOM      9  C   UNL     1       6.461   0.437  -1.086  1.00  0.00     0.054 A 
ATOM     10  C   UNL     1       7.368  -1.602   0.513  1.00  0.00     0.051 A 
ATOM     11  C   UNL     1       7.228  -0.575  -1.633  1.00  0.00     0.166 A 
ATOM     12  C   UNL     1       7.684  -1.597  -0.836  1.00  0.00     0.165 A 
ATOM     13  O   UNL     1       7.672  -0.794  -2.925  1.00  0.00    -0.454 OA
ATOM     14  O   UNL     1       8.418  -2.453  -1.659  1.00  0.00    -0.454 OA
ATOM     15  C   UNL     1       8.684  -1.812  -2.885  1.00  0.00     0.468 C 
ENDBRANCH   6   7
ENDBRANCH   1   6
TORSDOF 4
ENDMDL
MODEL 2
REMARK VINA RESULT:      -7.6      2.130      2.514
REMARK SMILES O=C(O)CCc1ccc2c(c1)OCO2
REMARK SMILES IDX 4 1 2 2 1 3 3 4 5 6 6 7 7 8 11 9 8 10 10 11 9 12 12 13 14 14
REMARK SMILES IDX 13 15
REMARK H PARENT 3 5
REMARK Flexibility Score: inf
ROOT
ATOM      1  C   UNL     1       4.701   1.870   0.701  1.00  0.00     0.127 C 
ENDROOT
BRANCH   1   2
ATOM      2  C   UNL     1       4.409   1.141   1.926  1.00  0.00     0.303 C 
ATOM      3  O   UNL     1       5.144   0.306   2.456  1.00  0.00    -0.252 OA
BRANCH   2   4
ATOM      4  O   UNL     1       3.186   1.410   2.560  1.00  0.00    -0.481 OA
ATOM      5  H   UNL     1       2.421   0.794   2.330  1.00  0.00     0.296 HD
ENDBRANCH   2   4
ENDBRANCH   1   2
BRANCH   1   6
ATOM      6  C   UNL     1       6.126   2.233   0.544  1.00  0.00     0.047 C 
BRANCH   6   7
ATOM      7  C   UNL     1       6.975   1.324  -0.229  1.00  0.00    -0.043 A 
ATOM      8  C   UNL     1       8.338   1.539  -0.357  1.00  0.00     0.008 A 
ATOM      9  C   UNL     1       6.435   0.249  -0.884  1.00  0.00     0.054 A 
ATOM     10  C   UNL     1       9.132   0.706  -1.114  1.00  0.00     0.051 A 
ATOM     11  C   UNL     1       7.212  -0.601  -1.648  1.00  0.00     0.166 A 
ATOM     12  C   UNL     1       8.563  -0.376  -1.766  1.00  0.00     0.165 A 
ATOM     13  O   UNL     1       6.890  -1.728  -2.384  1.00  0.00    -0.454 OA
ATOM     14  O   UNL     1       9.069  -1.384  -2.588  1.00  0.00    -0.454 OA
ATOM     15  C   UNL     1       8.005  -2.045  -3.232  1.00  0.00     0.468 C 
ENDBRANCH   6   7
ENDBRANCH   1   6
TORSDOF 4
ENDMDL
MODEL 3
REMARK VINA RESULT:      -7.5      1.951      2.859
REMARK SMILES O=C(O)CCc1ccc2c(c1)OCO2
REMARK SMILES IDX 4 1 2 2 1 3 3 4 5 6 6 7 7 8 11 9 8 10 10 11 9 12 12 13 14 14
REMARK SMILES IDX 13 15
REMARK H PARENT 3 5
REMARK Flexibility Score: inf
ROOT
ATOM      1  C   UNL     1       6.440   1.360   0.628  1.00  0.00     0.127 C 
ENDROOT
BRANCH   1   2
ATOM      2  C   UNL     1       5.225   1.370   1.427  1.00  0.00     0.303 C 
ATOM      3  O   UNL     1       4.283   2.153   1.289  1.00  0.00    -0.252 OA
BRANCH   2   4
ATOM      4  O   UNL     1       5.113   0.408   2.442  1.00  0.00    -0.481 OA
ATOM      5  H   UNL     1       4.719  -0.480   2.173  1.00  0.00     0.296 HD
ENDBRANCH   2   4
ENDBRANCH   1   2
BRANCH   1   6
ATOM      6  C   UNL     1       6.248   0.862  -0.751  1.00  0.00     0.047 C 
BRANCH   6   7
ATOM      7  C   UNL     1       6.998  -0.330  -1.152  1.00  0.00    -0.043 A 
ATOM      8  C   UNL     1       7.305  -0.581  -2.480  1.00  0.00     0.008 A 
ATOM      9  C   UNL     1       7.387  -1.257  -0.222  1.00  0.00     0.054 A 
ATOM     10  C   UNL     1       7.979  -1.720  -2.862  1.00  0.00     0.051 A 
ATOM     11  C   UNL     1       8.065  -2.407  -0.582  1.00  0.00     0.166 A 
ATOM     12  C   UNL     1       8.363  -2.642  -1.902  1.00  0.00     0.165 A 
ATOM     13  O   UNL     1       8.548  -3.463   0.171  1.00  0.00    -0.454 OA
ATOM     14  O   UNL     1       9.039  -3.862  -1.952  1.00  0.00    -0.454 OA
ATOM     15  C   UNL     1       8.889  -4.533  -0.722  1.00  0.00     0.468 C 
ENDBRANCH   6   7
ENDBRANCH   1   6
TORSDOF 4
ENDMDL
MODEL 4
REMARK VINA RESULT:      -7.4      1.805      5.253
REMARK SMILES O=C(O)CCc1ccc2c(c1)OCO2
REMARK SMILES IDX 4 1 2 2 1 3 3 4 5 6 6 7 7 8 11 9 8 10 10 11 9 12 12 13 14 14
REMARK SMILES IDX 13 15
REMARK H PARENT 3 5
REMARK Flexibility Score: inf
ROOT
ATOM      1  C   UNL     1       8.286  -0.198  -2.826  1.00  0.00     0.127 C 
ENDROOT
BRANCH   1   2
ATOM      2  C   UNL     1       8.511  -1.620  -3.032  1.00  0.00     0.303 C 
ATOM      3  O   UNL     1       9.598  -2.194  -2.947  1.00  0.00    -0.252 OA
BRANCH   2   4
ATOM      4  O   UNL     1       7.396  -2.409  -3.357  1.00  0.00    -0.481 OA
ATOM      5  H   UNL     1       7.101  -3.072  -2.657  1.00  0.00     0.296 HD
ENDBRANCH   2   4
ENDBRANCH   1   2
BRANCH   1   6
ATOM      6  C   UNL     1       8.723   0.293  -1.501  1.00  0.00     0.047 C 
BRANCH   6   7
ATOM      7  C   UNL     1       7.761   0.216  -0.400  1.00  0.00    -0.043 A 
ATOM      8  C   UNL     1       7.765  -0.844   0.493  1.00  0.00     0.008 A 
ATOM      9  C   UNL     1       6.799   1.178  -0.242  1.00  0.00     0.054 A 
ATOM     10  C   UNL     1       6.839  -0.936   1.508  1.00  0.00     0.051 A 
ATOM     11  C   UNL     1       5.860   1.107   0.769  1.00  0.00     0.166 A 
ATOM     12  C   UNL     1       5.876   0.051   1.647  1.00  0.00     0.165 A 
ATOM     13  O   UNL     1       4.815   1.948   1.113  1.00  0.00    -0.454 OA
ATOM     14  O   UNL     1       4.823   0.254   2.541  1.00  0.00    -0.454 OA
ATOM     15  C   UNL     1       3.966   1.253   2.039  1.00  0.00     0.468 C 
ENDBRANCH   6   7
ENDBRANCH   1   6
TORSDOF 4
ENDMDL
MODEL 5
REMARK VINA RESULT:      -7.4      0.948      2.113
REMARK SMILES O=C(O)CCc1ccc2c(c1)OCO2
REMARK SMILES IDX 4 1 2 2 1 3 3 4 5 6 6 7 7 8 11 9 8 10 10 11 9 12 12 13 14 14
REMARK SMILES IDX 13 15
REMARK H PARENT 3 5
REMARK Flexibility Score: inf
ROOT
ATOM      1  C   UNL     1       5.383   2.834   0.098  1.00  0.00     0.127 C 
ENDROOT
BRANCH   1   2
ATOM      2  C   UNL     1       6.100   3.861   0.837  1.00  0.00     0.303 C 
ATOM      3  O   UNL     1       6.096   3.997   2.062  1.00  0.00    -0.252 OA
BRANCH   2   4
ATOM      4  O   UNL     1       6.864   4.775   0.094  1.00  0.00    -0.481 OA
ATOM      5  H   UNL     1       6.885   4.630  -0.903  1.00  0.00     0.296 HD
ENDBRANCH   2   4
ENDBRANCH   1   2
BRANCH   1   6
ATOM      6  C   UNL     1       5.394   1.507   0.749  1.00  0.00     0.047 C 
BRANCH   6   7
ATOM      7  C   UNL     1       6.238   0.468   0.154  1.00  0.00    -0.043 A 
ATOM      8  C   UNL     1       6.536   0.464  -1.200  1.00  0.00     0.008 A 
ATOM      9  C   UNL     1       6.728  -0.558   0.917  1.00  0.00     0.054 A 
ATOM     10  C   UNL     1       7.299  -0.532  -1.768  1.00  0.00     0.051 A 
ATOM     11  C   UNL     1       7.496  -1.568   0.370  1.00  0.00     0.166 A 
ATOM     12  C   UNL     1       7.785  -1.559  -0.974  1.00  0.00     0.165 A 
ATOM     13  O   UNL     1       8.087  -2.684   0.937  1.00  0.00    -0.454 OA
ATOM     14  O   UNL     1       8.564  -2.689  -1.226  1.00  0.00    -0.454 OA
ATOM     15  C   UNL     1       8.501  -3.561  -0.122  1.00  0.00     0.468 C 
ENDBRANCH   6   7
ENDBRANCH   1   6
TORSDOF 4
ENDMDL
