@<TRIPOS>MOLECULE
/home/cewinharhar/GITHUB/reincatalyze/data/processed/docking_pred/2023-May-17-1006_maxeplen10_maxtrainstep1000_seadep16_gamma099_lrac9e-4_lrcr1e-3_sub6/c61eb663c2c3330cf201d691d278f59eb7eebd68_ligand_6.pdbqt
 15 16 0 0 0
SMALL
GASTEIGER

@<TRIPOS>ATOM
      1  C          5.4020    2.8000    0.1360 C.3     1  UNL1        0.1270
      2  C          6.1840    3.7230    0.9430 C.2     1  UNL1        0.3030
      3  O          6.3240    3.6650    2.1660 O.2     1  UNL1       -0.2520
      4  O          6.8360    4.7700    0.2740 O.3     1  UNL1       -0.4810
      5  H          7.3640    5.4070    0.8520 H       1  UNL1        0.2960
      6  C          5.3090    1.4370    0.7020 C.3     1  UNL1        0.0470
      7  C          6.1740    0.4050    0.1270 C.2     1  UNL1       -0.0430
      8  C          6.4830    0.3890   -1.2240 C.2     1  UNL1        0.0080
      9  C          6.6740   -0.6050    0.9070 C.2     1  UNL1        0.0540
     10  C          7.2670   -0.6020   -1.7730 C.2     1  UNL1        0.0510
     11  C          7.4620   -1.6090    0.3780 C.2     1  UNL1        0.1660
     12  C          7.7620   -1.6110   -0.9630 C.2     1  UNL1        0.1650
     13  O          8.0660   -2.7080    0.9630 O.2     1  UNL1       -0.4540
     14  O          8.5610   -2.7310   -1.1960 O.2     1  UNL1       -0.4540
     15  C          8.5020   -3.5910   -0.0810 C.3     1  UNL1        0.4680
@<TRIPOS>BOND
     1    10     8    1
     2    10    12    2
     3     8     7    2
     4    14    12    1
     5    14    15    1
     6    12    11    1
     7    15    13    1
     8     7     6    1
     9     7     9    1
    10     1     6    1
    11     1     2    1
    12     4     5    1
    13     4     2    1
    14    11     9    2
    15    11    13    1
    16     2     3    2
