@<TRIPOS>MOLECULE
/home/cewinharhar/GITHUB/reincatalyze/data/processed/docking_pred/2023-May-17-1006_maxeplen10_maxtrainstep1000_seadep16_gamma099_lrac9e-4_lrcr1e-3_sub6/c61eb663c2c3330cf201d691d278f59eb7eebd68_ligand_6.pdbqt
 15 16 0 0 0
SMALL
GASTEIGER

@<TRIPOS>ATOM
      1  C          8.3150   -0.3270   -2.8280 C.3     1  UNL1        0.1270
      2  C          8.4710   -1.7530   -3.0680 C.2     1  UNL1        0.3030
      3  O          9.5360   -2.3720   -3.0460 O.2     1  UNL1       -0.2520
      4  O          7.3090   -2.4900   -3.3480 O.3     1  UNL1       -0.4810
      5  H          6.9630   -2.4330   -4.2930 H       1  UNL1        0.2960
      6  C          8.7710    0.1110   -1.4920 C.3     1  UNL1        0.0470
      7  C          7.7950    0.0800   -0.4000 C.2     1  UNL1       -0.0430
      8  C          7.7350   -0.9830    0.4880 C.2     1  UNL1        0.0080
      9  C          6.8820    1.0890   -0.2470 C.2     1  UNL1        0.0540
     10  C          6.7950   -1.0310    1.4940 C.2     1  UNL1        0.0510
     11  C          5.9300    1.0630    0.7540 C.2     1  UNL1        0.1660
     12  C          5.8840    0.0030    1.6280 C.2     1  UNL1        0.1650
     13  O          4.9280    1.9550    1.0930 O.2     1  UNL1       -0.4540
     14  O          4.8340    0.2560    2.5120 O.2     1  UNL1       -0.4540
     15  C          4.0340    1.3010    2.0070 C.3     1  UNL1        0.4680
@<TRIPOS>BOND
     1     5     4    1
     2     4     2    1
     3     2     3    2
     4     2     1    1
     5     1     6    1
     6     6     7    1
     7     7     9    2
     8     7     8    1
     9     9    11    1
    10     8    10    2
    11    11    13    1
    12    11    12    2
    13    13    15    1
    14    10    12    1
    15    12    14    1
    16    15    14    1
