@<TRIPOS>MOLECULE
/home/cewinharhar/GITHUB/reincatalyze/data/processed/docking_pred/2023-May-17-1006_maxeplen10_maxtrainstep1000_seadep16_gamma099_lrac9e-4_lrcr1e-3_sub6/c61eb663c2c3330cf201d691d278f59eb7eebd68_ligand_6.pdbqt
 15 16 0 0 0
SMALL
GASTEIGER

@<TRIPOS>ATOM
      1  C          4.6920    1.8770    0.6720 C.3     1  UNL1        0.1270
      2  C          4.3920    1.1780    1.9120 C.2     1  UNL1        0.3030
      3  O          5.1200    0.3510    2.4640 O.2     1  UNL1       -0.2520
      4  O          3.1680    1.4680    2.5350 O.3     1  UNL1       -0.4810
      5  H          2.4880    0.7230    2.5500 H       1  UNL1        0.2960
      6  C          6.1150    2.2490    0.5230 C.3     1  UNL1        0.0470
      7  C          6.9740    1.3480   -0.2480 C.2     1  UNL1       -0.0430
      8  C          8.3300    1.5920   -0.3990 C.2     1  UNL1        0.0080
      9  C          6.4500    0.2510   -0.8790 C.2     1  UNL1        0.0540
     10  C          9.1320    0.7650   -1.1540 C.2     1  UNL1        0.0510
     11  C          7.2350   -0.5940   -1.6410 C.2     1  UNL1        0.1660
     12  C          8.5780   -0.3400   -1.7810 C.2     1  UNL1        0.1650
     13  O          6.9290   -1.7390   -2.3540 O.2     1  UNL1       -0.4540
     14  O          9.0960   -1.3490   -2.5940 O.2     1  UNL1       -0.4540
     15  C          8.0380   -2.0450   -3.2120 C.3     1  UNL1        0.4680
@<TRIPOS>BOND
     1    15    14    1
     2    15    13    1
     3    14    12    1
     4    13    11    1
     5    12    11    2
     6    12    10    1
     7    11     9    1
     8    10     8    2
     9     9     7    2
    10     8     7    1
    11     7     6    1
    12     6     1    1
    13     1     2    1
    14     2     3    2
    15     2     4    1
    16     4     5    1
