MODEL 1
REMARK VINA RESULT:      -7.6      0.000      0.000
REMARK SMILES O=C(O)CCc1ccc2c(c1)OCO2
REMARK SMILES IDX 4 1 2 2 1 3 3 4 5 6 6 7 7 8 11 9 8 10 10 11 9 12 12 13 14 14
REMARK SMILES IDX 13 15
REMARK H PARENT 3 5
REMARK Flexibility Score: inf
ROOT
ATOM      1  C   UNL     1       5.423   2.870   0.113  1.00  0.00     0.127 C 
ENDROOT
BRANCH   1   2
ATOM      2  C   UNL     1       6.249   3.851   0.800  1.00  0.00     0.303 C 
ATOM      3  O   UNL     1       6.923   4.728   0.256  1.00  0.00    -0.252 OA
BRANCH   2   4
ATOM      4  O   UNL     1       6.283   3.796   2.202  1.00  0.00    -0.481 OA
ATOM      5  H   UNL     1       7.198   3.778   2.625  1.00  0.00     0.296 HD
ENDBRANCH   2   4
ENDBRANCH   1   2
BRANCH   1   6
ATOM      6  C   UNL     1       5.355   1.560   0.794  1.00  0.00     0.047 C 
BRANCH   6   7
ATOM      7  C   UNL     1       6.126   0.456   0.219  1.00  0.00    -0.043 A 
ATOM      8  C   UNL     1       6.549  -0.613   0.993  1.00  0.00     0.008 A 
ATOM      9  C   UNL     1       6.488   0.469  -1.102  1.00  0.00     0.054 A 
ATOM     10  C   UNL     1       7.306  -1.634   0.461  1.00  0.00     0.051 A 
ATOM     11  C   UNL     1       7.246  -0.545  -1.658  1.00  0.00     0.166 A 
ATOM     12  C   UNL     1       7.657  -1.599  -0.879  1.00  0.00     0.165 A 
ATOM     13  O   UNL     1       7.719  -0.739  -2.944  1.00  0.00    -0.454 OA
ATOM     14  O   UNL     1       8.393  -2.449  -1.706  1.00  0.00    -0.454 OA
ATOM     15  C   UNL     1       8.706  -1.780  -2.907  1.00  0.00     0.468 C 
ENDBRANCH   6   7
ENDBRANCH   1   6
TORSDOF 4
ENDMDL
MODEL 2
REMARK VINA RESULT:      -7.6      2.119      2.523
REMARK SMILES O=C(O)CCc1ccc2c(c1)OCO2
REMARK SMILES IDX 4 1 2 2 1 3 3 4 5 6 6 7 7 8 11 9 8 10 10 11 9 12 12 13 14 14
REMARK SMILES IDX 13 15
REMARK H PARENT 3 5
REMARK Flexibility Score: inf
ROOT
ATOM      1  C   UNL     1       4.692   1.877   0.672  1.00  0.00     0.127 C 
ENDROOT
BRANCH   1   2
ATOM      2  C   UNL     1       4.392   1.178   1.912  1.00  0.00     0.303 C 
ATOM      3  O   UNL     1       5.120   0.351   2.464  1.00  0.00    -0.252 OA
BRANCH   2   4
ATOM      4  O   UNL     1       3.168   1.468   2.535  1.00  0.00    -0.481 OA
ATOM      5  H   UNL     1       2.488   0.723   2.550  1.00  0.00     0.296 HD
ENDBRANCH   2   4
ENDBRANCH   1   2
BRANCH   1   6
ATOM      6  C   UNL     1       6.115   2.249   0.523  1.00  0.00     0.047 C 
BRANCH   6   7
ATOM      7  C   UNL     1       6.974   1.348  -0.248  1.00  0.00    -0.043 A 
ATOM      8  C   UNL     1       8.330   1.592  -0.399  1.00  0.00     0.008 A 
ATOM      9  C   UNL     1       6.450   0.251  -0.879  1.00  0.00     0.054 A 
ATOM     10  C   UNL     1       9.132   0.765  -1.154  1.00  0.00     0.051 A 
ATOM     11  C   UNL     1       7.235  -0.594  -1.641  1.00  0.00     0.166 A 
ATOM     12  C   UNL     1       8.578  -0.340  -1.781  1.00  0.00     0.165 A 
ATOM     13  O   UNL     1       6.929  -1.739  -2.354  1.00  0.00    -0.454 OA
ATOM     14  O   UNL     1       9.096  -1.349  -2.594  1.00  0.00    -0.454 OA
ATOM     15  C   UNL     1       8.038  -2.045  -3.212  1.00  0.00     0.468 C 
ENDBRANCH   6   7
ENDBRANCH   1   6
TORSDOF 4
ENDMDL
MODEL 3
REMARK VINA RESULT:      -7.5      0.972      2.133
REMARK SMILES O=C(O)CCc1ccc2c(c1)OCO2
REMARK SMILES IDX 4 1 2 2 1 3 3 4 5 6 6 7 7 8 11 9 8 10 10 11 9 12 12 13 14 14
REMARK SMILES IDX 13 15
REMARK H PARENT 3 5
REMARK Flexibility Score: inf
ROOT
ATOM      1  C   UNL     1       5.402   2.800   0.136  1.00  0.00     0.127 C 
ENDROOT
BRANCH   1   2
ATOM      2  C   UNL     1       6.184   3.723   0.943  1.00  0.00     0.303 C 
ATOM      3  O   UNL     1       6.324   3.665   2.166  1.00  0.00    -0.252 OA
BRANCH   2   4
ATOM      4  O   UNL     1       6.836   4.770   0.274  1.00  0.00    -0.481 OA
ATOM      5  H   UNL     1       7.364   5.407   0.852  1.00  0.00     0.296 HD
ENDBRANCH   2   4
ENDBRANCH   1   2
BRANCH   1   6
ATOM      6  C   UNL     1       5.309   1.437   0.702  1.00  0.00     0.047 C 
BRANCH   6   7
ATOM      7  C   UNL     1       6.174   0.405   0.127  1.00  0.00    -0.043 A 
ATOM      8  C   UNL     1       6.483   0.389  -1.224  1.00  0.00     0.008 A 
ATOM      9  C   UNL     1       6.674  -0.605   0.907  1.00  0.00     0.054 A 
ATOM     10  C   UNL     1       7.267  -0.602  -1.773  1.00  0.00     0.051 A 
ATOM     11  C   UNL     1       7.462  -1.609   0.378  1.00  0.00     0.166 A 
ATOM     12  C   UNL     1       7.762  -1.611  -0.963  1.00  0.00     0.165 A 
ATOM     13  O   UNL     1       8.066  -2.708   0.963  1.00  0.00    -0.454 OA
ATOM     14  O   UNL     1       8.561  -2.731  -1.196  1.00  0.00    -0.454 OA
ATOM     15  C   UNL     1       8.502  -3.591  -0.081  1.00  0.00     0.468 C 
ENDBRANCH   6   7
ENDBRANCH   1   6
TORSDOF 4
ENDMDL
MODEL 4
REMARK VINA RESULT:      -7.5      1.972      2.875
REMARK SMILES O=C(O)CCc1ccc2c(c1)OCO2
REMARK SMILES IDX 4 1 2 2 1 3 3 4 5 6 6 7 7 8 11 9 8 10 10 11 9 12 12 13 14 14
REMARK SMILES IDX 13 15
REMARK H PARENT 3 5
REMARK Flexibility Score: inf
ROOT
ATOM      1  C   UNL     1       6.400   1.295   0.715  1.00  0.00     0.127 C 
ENDROOT
BRANCH   1   2
ATOM      2  C   UNL     1       5.171   1.290   1.493  1.00  0.00     0.303 C 
ATOM      3  O   UNL     1       4.249   2.100   1.383  1.00  0.00    -0.252 OA
BRANCH   2   4
ATOM      4  O   UNL     1       5.020   0.276   2.452  1.00  0.00    -0.481 OA
ATOM      5  H   UNL     1       4.094  -0.111   2.549  1.00  0.00     0.296 HD
ENDBRANCH   2   4
ENDBRANCH   1   2
BRANCH   1   6
ATOM      6  C   UNL     1       6.224   0.867  -0.688  1.00  0.00     0.047 C 
BRANCH   6   7
ATOM      7  C   UNL     1       6.974  -0.308  -1.137  1.00  0.00    -0.043 A 
ATOM      8  C   UNL     1       7.254  -0.521  -2.478  1.00  0.00     0.008 A 
ATOM      9  C   UNL     1       7.391  -1.257  -0.242  1.00  0.00     0.054 A 
ATOM     10  C   UNL     1       7.928  -1.643  -2.905  1.00  0.00     0.051 A 
ATOM     11  C   UNL     1       8.070  -2.390  -0.647  1.00  0.00     0.166 A 
ATOM     12  C   UNL     1       8.341  -2.588  -1.980  1.00  0.00     0.165 A 
ATOM     13  O   UNL     1       8.577  -3.462   0.067  1.00  0.00    -0.454 OA
ATOM     14  O   UNL     1       9.025  -3.800  -2.077  1.00  0.00    -0.454 OA
ATOM     15  C   UNL     1       8.907  -4.506  -0.863  1.00  0.00     0.468 C 
ENDBRANCH   6   7
ENDBRANCH   1   6
TORSDOF 4
ENDMDL
MODEL 5
REMARK VINA RESULT:      -7.5      1.801      5.290
REMARK SMILES O=C(O)CCc1ccc2c(c1)OCO2
REMARK SMILES IDX 4 1 2 2 1 3 3 4 5 6 6 7 7 8 11 9 8 10 10 11 9 12 12 13 14 14
REMARK SMILES IDX 13 15
REMARK H PARENT 3 5
REMARK Flexibility Score: inf
ROOT
ATOM      1  C   UNL     1       8.315  -0.327  -2.828  1.00  0.00     0.127 C 
ENDROOT
BRANCH   1   2
ATOM      2  C   UNL     1       8.471  -1.753  -3.068  1.00  0.00     0.303 C 
ATOM      3  O   UNL     1       9.536  -2.372  -3.046  1.00  0.00    -0.252 OA
BRANCH   2   4
ATOM      4  O   UNL     1       7.309  -2.490  -3.348  1.00  0.00    -0.481 OA
ATOM      5  H   UNL     1       6.963  -2.433  -4.293  1.00  0.00     0.296 HD
ENDBRANCH   2   4
ENDBRANCH   1   2
BRANCH   1   6
ATOM      6  C   UNL     1       8.771   0.111  -1.492  1.00  0.00     0.047 C 
BRANCH   6   7
ATOM      7  C   UNL     1       7.795   0.080  -0.400  1.00  0.00    -0.043 A 
ATOM      8  C   UNL     1       7.735  -0.983   0.488  1.00  0.00     0.008 A 
ATOM      9  C   UNL     1       6.882   1.089  -0.247  1.00  0.00     0.054 A 
ATOM     10  C   UNL     1       6.795  -1.031   1.494  1.00  0.00     0.051 A 
ATOM     11  C   UNL     1       5.930   1.063   0.754  1.00  0.00     0.166 A 
ATOM     12  C   UNL     1       5.884   0.003   1.628  1.00  0.00     0.165 A 
ATOM     13  O   UNL     1       4.928   1.955   1.093  1.00  0.00    -0.454 OA
ATOM     14  O   UNL     1       4.834   0.256   2.512  1.00  0.00    -0.454 OA
ATOM     15  C   UNL     1       4.034   1.301   2.007  1.00  0.00     0.468 C 
ENDBRANCH   6   7
ENDBRANCH   1   6
TORSDOF 4
ENDMDL
