@<TRIPOS>MOLECULE
/home/cewinharhar/GITHUB/reincatalyze/data/processed/docking_pred/2023-May-17-1006_maxeplen10_maxtrainstep1000_seadep16_gamma099_lrac9e-4_lrcr1e-3_sub6/c61eb663c2c3330cf201d691d278f59eb7eebd68_ligand_6.pdbqt
 15 16 0 0 0
SMALL
GASTEIGER

@<TRIPOS>ATOM
      1  C          5.4230    2.8700    0.1130 C.3     1  UNL1        0.1270
      2  C          6.2490    3.8510    0.8000 C.2     1  UNL1        0.3030
      3  O          6.9230    4.7280    0.2560 O.2     1  UNL1       -0.2520
      4  O          6.2830    3.7960    2.2020 O.3     1  UNL1       -0.4810
      5  H          7.1980    3.7780    2.6250 H       1  UNL1        0.2960
      6  C          5.3550    1.5600    0.7940 C.3     1  UNL1        0.0470
      7  C          6.1260    0.4560    0.2190 C.2     1  UNL1       -0.0430
      8  C          6.5490   -0.6130    0.9930 C.2     1  UNL1        0.0080
      9  C          6.4880    0.4690   -1.1020 C.2     1  UNL1        0.0540
     10  C          7.3060   -1.6340    0.4610 C.2     1  UNL1        0.0510
     11  C          7.2460   -0.5450   -1.6580 C.2     1  UNL1        0.1660
     12  C          7.6570   -1.5990   -0.8790 C.2     1  UNL1        0.1650
     13  O          7.7190   -0.7390   -2.9440 O.2     1  UNL1       -0.4540
     14  O          8.3930   -2.4490   -1.7060 O.2     1  UNL1       -0.4540
     15  C          8.7060   -1.7800   -2.9070 C.3     1  UNL1        0.4680
@<TRIPOS>BOND
     1    13    15    1
     2    13    11    1
     3    15    14    1
     4    14    12    1
     5    11     9    1
     6    11    12    2
     7     9     7    2
     8    12    10    1
     9     1     6    1
    10     1     2    1
    11     7     6    1
    12     7     8    1
    13     3     2    2
    14    10     8    2
    15     2     4    1
    16     4     5    1
