MODEL 1
REMARK VINA RESULT:      -7.6      0.000      0.000
REMARK SMILES O=C(O)CCc1ccc2c(c1)OCO2
REMARK SMILES IDX 4 1 2 2 1 3 3 4 5 6 6 7 7 8 11 9 8 10 10 11 9 12 12 13 14 14
REMARK SMILES IDX 13 15
REMARK H PARENT 3 5
REMARK Flexibility Score: inf
ROOT
ATOM      1  C   UNL     1       5.412   2.865   0.133  1.00  0.00     0.127 C 
ENDROOT
BRANCH   1   2
ATOM      2  C   UNL     1       6.242   3.844   0.817  1.00  0.00     0.303 C 
ATOM      3  O   UNL     1       6.885   4.744   0.273  1.00  0.00    -0.252 OA
BRANCH   2   4
ATOM      4  O   UNL     1       6.321   3.758   2.216  1.00  0.00    -0.481 OA
ATOM      5  H   UNL     1       5.452   3.595   2.701  1.00  0.00     0.296 HD
ENDBRANCH   2   4
ENDBRANCH   1   2
BRANCH   1   6
ATOM      6  C   UNL     1       5.337   1.557   0.819  1.00  0.00     0.047 C 
BRANCH   6   7
ATOM      7  C   UNL     1       6.117   0.452   0.257  1.00  0.00    -0.043 A 
ATOM      8  C   UNL     1       6.573  -0.590   1.049  1.00  0.00     0.008 A 
ATOM      9  C   UNL     1       6.454   0.437  -1.071  1.00  0.00     0.054 A 
ATOM     10  C   UNL     1       7.337  -1.611   0.529  1.00  0.00     0.051 A 
ATOM     11  C   UNL     1       7.219  -0.577  -1.615  1.00  0.00     0.166 A 
ATOM     12  C   UNL     1       7.663  -1.604  -0.817  1.00  0.00     0.165 A 
ATOM     13  O   UNL     1       7.672  -0.796  -2.904  1.00  0.00    -0.454 OA
ATOM     14  O   UNL     1       8.398  -2.462  -1.637  1.00  0.00    -0.454 OA
ATOM     15  C   UNL     1       8.678  -1.819  -2.859  1.00  0.00     0.468 C 
ENDBRANCH   6   7
ENDBRANCH   1   6
TORSDOF 4
ENDMDL
MODEL 2
REMARK VINA RESULT:      -7.6      2.123      2.516
REMARK SMILES O=C(O)CCc1ccc2c(c1)OCO2
REMARK SMILES IDX 4 1 2 2 1 3 3 4 5 6 6 7 7 8 11 9 8 10 10 11 9 12 12 13 14 14
REMARK SMILES IDX 13 15
REMARK H PARENT 3 5
REMARK Flexibility Score: inf
ROOT
ATOM      1  C   UNL     1       4.687   1.879   0.673  1.00  0.00     0.127 C 
ENDROOT
BRANCH   1   2
ATOM      2  C   UNL     1       4.395   1.175   1.912  1.00  0.00     0.303 C 
ATOM      3  O   UNL     1       5.131   0.354   2.461  1.00  0.00    -0.252 OA
BRANCH   2   4
ATOM      4  O   UNL     1       3.169   1.453   2.537  1.00  0.00    -0.481 OA
ATOM      5  H   UNL     1       2.981   0.952   3.391  1.00  0.00     0.296 HD
ENDBRANCH   2   4
ENDBRANCH   1   2
BRANCH   1   6
ATOM      6  C   UNL     1       6.110   2.252   0.516  1.00  0.00     0.047 C 
BRANCH   6   7
ATOM      7  C   UNL     1       6.967   1.346  -0.252  1.00  0.00    -0.043 A 
ATOM      8  C   UNL     1       8.327   1.576  -0.386  1.00  0.00     0.008 A 
ATOM      9  C   UNL     1       6.437   0.259  -0.895  1.00  0.00     0.054 A 
ATOM     10  C   UNL     1       9.128   0.744  -1.137  1.00  0.00     0.051 A 
ATOM     11  C   UNL     1       7.222  -0.589  -1.654  1.00  0.00     0.166 A 
ATOM     12  C   UNL     1       8.569  -0.350  -1.778  1.00  0.00     0.165 A 
ATOM     13  O   UNL     1       6.910  -1.726  -2.379  1.00  0.00    -0.454 OA
ATOM     14  O   UNL     1       9.085  -1.359  -2.592  1.00  0.00    -0.454 OA
ATOM     15  C   UNL     1       8.026  -2.038  -3.226  1.00  0.00     0.468 C 
ENDBRANCH   6   7
ENDBRANCH   1   6
TORSDOF 4
ENDMDL
MODEL 3
REMARK VINA RESULT:      -7.5      1.980      2.901
REMARK SMILES O=C(O)CCc1ccc2c(c1)OCO2
REMARK SMILES IDX 4 1 2 2 1 3 3 4 5 6 6 7 7 8 11 9 8 10 10 11 9 12 12 13 14 14
REMARK SMILES IDX 13 15
REMARK H PARENT 3 5
REMARK Flexibility Score: inf
ROOT
ATOM      1  C   UNL     1       6.395   1.249   0.660  1.00  0.00     0.127 C 
ENDROOT
BRANCH   1   2
ATOM      2  C   UNL     1       5.166   1.275   1.438  1.00  0.00     0.303 C 
ATOM      3  O   UNL     1       4.251   2.090   1.307  1.00  0.00    -0.252 OA
BRANCH   2   4
ATOM      4  O   UNL     1       5.007   0.288   2.424  1.00  0.00    -0.481 OA
ATOM      5  H   UNL     1       5.809  -0.296   2.603  1.00  0.00     0.296 HD
ENDBRANCH   2   4
ENDBRANCH   1   2
BRANCH   1   6
ATOM      6  C   UNL     1       6.214   0.784  -0.732  1.00  0.00     0.047 C 
BRANCH   6   7
ATOM      7  C   UNL     1       6.981  -0.388  -1.159  1.00  0.00    -0.043 A 
ATOM      8  C   UNL     1       7.283  -0.609  -2.494  1.00  0.00     0.008 A 
ATOM      9  C   UNL     1       7.390  -1.327  -0.250  1.00  0.00     0.054 A 
ATOM     10  C   UNL     1       7.973  -1.730  -2.901  1.00  0.00     0.051 A 
ATOM     11  C   UNL     1       8.083  -2.459  -0.635  1.00  0.00     0.166 A 
ATOM     12  C   UNL     1       8.377  -2.664  -1.962  1.00  0.00     0.165 A 
ATOM     13  O   UNL     1       8.587  -3.521   0.095  1.00  0.00    -0.454 OA
ATOM     14  O   UNL     1       9.072  -3.872  -2.038  1.00  0.00    -0.454 OA
ATOM     15  C   UNL     1       8.939  -4.569  -0.821  1.00  0.00     0.468 C 
ENDBRANCH   6   7
ENDBRANCH   1   6
TORSDOF 4
ENDMDL
MODEL 4
REMARK VINA RESULT:      -7.5      1.787      5.280
REMARK SMILES O=C(O)CCc1ccc2c(c1)OCO2
REMARK SMILES IDX 4 1 2 2 1 3 3 4 5 6 6 7 7 8 11 9 8 10 10 11 9 12 12 13 14 14
REMARK SMILES IDX 13 15
REMARK H PARENT 3 5
REMARK Flexibility Score: inf
ROOT
ATOM      1  C   UNL     1       8.313  -0.321  -2.845  1.00  0.00     0.127 C 
ENDROOT
BRANCH   1   2
ATOM      2  C   UNL     1       8.471  -1.750  -3.069  1.00  0.00     0.303 C 
ATOM      3  O   UNL     1       9.536  -2.368  -3.034  1.00  0.00    -0.252 OA
BRANCH   2   4
ATOM      4  O   UNL     1       7.311  -2.490  -3.348  1.00  0.00    -0.481 OA
ATOM      5  H   UNL     1       6.988  -3.104  -2.616  1.00  0.00     0.296 HD
ENDBRANCH   2   4
ENDBRANCH   1   2
BRANCH   1   6
ATOM      6  C   UNL     1       8.765   0.131  -1.512  1.00  0.00     0.047 C 
BRANCH   6   7
ATOM      7  C   UNL     1       7.792   0.095  -0.418  1.00  0.00    -0.043 A 
ATOM      8  C   UNL     1       7.736  -0.971   0.466  1.00  0.00     0.008 A 
ATOM      9  C   UNL     1       6.878   1.102  -0.261  1.00  0.00     0.054 A 
ATOM     10  C   UNL     1       6.798  -1.025   1.473  1.00  0.00     0.051 A 
ATOM     11  C   UNL     1       5.928   1.070   0.743  1.00  0.00     0.166 A 
ATOM     12  C   UNL     1       5.885   0.008   1.613  1.00  0.00     0.165 A 
ATOM     13  O   UNL     1       4.924   1.959   1.086  1.00  0.00    -0.454 OA
ATOM     14  O   UNL     1       4.836   0.256   2.500  1.00  0.00    -0.454 OA
ATOM     15  C   UNL     1       4.034   1.300   2.000  1.00  0.00     0.468 C 
ENDBRANCH   6   7
ENDBRANCH   1   6
TORSDOF 4
ENDMDL
MODEL 5
REMARK VINA RESULT:      -7.4      0.939      2.108
REMARK SMILES O=C(O)CCc1ccc2c(c1)OCO2
REMARK SMILES IDX 4 1 2 2 1 3 3 4 5 6 6 7 7 8 11 9 8 10 10 11 9 12 12 13 14 14
REMARK SMILES IDX 13 15
REMARK H PARENT 3 5
REMARK Flexibility Score: inf
ROOT
ATOM      1  C   UNL     1       5.404   2.896   0.082  1.00  0.00     0.127 C 
ENDROOT
BRANCH   1   2
ATOM      2  C   UNL     1       6.146   3.878   0.858  1.00  0.00     0.303 C 
ATOM      3  O   UNL     1       6.121   3.990   2.085  1.00  0.00    -0.252 OA
BRANCH   2   4
ATOM      4  O   UNL     1       6.961   4.775   0.150  1.00  0.00    -0.481 OA
ATOM      5  H   UNL     1       6.704   5.749   0.205  1.00  0.00     0.296 HD
ENDBRANCH   2   4
ENDBRANCH   1   2
BRANCH   1   6
ATOM      6  C   UNL     1       5.346   1.557   0.705  1.00  0.00     0.047 C 
BRANCH   6   7
ATOM      7  C   UNL     1       6.182   0.503   0.125  1.00  0.00    -0.043 A 
ATOM      8  C   UNL     1       6.472   0.473  -1.231  1.00  0.00     0.008 A 
ATOM      9  C   UNL     1       6.672  -0.511   0.904  1.00  0.00     0.054 A 
ATOM     10  C   UNL     1       7.227  -0.537  -1.784  1.00  0.00     0.051 A 
ATOM     11  C   UNL     1       7.433  -1.534   0.371  1.00  0.00     0.166 A 
ATOM     12  C   UNL     1       7.713  -1.551  -0.974  1.00  0.00     0.165 A 
ATOM     13  O   UNL     1       8.022  -2.641   0.956  1.00  0.00    -0.454 OA
ATOM     14  O   UNL     1       8.486  -2.689  -1.210  1.00  0.00    -0.454 OA
ATOM     15  C   UNL     1       8.426  -3.540  -0.089  1.00  0.00     0.468 C 
ENDBRANCH   6   7
ENDBRANCH   1   6
TORSDOF 4
ENDMDL
