@<TRIPOS>MOLECULE
/home/cewinharhar/GITHUB/reincatalyze/data/processed/docking_pred/2023-May-17-1006_maxeplen10_maxtrainstep1000_seadep16_gamma099_lrac9e-4_lrcr1e-3_sub6/c8a10dea28a77dd5a54e6b3bff917c6d12aef46d_ligand_6.pdbqt
 15 16 0 0 0
SMALL
GASTEIGER

@<TRIPOS>ATOM
      1  C          8.3130   -0.3210   -2.8450 C.3     1  UNL1        0.1270
      2  C          8.4710   -1.7500   -3.0690 C.2     1  UNL1        0.3030
      3  O          9.5360   -2.3680   -3.0340 O.2     1  UNL1       -0.2520
      4  O          7.3110   -2.4900   -3.3480 O.3     1  UNL1       -0.4810
      5  H          6.9880   -3.1040   -2.6160 H       1  UNL1        0.2960
      6  C          8.7650    0.1310   -1.5120 C.3     1  UNL1        0.0470
      7  C          7.7920    0.0950   -0.4180 C.2     1  UNL1       -0.0430
      8  C          7.7360   -0.9710    0.4660 C.2     1  UNL1        0.0080
      9  C          6.8780    1.1020   -0.2610 C.2     1  UNL1        0.0540
     10  C          6.7980   -1.0250    1.4730 C.2     1  UNL1        0.0510
     11  C          5.9280    1.0700    0.7430 C.2     1  UNL1        0.1660
     12  C          5.8850    0.0080    1.6130 C.2     1  UNL1        0.1650
     13  O          4.9240    1.9590    1.0860 O.2     1  UNL1       -0.4540
     14  O          4.8360    0.2560    2.5000 O.2     1  UNL1       -0.4540
     15  C          4.0340    1.3000    2.0000 C.3     1  UNL1        0.4680
@<TRIPOS>BOND
     1     4     2    1
     2     4     5    1
     3     2     3    2
     4     2     1    1
     5     1     6    1
     6     6     7    1
     7     7     9    2
     8     7     8    1
     9     9    11    1
    10     8    10    2
    11    11    13    1
    12    11    12    2
    13    13    15    1
    14    10    12    1
    15    12    14    1
    16    15    14    1
