@<TRIPOS>MOLECULE
/home/cewinharhar/GITHUB/reincatalyze/data/processed/docking_pred/2023-May-17-1006_maxeplen10_maxtrainstep1000_seadep16_gamma099_lrac9e-4_lrcr1e-3_sub6/c8a10dea28a77dd5a54e6b3bff917c6d12aef46d_ligand_6.pdbqt
 15 16 0 0 0
SMALL
GASTEIGER

@<TRIPOS>ATOM
      1  C          5.4040    2.8960    0.0820 C.3     1  UNL1        0.1270
      2  C          6.1460    3.8780    0.8580 C.2     1  UNL1        0.3030
      3  O          6.1210    3.9900    2.0850 O.2     1  UNL1       -0.2520
      4  O          6.9610    4.7750    0.1500 O.3     1  UNL1       -0.4810
      5  H          6.7040    5.7490    0.2050 H       1  UNL1        0.2960
      6  C          5.3460    1.5570    0.7050 C.3     1  UNL1        0.0470
      7  C          6.1820    0.5030    0.1250 C.2     1  UNL1       -0.0430
      8  C          6.4720    0.4730   -1.2310 C.2     1  UNL1        0.0080
      9  C          6.6720   -0.5110    0.9040 C.2     1  UNL1        0.0540
     10  C          7.2270   -0.5370   -1.7840 C.2     1  UNL1        0.0510
     11  C          7.4330   -1.5340    0.3710 C.2     1  UNL1        0.1660
     12  C          7.7130   -1.5510   -0.9740 C.2     1  UNL1        0.1650
     13  O          8.0220   -2.6410    0.9560 O.2     1  UNL1       -0.4540
     14  O          8.4860   -2.6890   -1.2100 O.2     1  UNL1       -0.4540
     15  C          8.4260   -3.5400   -0.0890 C.3     1  UNL1        0.4680
@<TRIPOS>BOND
     1    10     8    1
     2    10    12    2
     3     8     7    2
     4    14    12    1
     5    14    15    1
     6    12    11    1
     7    15    13    1
     8     1     6    1
     9     1     2    1
    10     7     6    1
    11     7     9    1
    12     4     5    1
    13     4     2    1
    14    11     9    2
    15    11    13    1
    16     2     3    2
