@<TRIPOS>MOLECULE
/home/cewinharhar/GITHUB/reincatalyze/data/processed/docking_pred/2023-May-17-1006_maxeplen10_maxtrainstep1000_seadep16_gamma099_lrac9e-4_lrcr1e-3_sub6/c8a10dea28a77dd5a54e6b3bff917c6d12aef46d_ligand_6.pdbqt
 15 16 0 0 0
SMALL
GASTEIGER

@<TRIPOS>ATOM
      1  C          5.4120    2.8650    0.1330 C.3     1  UNL1        0.1270
      2  C          6.2420    3.8440    0.8170 C.2     1  UNL1        0.3030
      3  O          6.8850    4.7440    0.2730 O.2     1  UNL1       -0.2520
      4  O          6.3210    3.7580    2.2160 O.3     1  UNL1       -0.4810
      5  H          5.4520    3.5950    2.7010 H       1  UNL1        0.2960
      6  C          5.3370    1.5570    0.8190 C.3     1  UNL1        0.0470
      7  C          6.1170    0.4520    0.2570 C.2     1  UNL1       -0.0430
      8  C          6.5730   -0.5900    1.0490 C.2     1  UNL1        0.0080
      9  C          6.4540    0.4370   -1.0710 C.2     1  UNL1        0.0540
     10  C          7.3370   -1.6110    0.5290 C.2     1  UNL1        0.0510
     11  C          7.2190   -0.5770   -1.6150 C.2     1  UNL1        0.1660
     12  C          7.6630   -1.6040   -0.8170 C.2     1  UNL1        0.1650
     13  O          7.6720   -0.7960   -2.9040 O.2     1  UNL1       -0.4540
     14  O          8.3980   -2.4620   -1.6370 O.2     1  UNL1       -0.4540
     15  C          8.6780   -1.8190   -2.8590 C.3     1  UNL1        0.4680
@<TRIPOS>BOND
     1    13    15    1
     2    13    11    1
     3    15    14    1
     4    14    12    1
     5    11     9    1
     6    11    12    2
     7     9     7    2
     8    12    10    1
     9     1     2    1
    10     1     6    1
    11     7     6    1
    12     7     8    1
    13     3     2    2
    14    10     8    2
    15     2     4    1
    16     4     5    1
