@<TRIPOS>MOLECULE
/home/cewinharhar/GITHUB/reincatalyze/data/processed/docking_pred/2023-May-17-1006_maxeplen10_maxtrainstep1000_seadep16_gamma099_lrac9e-4_lrcr1e-3_sub6/c8a10dea28a77dd5a54e6b3bff917c6d12aef46d_ligand_6.pdbqt
 15 16 0 0 0
SMALL
GASTEIGER

@<TRIPOS>ATOM
      1  C          4.6870    1.8790    0.6730 C.3     1  UNL1        0.1270
      2  C          4.3950    1.1750    1.9120 C.2     1  UNL1        0.3030
      3  O          5.1310    0.3540    2.4610 O.2     1  UNL1       -0.2520
      4  O          3.1690    1.4530    2.5370 O.3     1  UNL1       -0.4810
      5  H          2.9810    0.9520    3.3910 H       1  UNL1        0.2960
      6  C          6.1100    2.2520    0.5160 C.3     1  UNL1        0.0470
      7  C          6.9670    1.3460   -0.2520 C.2     1  UNL1       -0.0430
      8  C          8.3270    1.5760   -0.3860 C.2     1  UNL1        0.0080
      9  C          6.4370    0.2590   -0.8950 C.2     1  UNL1        0.0540
     10  C          9.1280    0.7440   -1.1370 C.2     1  UNL1        0.0510
     11  C          7.2220   -0.5890   -1.6540 C.2     1  UNL1        0.1660
     12  C          8.5690   -0.3500   -1.7780 C.2     1  UNL1        0.1650
     13  O          6.9100   -1.7260   -2.3790 O.2     1  UNL1       -0.4540
     14  O          9.0850   -1.3590   -2.5920 O.2     1  UNL1       -0.4540
     15  C          8.0260   -2.0380   -3.2260 C.3     1  UNL1        0.4680
@<TRIPOS>BOND
     1    15    14    1
     2    15    13    1
     3    14    12    1
     4    13    11    1
     5    12    11    2
     6    12    10    1
     7    11     9    1
     8    10     8    2
     9     9     7    2
    10     8     7    1
    11     7     6    1
    12     6     1    1
    13     1     2    1
    14     2     3    2
    15     2     4    1
    16     4     5    1
