@<TRIPOS>MOLECULE
/home/cewinharhar/GITHUB/reincatalyze/data/processed/docking_pred/2023-May-17-1006_maxeplen10_maxtrainstep1000_seadep16_gamma099_lrac9e-4_lrcr1e-3_sub6/c8a10dea28a77dd5a54e6b3bff917c6d12aef46d_ligand_6.pdbqt
 15 16 0 0 0
SMALL
GASTEIGER

@<TRIPOS>ATOM
      1  C          6.3950    1.2490    0.6600 C.3     1  UNL1        0.1270
      2  C          5.1660    1.2750    1.4380 C.2     1  UNL1        0.3030
      3  O          4.2510    2.0900    1.3070 O.2     1  UNL1       -0.2520
      4  O          5.0070    0.2880    2.4240 O.3     1  UNL1       -0.4810
      5  H          5.8090   -0.2960    2.6030 H       1  UNL1        0.2960
      6  C          6.2140    0.7840   -0.7320 C.3     1  UNL1        0.0470
      7  C          6.9810   -0.3880   -1.1590 C.2     1  UNL1       -0.0430
      8  C          7.2830   -0.6090   -2.4940 C.2     1  UNL1        0.0080
      9  C          7.3900   -1.3270   -0.2500 C.2     1  UNL1        0.0540
     10  C          7.9730   -1.7300   -2.9010 C.2     1  UNL1        0.0510
     11  C          8.0830   -2.4590   -0.6350 C.2     1  UNL1        0.1660
     12  C          8.3770   -2.6640   -1.9620 C.2     1  UNL1        0.1650
     13  O          8.5870   -3.5210    0.0950 O.2     1  UNL1       -0.4540
     14  O          9.0720   -3.8720   -2.0380 O.2     1  UNL1       -0.4540
     15  C          8.9390   -4.5690   -0.8210 C.3     1  UNL1        0.4680
@<TRIPOS>BOND
     1    10     8    1
     2    10    12    2
     3     8     7    2
     4    14    12    1
     5    14    15    1
     6    12    11    1
     7     7     6    1
     8     7     9    1
     9    15    13    1
    10     6     1    1
    11    11     9    2
    12    11    13    1
    13     1     2    1
    14     3     2    2
    15     2     4    1
    16     4     5    1
