@<TRIPOS>MOLECULE
/home/cewinharhar/GITHUB/reincatalyze/data/processed/docking_pred/2023-May-17-1006_maxeplen10_maxtrainstep1000_seadep16_gamma099_lrac9e-4_lrcr1e-3_sub6/ca2511eb0ea692a115cf18c67ef7ccdfaa736476_ligand_6.pdbqt
 15 16 0 0 0
SMALL
GASTEIGER

@<TRIPOS>ATOM
      1  C          6.4900    1.3040    0.7800 C.3     1  UNL1        0.1270
      2  C          5.2670    1.2060    1.5620 C.2     1  UNL1        0.3030
      3  O          5.0350    0.3610    2.4280 O.2     1  UNL1       -0.2520
      4  O          4.2640    2.1550    1.3100 O.3     1  UNL1       -0.4810
      5  H          4.4490    2.8120    0.5680 H       1  UNL1        0.2960
      6  C          6.3260    0.9230   -0.6390 C.3     1  UNL1        0.0470
      7  C          7.0440   -0.2640   -1.1090 C.2     1  UNL1       -0.0430
      8  C          7.2860   -0.4790   -2.4570 C.2     1  UNL1        0.0080
      9  C          7.4650   -1.2230   -0.2260 C.2     1  UNL1        0.0540
     10  C          7.9290   -1.6120   -2.9030 C.2     1  UNL1        0.0510
     11  C          8.1120   -2.3680   -0.6500 C.2     1  UNL1        0.1660
     12  C          8.3470   -2.5660   -1.9900 C.2     1  UNL1        0.1650
     13  O          8.6180   -3.4500    0.0480 O.2     1  UNL1       -0.4540
     14  O          9.0060   -3.7910   -2.1060 O.2     1  UNL1       -0.4540
     15  C          8.9050   -4.4970   -0.8910 C.3     1  UNL1        0.4680
@<TRIPOS>BOND
     1    10     8    1
     2    10    12    2
     3     8     7    2
     4    14    12    1
     5    14    15    1
     6    12    11    1
     7     7     6    1
     8     7     9    1
     9    15    13    1
    10    11     9    2
    11    11    13    1
    12     6     1    1
    13     5     4    1
    14     1     2    1
    15     4     2    1
    16     2     3    2
