@<TRIPOS>MOLECULE
/home/cewinharhar/GITHUB/reincatalyze/data/processed/docking_pred/2023-May-17-1006_maxeplen10_maxtrainstep1000_seadep16_gamma099_lrac9e-4_lrcr1e-3_sub6/ca2511eb0ea692a115cf18c67ef7ccdfaa736476_ligand_6.pdbqt
 15 16 0 0 0
SMALL
GASTEIGER

@<TRIPOS>ATOM
      1  C          4.7030    1.8820    0.6820 C.3     1  UNL1        0.1270
      2  C          4.3910    1.1690    1.9110 C.2     1  UNL1        0.3030
      3  O          5.1100    0.3300    2.4550 O.2     1  UNL1       -0.2520
      4  O          3.1660    1.4610    2.5320 O.3     1  UNL1       -0.4810
      5  H          2.3480    1.4270    1.9420 H       1  UNL1        0.2960
      6  C          6.1310    2.2370    0.5400 C.3     1  UNL1        0.0470
      7  C          6.9800    1.3310   -0.2370 C.2     1  UNL1       -0.0430
      8  C          8.3430    1.5470   -0.3670 C.2     1  UNL1        0.0080
      9  C          6.4400    0.2580   -0.8950 C.2     1  UNL1        0.0540
     10  C          9.1360    0.7170   -1.1270 C.2     1  UNL1        0.0510
     11  C          7.2160   -0.5890   -1.6630 C.2     1  UNL1        0.1660
     12  C          8.5660   -0.3630   -1.7820 C.2     1  UNL1        0.1650
     13  O          6.8940   -1.7140   -2.4020 O.2     1  UNL1       -0.4540
     14  O          9.0720   -1.3680   -2.6080 O.2     1  UNL1       -0.4540
     15  C          8.0070   -2.0280   -3.2520 C.3     1  UNL1        0.4680
@<TRIPOS>BOND
     1    15    14    1
     2    15    13    1
     3    14    12    1
     4    13    11    1
     5    12    11    2
     6    12    10    1
     7    11     9    1
     8    10     8    2
     9     9     7    2
    10     8     7    1
    11     7     6    1
    12     6     1    1
    13     1     2    1
    14     2     3    2
    15     2     4    1
    16     5     4    1
