@<TRIPOS>MOLECULE
/home/cewinharhar/GITHUB/reincatalyze/data/processed/docking_pred/2023-May-17-1006_maxeplen10_maxtrainstep1000_seadep16_gamma099_lrac9e-4_lrcr1e-3_sub6/ca2511eb0ea692a115cf18c67ef7ccdfaa736476_ligand_6.pdbqt
 15 16 0 0 0
SMALL
GASTEIGER

@<TRIPOS>ATOM
      1  C          8.3180   -0.3200   -2.8490 C.3     1  UNL1        0.1270
      2  C          8.4740   -1.7490   -3.0720 C.2     1  UNL1        0.3030
      3  O          9.5390   -2.3670   -3.0400 O.2     1  UNL1       -0.2520
      4  O          7.3130   -2.4880   -3.3470 O.3     1  UNL1       -0.4810
      5  H          6.9920   -3.1010   -2.6140 H       1  UNL1        0.2960
      6  C          8.7680    0.1320   -1.5150 C.3     1  UNL1        0.0470
      7  C          7.7930    0.0930   -0.4220 C.2     1  UNL1       -0.0430
      8  C          7.7290   -0.9790    0.4540 C.2     1  UNL1        0.0080
      9  C          6.8850    1.1050   -0.2580 C.2     1  UNL1        0.0540
     10  C          6.7900   -1.0340    1.4590 C.2     1  UNL1        0.0510
     11  C          5.9340    1.0720    0.7450 C.2     1  UNL1        0.1660
     12  C          5.8830    0.0030    1.6060 C.2     1  UNL1        0.1650
     13  O          4.9360    1.9650    1.0940 O.2     1  UNL1       -0.4540
     14  O          4.8350    0.2510    2.4940 O.2     1  UNL1       -0.4540
     15  C          4.0400    1.3050    2.0010 C.3     1  UNL1        0.4680
@<TRIPOS>BOND
     1     4     2    1
     2     4     5    1
     3     2     3    2
     4     2     1    1
     5     1     6    1
     6     6     7    1
     7     7     9    2
     8     7     8    1
     9     9    11    1
    10     8    10    2
    11    11    13    1
    12    11    12    2
    13    13    15    1
    14    10    12    1
    15    12    14    1
    16    15    14    1
