MODEL 1
REMARK VINA RESULT:      -7.7      0.000      0.000
REMARK SMILES O=C(O)CCc1ccc2c(c1)OCO2
REMARK SMILES IDX 4 1 2 2 1 3 3 4 5 6 6 7 7 8 11 9 8 10 10 11 9 12 12 13 14 14
REMARK SMILES IDX 13 15
REMARK H PARENT 3 5
REMARK Flexibility Score: inf
ROOT
ATOM      1  C   UNL     1       5.412   2.869   0.126  1.00  0.00     0.127 C 
ENDROOT
BRANCH   1   2
ATOM      2  C   UNL     1       6.237   3.854   0.806  1.00  0.00     0.303 C 
ATOM      3  O   UNL     1       6.872   4.759   0.260  1.00  0.00    -0.252 OA
BRANCH   2   4
ATOM      4  O   UNL     1       6.320   3.770   2.205  1.00  0.00    -0.481 OA
ATOM      5  H   UNL     1       5.677   4.349   2.725  1.00  0.00     0.296 HD
ENDBRANCH   2   4
ENDBRANCH   1   2
BRANCH   1   6
ATOM      6  C   UNL     1       5.348   1.562   0.814  1.00  0.00     0.047 C 
BRANCH   6   7
ATOM      7  C   UNL     1       6.130   0.460   0.250  1.00  0.00    -0.043 A 
ATOM      8  C   UNL     1       6.593  -0.580   1.041  1.00  0.00     0.008 A 
ATOM      9  C   UNL     1       6.463   0.446  -1.079  1.00  0.00     0.054 A 
ATOM     10  C   UNL     1       7.360  -1.597   0.519  1.00  0.00     0.051 A 
ATOM     11  C   UNL     1       7.230  -0.565  -1.625  1.00  0.00     0.166 A 
ATOM     12  C   UNL     1       7.681  -1.590  -0.829  1.00  0.00     0.165 A 
ATOM     13  O   UNL     1       7.680  -0.782  -2.916  1.00  0.00    -0.454 OA
ATOM     14  O   UNL     1       8.418  -2.444  -1.651  1.00  0.00    -0.454 OA
ATOM     15  C   UNL     1       8.690  -1.801  -2.874  1.00  0.00     0.468 C 
ENDBRANCH   6   7
ENDBRANCH   1   6
TORSDOF 4
ENDMDL
MODEL 2
REMARK VINA RESULT:      -7.6      2.136      2.513
REMARK SMILES O=C(O)CCc1ccc2c(c1)OCO2
REMARK SMILES IDX 4 1 2 2 1 3 3 4 5 6 6 7 7 8 11 9 8 10 10 11 9 12 12 13 14 14
REMARK SMILES IDX 13 15
REMARK H PARENT 3 5
REMARK Flexibility Score: inf
ROOT
ATOM      1  C   UNL     1       4.703   1.882   0.682  1.00  0.00     0.127 C 
ENDROOT
BRANCH   1   2
ATOM      2  C   UNL     1       4.391   1.169   1.911  1.00  0.00     0.303 C 
ATOM      3  O   UNL     1       5.110   0.330   2.455  1.00  0.00    -0.252 OA
BRANCH   2   4
ATOM      4  O   UNL     1       3.166   1.461   2.532  1.00  0.00    -0.481 OA
ATOM      5  H   UNL     1       2.348   1.427   1.942  1.00  0.00     0.296 HD
ENDBRANCH   2   4
ENDBRANCH   1   2
BRANCH   1   6
ATOM      6  C   UNL     1       6.131   2.237   0.540  1.00  0.00     0.047 C 
BRANCH   6   7
ATOM      7  C   UNL     1       6.980   1.331  -0.237  1.00  0.00    -0.043 A 
ATOM      8  C   UNL     1       8.343   1.547  -0.367  1.00  0.00     0.008 A 
ATOM      9  C   UNL     1       6.440   0.258  -0.895  1.00  0.00     0.054 A 
ATOM     10  C   UNL     1       9.136   0.717  -1.127  1.00  0.00     0.051 A 
ATOM     11  C   UNL     1       7.216  -0.589  -1.663  1.00  0.00     0.166 A 
ATOM     12  C   UNL     1       8.566  -0.363  -1.782  1.00  0.00     0.165 A 
ATOM     13  O   UNL     1       6.894  -1.714  -2.402  1.00  0.00    -0.454 OA
ATOM     14  O   UNL     1       9.072  -1.368  -2.608  1.00  0.00    -0.454 OA
ATOM     15  C   UNL     1       8.007  -2.028  -3.252  1.00  0.00     0.468 C 
ENDBRANCH   6   7
ENDBRANCH   1   6
TORSDOF 4
ENDMDL
MODEL 3
REMARK VINA RESULT:      -7.4      1.785      5.284
REMARK SMILES O=C(O)CCc1ccc2c(c1)OCO2
REMARK SMILES IDX 4 1 2 2 1 3 3 4 5 6 6 7 7 8 11 9 8 10 10 11 9 12 12 13 14 14
REMARK SMILES IDX 13 15
REMARK H PARENT 3 5
REMARK Flexibility Score: inf
ROOT
ATOM      1  C   UNL     1       8.318  -0.320  -2.849  1.00  0.00     0.127 C 
ENDROOT
BRANCH   1   2
ATOM      2  C   UNL     1       8.474  -1.749  -3.072  1.00  0.00     0.303 C 
ATOM      3  O   UNL     1       9.539  -2.367  -3.040  1.00  0.00    -0.252 OA
BRANCH   2   4
ATOM      4  O   UNL     1       7.313  -2.488  -3.347  1.00  0.00    -0.481 OA
ATOM      5  H   UNL     1       6.992  -3.101  -2.614  1.00  0.00     0.296 HD
ENDBRANCH   2   4
ENDBRANCH   1   2
BRANCH   1   6
ATOM      6  C   UNL     1       8.768   0.132  -1.515  1.00  0.00     0.047 C 
BRANCH   6   7
ATOM      7  C   UNL     1       7.793   0.093  -0.422  1.00  0.00    -0.043 A 
ATOM      8  C   UNL     1       7.729  -0.979   0.454  1.00  0.00     0.008 A 
ATOM      9  C   UNL     1       6.885   1.105  -0.258  1.00  0.00     0.054 A 
ATOM     10  C   UNL     1       6.790  -1.034   1.459  1.00  0.00     0.051 A 
ATOM     11  C   UNL     1       5.934   1.072   0.745  1.00  0.00     0.166 A 
ATOM     12  C   UNL     1       5.883   0.003   1.606  1.00  0.00     0.165 A 
ATOM     13  O   UNL     1       4.936   1.965   1.094  1.00  0.00    -0.454 OA
ATOM     14  O   UNL     1       4.835   0.251   2.494  1.00  0.00    -0.454 OA
ATOM     15  C   UNL     1       4.040   1.305   2.001  1.00  0.00     0.468 C 
ENDBRANCH   6   7
ENDBRANCH   1   6
TORSDOF 4
ENDMDL
MODEL 4
REMARK VINA RESULT:      -7.4      1.964      2.948
REMARK SMILES O=C(O)CCc1ccc2c(c1)OCO2
REMARK SMILES IDX 4 1 2 2 1 3 3 4 5 6 6 7 7 8 11 9 8 10 10 11 9 12 12 13 14 14
REMARK SMILES IDX 13 15
REMARK H PARENT 3 5
REMARK Flexibility Score: inf
ROOT
ATOM      1  C   UNL     1       6.490   1.304   0.780  1.00  0.00     0.127 C 
ENDROOT
BRANCH   1   2
ATOM      2  C   UNL     1       5.267   1.206   1.562  1.00  0.00     0.303 C 
ATOM      3  O   UNL     1       5.035   0.361   2.428  1.00  0.00    -0.252 OA
BRANCH   2   4
ATOM      4  O   UNL     1       4.264   2.155   1.310  1.00  0.00    -0.481 OA
ATOM      5  H   UNL     1       4.449   2.812   0.568  1.00  0.00     0.296 HD
ENDBRANCH   2   4
ENDBRANCH   1   2
BRANCH   1   6
ATOM      6  C   UNL     1       6.326   0.923  -0.639  1.00  0.00     0.047 C 
BRANCH   6   7
ATOM      7  C   UNL     1       7.044  -0.264  -1.109  1.00  0.00    -0.043 A 
ATOM      8  C   UNL     1       7.286  -0.479  -2.457  1.00  0.00     0.008 A 
ATOM      9  C   UNL     1       7.465  -1.223  -0.226  1.00  0.00     0.054 A 
ATOM     10  C   UNL     1       7.929  -1.612  -2.903  1.00  0.00     0.051 A 
ATOM     11  C   UNL     1       8.112  -2.368  -0.650  1.00  0.00     0.166 A 
ATOM     12  C   UNL     1       8.347  -2.566  -1.990  1.00  0.00     0.165 A 
ATOM     13  O   UNL     1       8.618  -3.450   0.048  1.00  0.00    -0.454 OA
ATOM     14  O   UNL     1       9.006  -3.791  -2.106  1.00  0.00    -0.454 OA
ATOM     15  C   UNL     1       8.905  -4.497  -0.891  1.00  0.00     0.468 C 
ENDBRANCH   6   7
ENDBRANCH   1   6
TORSDOF 4
ENDMDL
MODEL 5
REMARK VINA RESULT:      -6.0      0.919      2.092
REMARK SMILES O=C(O)CCc1ccc2c(c1)OCO2
REMARK SMILES IDX 4 1 2 2 1 3 3 4 5 6 6 7 7 8 11 9 8 10 10 11 9 12 12 13 14 14
REMARK SMILES IDX 13 15
REMARK H PARENT 3 5
REMARK Flexibility Score: inf
ROOT
ATOM      1  C   UNL     1       5.360   2.862   0.125  1.00  0.00     0.127 C 
ENDROOT
BRANCH   1   2
ATOM      2  C   UNL     1       6.118   3.874   0.845  1.00  0.00     0.303 C 
ATOM      3  O   UNL     1       6.152   4.009   2.069  1.00  0.00    -0.252 OA
BRANCH   2   4
ATOM      4  O   UNL     1       6.877   4.775   0.081  1.00  0.00    -0.481 OA
ATOM      5  H   UNL     1       6.502   5.707  -0.011  1.00  0.00     0.296 HD
ENDBRANCH   2   4
ENDBRANCH   1   2
BRANCH   1   6
ATOM      6  C   UNL     1       5.377   1.531   0.767  1.00  0.00     0.047 C 
BRANCH   6   7
ATOM      7  C   UNL     1       6.195   0.488   0.143  1.00  0.00    -0.043 A 
ATOM      8  C   UNL     1       6.461   0.493  -1.217  1.00  0.00     0.008 A 
ATOM      9  C   UNL     1       6.693  -0.549   0.886  1.00  0.00     0.054 A 
ATOM     10  C   UNL     1       7.200  -0.506  -1.811  1.00  0.00     0.051 A 
ATOM     11  C   UNL     1       7.437  -1.562   0.312  1.00  0.00     0.166 A 
ATOM     12  C   UNL     1       7.694  -1.544  -1.038  1.00  0.00     0.165 A 
ATOM     13  O   UNL     1       8.030  -2.688   0.856  1.00  0.00    -0.454 OA
ATOM     14  O   UNL     1       8.456  -2.680  -1.318  1.00  0.00    -0.454 OA
ATOM     15  C   UNL     1       8.409  -3.561  -0.219  1.00  0.00     0.468 C 
ENDBRANCH   6   7
ENDBRANCH   1   6
TORSDOF 4
ENDMDL
