@<TRIPOS>MOLECULE
/home/cewinharhar/GITHUB/reincatalyze/data/processed/docking_pred/2023-May-17-1006_maxeplen10_maxtrainstep1000_seadep16_gamma099_lrac9e-4_lrcr1e-3_sub6/ca2511eb0ea692a115cf18c67ef7ccdfaa736476_ligand_6.pdbqt
 15 16 0 0 0
SMALL
GASTEIGER

@<TRIPOS>ATOM
      1  C          5.3600    2.8620    0.1250 C.3     1  UNL1        0.1270
      2  C          6.1180    3.8740    0.8450 C.2     1  UNL1        0.3030
      3  O          6.1520    4.0090    2.0690 O.2     1  UNL1       -0.2520
      4  O          6.8770    4.7750    0.0810 O.3     1  UNL1       -0.4810
      5  H          6.5020    5.7070   -0.0110 H       1  UNL1        0.2960
      6  C          5.3770    1.5310    0.7670 C.3     1  UNL1        0.0470
      7  C          6.1950    0.4880    0.1430 C.2     1  UNL1       -0.0430
      8  C          6.4610    0.4930   -1.2170 C.2     1  UNL1        0.0080
      9  C          6.6930   -0.5490    0.8860 C.2     1  UNL1        0.0540
     10  C          7.2000   -0.5060   -1.8110 C.2     1  UNL1        0.0510
     11  C          7.4370   -1.5620    0.3120 C.2     1  UNL1        0.1660
     12  C          7.6940   -1.5440   -1.0380 C.2     1  UNL1        0.1650
     13  O          8.0300   -2.6880    0.8560 O.2     1  UNL1       -0.4540
     14  O          8.4560   -2.6800   -1.3180 O.2     1  UNL1       -0.4540
     15  C          8.4090   -3.5610   -0.2190 C.3     1  UNL1        0.4680
@<TRIPOS>BOND
     1    10     8    1
     2    10    12    2
     3    14    12    1
     4    14    15    1
     5     8     7    2
     6    12    11    1
     7    15    13    1
     8     5     4    1
     9     4     2    1
    10     1     6    1
    11     1     2    1
    12     7     6    1
    13     7     9    1
    14    11    13    1
    15    11     9    2
    16     2     3    2
