@<TRIPOS>MOLECULE
/home/cewinharhar/GITHUB/reincatalyze/data/processed/docking_pred/2023-May-17-1006_maxeplen10_maxtrainstep1000_seadep16_gamma099_lrac9e-4_lrcr1e-3_sub6/cb79d4b49cb2e7af28552c4e2a37cc688e9725fc_ligand_6.pdbqt
 15 16 0 0 0
SMALL
GASTEIGER

@<TRIPOS>ATOM
      1  C          4.7330    1.8640    0.7140 C.3     1  UNL1        0.1270
      2  C          4.4200    1.1310    1.9310 C.2     1  UNL1        0.3030
      3  O          5.1410    0.2870    2.4660 O.2     1  UNL1       -0.2520
      4  O          3.1910    1.4070    2.5510 O.3     1  UNL1       -0.4810
      5  H          3.2370    1.8750    3.4430 H       1  UNL1        0.2960
      6  C          6.1640    2.2080    0.5730 C.3     1  UNL1        0.0470
      7  C          7.0030    1.3030   -0.2160 C.2     1  UNL1       -0.0430
      8  C          8.3640    1.5210   -0.3640 C.2     1  UNL1        0.0080
      9  C          6.4550    0.2290   -0.8660 C.2     1  UNL1        0.0540
     10  C          9.1480    0.6910   -1.1350 C.2     1  UNL1        0.0510
     11  C          7.2220   -0.6180   -1.6440 C.2     1  UNL1        0.1660
     12  C          8.5710   -0.3900   -1.7810 C.2     1  UNL1        0.1650
     13  O          6.8910   -1.7430   -2.3790 O.2     1  UNL1       -0.4540
     14  O          9.0670   -1.3940   -2.6140 O.2     1  UNL1       -0.4540
     15  C          7.9940   -2.0560   -3.2440 C.3     1  UNL1        0.4680
@<TRIPOS>BOND
     1    15    14    1
     2    15    13    1
     3    14    12    1
     4    13    11    1
     5    12    11    2
     6    12    10    1
     7    11     9    1
     8    10     8    2
     9     9     7    2
    10     8     7    1
    11     7     6    1
    12     6     1    1
    13     1     2    1
    14     2     3    2
    15     2     4    1
    16     4     5    1
