@<TRIPOS>MOLECULE
/home/cewinharhar/GITHUB/reincatalyze/data/processed/docking_pred/2023-May-17-1006_maxeplen10_maxtrainstep1000_seadep16_gamma099_lrac9e-4_lrcr1e-3_sub6/cb79d4b49cb2e7af28552c4e2a37cc688e9725fc_ligand_6.pdbqt
 15 16 0 0 0
SMALL
GASTEIGER

@<TRIPOS>ATOM
      1  C          8.2780   -0.3320   -2.8390 C.3     1  UNL1        0.1270
      2  C          8.4590   -1.7560   -3.0740 C.2     1  UNL1        0.3030
      3  O          9.5340   -2.3580   -3.0350 O.2     1  UNL1       -0.2520
      4  O          7.3140   -2.5100   -3.3720 O.3     1  UNL1       -0.4810
      5  H          7.4730   -3.4240   -3.7680 H       1  UNL1        0.2960
      6  C          8.7450    0.1220   -1.5110 C.3     1  UNL1        0.0470
      7  C          7.7850    0.0850   -0.4070 C.2     1  UNL1       -0.0430
      8  C          7.7520   -0.9720    0.4910 C.2     1  UNL1        0.0080
      9  C          6.8590    1.0820   -0.2500 C.2     1  UNL1        0.0540
     10  C          6.8260   -1.0260    1.5080 C.2     1  UNL1        0.0510
     11  C          5.9200    1.0490    0.7640 C.2     1  UNL1        0.1660
     12  C          5.9010   -0.0040    1.6470 C.2     1  UNL1        0.1650
     13  O          4.9090    1.9280    1.1080 O.2     1  UNL1       -0.4540
     14  O          4.8590    0.2400    2.5420 O.2     1  UNL1       -0.4540
     15  C          4.0370    1.2690    2.0390 C.3     1  UNL1        0.4680
@<TRIPOS>BOND
     1     5     4    1
     2     4     2    1
     3     2     3    2
     4     2     1    1
     5     1     6    1
     6     6     7    1
     7     7     9    2
     8     7     8    1
     9     9    11    1
    10     8    10    2
    11    11    13    1
    12    11    12    2
    13    13    15    1
    14    10    12    1
    15    12    14    1
    16    15    14    1
