@<TRIPOS>MOLECULE
/home/cewinharhar/GITHUB/reincatalyze/data/processed/docking_pred/2023-May-17-1006_maxeplen10_maxtrainstep1000_seadep16_gamma099_lrac9e-4_lrcr1e-3_sub6/cb79d4b49cb2e7af28552c4e2a37cc688e9725fc_ligand_6.pdbqt
 15 16 0 0 0
SMALL
GASTEIGER

@<TRIPOS>ATOM
      1  C          5.4000    2.8750    0.1040 C.3     1  UNL1        0.1270
      2  C          6.2280    3.8440    0.8030 C.2     1  UNL1        0.3030
      3  O          6.8560    4.7640    0.2760 O.2     1  UNL1       -0.2520
      4  O          6.3210    3.7240    2.1990 O.3     1  UNL1       -0.4810
      5  H          6.3370    4.5870    2.7200 H       1  UNL1        0.2960
      6  C          5.3070    1.5640    0.7820 C.3     1  UNL1        0.0470
      7  C          6.0980    0.4600    0.2330 C.2     1  UNL1       -0.0430
      8  C          6.5750   -0.5610    1.0410 C.2     1  UNL1        0.0080
      9  C          6.4240    0.4250   -1.0960 C.2     1  UNL1        0.0540
     10  C          7.3490   -1.5800    0.5330 C.2     1  UNL1        0.0510
     11  C          7.1990   -0.5880   -1.6280 C.2     1  UNL1        0.1660
     12  C          7.6640   -1.5940   -0.8160 C.2     1  UNL1        0.1650
     13  O          7.6450   -0.8240   -2.9170 O.2     1  UNL1       -0.4540
     14  O          8.4050   -2.4560   -1.6260 O.2     1  UNL1       -0.4540
     15  C          8.6650   -1.8320   -2.8620 C.3     1  UNL1        0.4680
@<TRIPOS>BOND
     1    13    15    1
     2    13    11    1
     3    15    14    1
     4    11     9    1
     5    11    12    2
     6    14    12    1
     7     9     7    2
     8    12    10    1
     9     1     6    1
    10     1     2    1
    11     7     6    1
    12     7     8    1
    13     3     2    2
    14    10     8    2
    15     2     4    1
    16     4     5    1
