@<TRIPOS>MOLECULE
/home/cewinharhar/GITHUB/reincatalyze/data/processed/docking_pred/2023-May-17-1006_maxeplen10_maxtrainstep1000_seadep16_gamma099_lrac9e-4_lrcr1e-3_sub6/cb79d4b49cb2e7af28552c4e2a37cc688e9725fc_ligand_6.pdbqt
 15 16 0 0 0
SMALL
GASTEIGER

@<TRIPOS>ATOM
      1  C          5.5080    2.7370   -0.0020 C.3     1  UNL1        0.1270
      2  C          6.2040    3.6670    0.8730 C.2     1  UNL1        0.3030
      3  O          6.2800    3.5770    2.1000 O.2     1  UNL1       -0.2520
      4  O          6.8470    4.7600    0.2710 O.3     1  UNL1       -0.4810
      5  H          7.6940    5.0780    0.7160 H       1  UNL1        0.2960
      6  C          5.3710    1.3750    0.5560 C.3     1  UNL1        0.0470
      7  C          6.2160    0.3220   -0.0110 C.2     1  UNL1       -0.0430
      8  C          6.4600    0.2440   -1.3740 C.2     1  UNL1        0.0080
      9  C          6.7610   -0.6460    0.7900 C.2     1  UNL1        0.0540
     10  C          7.2240   -0.7660   -1.9130 C.2     1  UNL1        0.0510
     11  C          7.5320   -1.6690    0.2710 C.2     1  UNL1        0.1660
     12  C          7.7670   -1.7320   -1.0820 C.2     1  UNL1        0.1650
     13  O          8.1730   -2.7350    0.8770 O.2     1  UNL1       -0.4540
     14  O          8.5640   -2.8570   -1.3000 O.2     1  UNL1       -0.4540
     15  C          8.5660   -3.6630   -0.1450 C.3     1  UNL1        0.4680
@<TRIPOS>BOND
     1    10     8    1
     2    10    12    2
     3     8     7    2
     4    14    12    1
     5    14    15    1
     6    12    11    1
     7    15    13    1
     8     7     6    1
     9     7     9    1
    10     1     6    1
    11     1     2    1
    12     4     5    1
    13     4     2    1
    14    11     9    2
    15    11    13    1
    16     2     3    2
