MODEL 1
REMARK VINA RESULT:      -7.7      0.000      0.000
REMARK SMILES O=C(O)CCc1ccc2c(c1)OCO2
REMARK SMILES IDX 4 1 2 2 1 3 3 4 5 6 6 7 7 8 11 9 8 10 10 11 9 12 12 13 14 14
REMARK SMILES IDX 13 15
REMARK H PARENT 3 5
REMARK Flexibility Score: inf
ROOT
ATOM      1  C   UNL     1       5.400   2.875   0.104  1.00  0.00     0.127 C 
ENDROOT
BRANCH   1   2
ATOM      2  C   UNL     1       6.228   3.844   0.803  1.00  0.00     0.303 C 
ATOM      3  O   UNL     1       6.856   4.764   0.276  1.00  0.00    -0.252 OA
BRANCH   2   4
ATOM      4  O   UNL     1       6.321   3.724   2.199  1.00  0.00    -0.481 OA
ATOM      5  H   UNL     1       6.337   4.587   2.720  1.00  0.00     0.296 HD
ENDBRANCH   2   4
ENDBRANCH   1   2
BRANCH   1   6
ATOM      6  C   UNL     1       5.307   1.564   0.782  1.00  0.00     0.047 C 
BRANCH   6   7
ATOM      7  C   UNL     1       6.098   0.460   0.233  1.00  0.00    -0.043 A 
ATOM      8  C   UNL     1       6.575  -0.561   1.041  1.00  0.00     0.008 A 
ATOM      9  C   UNL     1       6.424   0.425  -1.096  1.00  0.00     0.054 A 
ATOM     10  C   UNL     1       7.349  -1.580   0.533  1.00  0.00     0.051 A 
ATOM     11  C   UNL     1       7.199  -0.588  -1.628  1.00  0.00     0.166 A 
ATOM     12  C   UNL     1       7.664  -1.594  -0.816  1.00  0.00     0.165 A 
ATOM     13  O   UNL     1       7.645  -0.824  -2.917  1.00  0.00    -0.454 OA
ATOM     14  O   UNL     1       8.405  -2.456  -1.626  1.00  0.00    -0.454 OA
ATOM     15  C   UNL     1       8.665  -1.832  -2.862  1.00  0.00     0.468 C 
ENDBRANCH   6   7
ENDBRANCH   1   6
TORSDOF 4
ENDMDL
MODEL 2
REMARK VINA RESULT:      -7.6      2.132      2.516
REMARK SMILES O=C(O)CCc1ccc2c(c1)OCO2
REMARK SMILES IDX 4 1 2 2 1 3 3 4 5 6 6 7 7 8 11 9 8 10 10 11 9 12 12 13 14 14
REMARK SMILES IDX 13 15
REMARK H PARENT 3 5
REMARK Flexibility Score: inf
ROOT
ATOM      1  C   UNL     1       4.733   1.864   0.714  1.00  0.00     0.127 C 
ENDROOT
BRANCH   1   2
ATOM      2  C   UNL     1       4.420   1.131   1.931  1.00  0.00     0.303 C 
ATOM      3  O   UNL     1       5.141   0.287   2.466  1.00  0.00    -0.252 OA
BRANCH   2   4
ATOM      4  O   UNL     1       3.191   1.407   2.551  1.00  0.00    -0.481 OA
ATOM      5  H   UNL     1       3.237   1.875   3.443  1.00  0.00     0.296 HD
ENDBRANCH   2   4
ENDBRANCH   1   2
BRANCH   1   6
ATOM      6  C   UNL     1       6.164   2.208   0.573  1.00  0.00     0.047 C 
BRANCH   6   7
ATOM      7  C   UNL     1       7.003   1.303  -0.216  1.00  0.00    -0.043 A 
ATOM      8  C   UNL     1       8.364   1.521  -0.364  1.00  0.00     0.008 A 
ATOM      9  C   UNL     1       6.455   0.229  -0.866  1.00  0.00     0.054 A 
ATOM     10  C   UNL     1       9.148   0.691  -1.135  1.00  0.00     0.051 A 
ATOM     11  C   UNL     1       7.222  -0.618  -1.644  1.00  0.00     0.166 A 
ATOM     12  C   UNL     1       8.571  -0.390  -1.781  1.00  0.00     0.165 A 
ATOM     13  O   UNL     1       6.891  -1.743  -2.379  1.00  0.00    -0.454 OA
ATOM     14  O   UNL     1       9.067  -1.394  -2.614  1.00  0.00    -0.454 OA
ATOM     15  C   UNL     1       7.994  -2.056  -3.244  1.00  0.00     0.468 C 
ENDBRANCH   6   7
ENDBRANCH   1   6
TORSDOF 4
ENDMDL
MODEL 3
REMARK VINA RESULT:      -7.5      1.957      2.871
REMARK SMILES O=C(O)CCc1ccc2c(c1)OCO2
REMARK SMILES IDX 4 1 2 2 1 3 3 4 5 6 6 7 7 8 11 9 8 10 10 11 9 12 12 13 14 14
REMARK SMILES IDX 13 15
REMARK H PARENT 3 5
REMARK Flexibility Score: inf
ROOT
ATOM      1  C   UNL     1       6.410   1.258   0.702  1.00  0.00     0.127 C 
ENDROOT
BRANCH   1   2
ATOM      2  C   UNL     1       5.156   1.327   1.435  1.00  0.00     0.303 C 
ATOM      3  O   UNL     1       4.274   2.171   1.270  1.00  0.00    -0.252 OA
BRANCH   2   4
ATOM      4  O   UNL     1       4.928   0.349   2.417  1.00  0.00    -0.481 OA
ATOM      5  H   UNL     1       5.594   0.314   3.173  1.00  0.00     0.296 HD
ENDBRANCH   2   4
ENDBRANCH   1   2
BRANCH   1   6
ATOM      6  C   UNL     1       6.258   0.846  -0.710  1.00  0.00     0.047 C 
BRANCH   6   7
ATOM      7  C   UNL     1       6.998  -0.337  -1.154  1.00  0.00    -0.043 A 
ATOM      8  C   UNL     1       7.274  -0.558  -2.495  1.00  0.00     0.008 A 
ATOM      9  C   UNL     1       7.409  -1.285  -0.254  1.00  0.00     0.054 A 
ATOM     10  C   UNL     1       7.938  -1.688  -2.917  1.00  0.00     0.051 A 
ATOM     11  C   UNL     1       8.078  -2.426  -0.655  1.00  0.00     0.166 A 
ATOM     12  C   UNL     1       8.345  -2.631  -1.987  1.00  0.00     0.165 A 
ATOM     13  O   UNL     1       8.578  -3.498   0.063  1.00  0.00    -0.454 OA
ATOM     14  O   UNL     1       9.019  -3.850  -2.080  1.00  0.00    -0.454 OA
ATOM     15  C   UNL     1       8.897  -4.548  -0.862  1.00  0.00     0.468 C 
ENDBRANCH   6   7
ENDBRANCH   1   6
TORSDOF 4
ENDMDL
MODEL 4
REMARK VINA RESULT:      -7.5      0.966      2.117
REMARK SMILES O=C(O)CCc1ccc2c(c1)OCO2
REMARK SMILES IDX 4 1 2 2 1 3 3 4 5 6 6 7 7 8 11 9 8 10 10 11 9 12 12 13 14 14
REMARK SMILES IDX 13 15
REMARK H PARENT 3 5
REMARK Flexibility Score: inf
ROOT
ATOM      1  C   UNL     1       5.508   2.737  -0.002  1.00  0.00     0.127 C 
ENDROOT
BRANCH   1   2
ATOM      2  C   UNL     1       6.204   3.667   0.873  1.00  0.00     0.303 C 
ATOM      3  O   UNL     1       6.280   3.577   2.100  1.00  0.00    -0.252 OA
BRANCH   2   4
ATOM      4  O   UNL     1       6.847   4.760   0.271  1.00  0.00    -0.481 OA
ATOM      5  H   UNL     1       7.694   5.078   0.716  1.00  0.00     0.296 HD
ENDBRANCH   2   4
ENDBRANCH   1   2
BRANCH   1   6
ATOM      6  C   UNL     1       5.371   1.375   0.556  1.00  0.00     0.047 C 
BRANCH   6   7
ATOM      7  C   UNL     1       6.216   0.322  -0.011  1.00  0.00    -0.043 A 
ATOM      8  C   UNL     1       6.460   0.244  -1.374  1.00  0.00     0.008 A 
ATOM      9  C   UNL     1       6.761  -0.646   0.790  1.00  0.00     0.054 A 
ATOM     10  C   UNL     1       7.224  -0.766  -1.913  1.00  0.00     0.051 A 
ATOM     11  C   UNL     1       7.532  -1.669   0.271  1.00  0.00     0.166 A 
ATOM     12  C   UNL     1       7.767  -1.732  -1.082  1.00  0.00     0.165 A 
ATOM     13  O   UNL     1       8.173  -2.735   0.877  1.00  0.00    -0.454 OA
ATOM     14  O   UNL     1       8.564  -2.857  -1.300  1.00  0.00    -0.454 OA
ATOM     15  C   UNL     1       8.566  -3.663  -0.145  1.00  0.00     0.468 C 
ENDBRANCH   6   7
ENDBRANCH   1   6
TORSDOF 4
ENDMDL
MODEL 5
REMARK VINA RESULT:      -7.5      1.802      5.284
REMARK SMILES O=C(O)CCc1ccc2c(c1)OCO2
REMARK SMILES IDX 4 1 2 2 1 3 3 4 5 6 6 7 7 8 11 9 8 10 10 11 9 12 12 13 14 14
REMARK SMILES IDX 13 15
REMARK H PARENT 3 5
REMARK Flexibility Score: inf
ROOT
ATOM      1  C   UNL     1       8.278  -0.332  -2.839  1.00  0.00     0.127 C 
ENDROOT
BRANCH   1   2
ATOM      2  C   UNL     1       8.459  -1.756  -3.074  1.00  0.00     0.303 C 
ATOM      3  O   UNL     1       9.534  -2.358  -3.035  1.00  0.00    -0.252 OA
BRANCH   2   4
ATOM      4  O   UNL     1       7.314  -2.510  -3.372  1.00  0.00    -0.481 OA
ATOM      5  H   UNL     1       7.473  -3.424  -3.768  1.00  0.00     0.296 HD
ENDBRANCH   2   4
ENDBRANCH   1   2
BRANCH   1   6
ATOM      6  C   UNL     1       8.745   0.122  -1.511  1.00  0.00     0.047 C 
BRANCH   6   7
ATOM      7  C   UNL     1       7.785   0.085  -0.407  1.00  0.00    -0.043 A 
ATOM      8  C   UNL     1       7.752  -0.972   0.491  1.00  0.00     0.008 A 
ATOM      9  C   UNL     1       6.859   1.082  -0.250  1.00  0.00     0.054 A 
ATOM     10  C   UNL     1       6.826  -1.026   1.508  1.00  0.00     0.051 A 
ATOM     11  C   UNL     1       5.920   1.049   0.764  1.00  0.00     0.166 A 
ATOM     12  C   UNL     1       5.901  -0.004   1.647  1.00  0.00     0.165 A 
ATOM     13  O   UNL     1       4.909   1.928   1.108  1.00  0.00    -0.454 OA
ATOM     14  O   UNL     1       4.859   0.240   2.542  1.00  0.00    -0.454 OA
ATOM     15  C   UNL     1       4.037   1.269   2.039  1.00  0.00     0.468 C 
ENDBRANCH   6   7
ENDBRANCH   1   6
TORSDOF 4
ENDMDL
