@<TRIPOS>MOLECULE
/home/cewinharhar/GITHUB/reincatalyze/data/processed/docking_pred/2023-May-17-1006_maxeplen10_maxtrainstep1000_seadep16_gamma099_lrac9e-4_lrcr1e-3_sub6/cb79d4b49cb2e7af28552c4e2a37cc688e9725fc_ligand_6.pdbqt
 15 16 0 0 0
SMALL
GASTEIGER

@<TRIPOS>ATOM
      1  C          6.4100    1.2580    0.7020 C.3     1  UNL1        0.1270
      2  C          5.1560    1.3270    1.4350 C.2     1  UNL1        0.3030
      3  O          4.2740    2.1710    1.2700 O.2     1  UNL1       -0.2520
      4  O          4.9280    0.3490    2.4170 O.3     1  UNL1       -0.4810
      5  H          5.5940    0.3140    3.1730 H       1  UNL1        0.2960
      6  C          6.2580    0.8460   -0.7100 C.3     1  UNL1        0.0470
      7  C          6.9980   -0.3370   -1.1540 C.2     1  UNL1       -0.0430
      8  C          7.2740   -0.5580   -2.4950 C.2     1  UNL1        0.0080
      9  C          7.4090   -1.2850   -0.2540 C.2     1  UNL1        0.0540
     10  C          7.9380   -1.6880   -2.9170 C.2     1  UNL1        0.0510
     11  C          8.0780   -2.4260   -0.6550 C.2     1  UNL1        0.1660
     12  C          8.3450   -2.6310   -1.9870 C.2     1  UNL1        0.1650
     13  O          8.5780   -3.4980    0.0630 O.2     1  UNL1       -0.4540
     14  O          9.0190   -3.8500   -2.0800 O.2     1  UNL1       -0.4540
     15  C          8.8970   -4.5480   -0.8620 C.3     1  UNL1        0.4680
@<TRIPOS>BOND
     1    10     8    1
     2    10    12    2
     3     8     7    2
     4    14    12    1
     5    14    15    1
     6    12    11    1
     7     7     6    1
     8     7     9    1
     9    15    13    1
    10     6     1    1
    11    11     9    2
    12    11    13    1
    13     1     2    1
    14     3     2    2
    15     2     4    1
    16     4     5    1
