@<TRIPOS>MOLECULE
/home/cewinharhar/GITHUB/reincatalyze/data/processed/docking_pred/2023-May-17-1006_maxeplen10_maxtrainstep1000_seadep16_gamma099_lrac9e-4_lrcr1e-3_sub6/cc4a81c85f0f72a0e9860fd8246284f5ccc1e781_ligand_6.pdbqt
 15 16 0 0 0
SMALL
GASTEIGER

@<TRIPOS>ATOM
      1  C          6.3650    1.3190    0.6000 C.3     1  UNL1        0.1270
      2  C          5.1980    1.2620    1.4660 C.2     1  UNL1        0.3030
      3  O          4.2310    2.0240    1.4170 O.2     1  UNL1       -0.2520
      4  O          5.1670    0.2520    2.4410 O.3     1  UNL1       -0.4810
      5  H          6.0420   -0.2150    2.6250 H       1  UNL1        0.2960
      6  C          6.1340    0.7800   -0.7570 C.3     1  UNL1        0.0470
      7  C          6.9290   -0.3780   -1.1700 C.2     1  UNL1       -0.0430
      8  C          7.2810   -0.5800   -2.4960 C.2     1  UNL1        0.0080
      9  C          7.3160   -1.3230   -0.2570 C.2     1  UNL1        0.0540
     10  C          7.9970   -1.6880   -2.8910 C.2     1  UNL1        0.0510
     11  C          8.0360   -2.4420   -0.6310 C.2     1  UNL1        0.1660
     12  C          8.3790   -2.6280   -1.9480 C.2     1  UNL1        0.1650
     13  O          8.5260   -3.5070    0.1050 O.2     1  UNL1       -0.4540
     14  O          9.0900   -3.8280   -2.0140 O.2     1  UNL1       -0.4540
     15  C          8.9220   -4.5400   -0.8100 C.3     1  UNL1        0.4680
@<TRIPOS>BOND
     1    10     8    1
     2    10    12    2
     3     8     7    2
     4    14    12    1
     5    14    15    1
     6    12    11    1
     7     7     6    1
     8     7     9    1
     9    15    13    1
    10     6     1    1
    11    11     9    2
    12    11    13    1
    13     1     2    1
    14     3     2    2
    15     2     4    1
    16     4     5    1
