@<TRIPOS>MOLECULE
/home/cewinharhar/GITHUB/reincatalyze/data/processed/docking_pred/2023-May-17-1006_maxeplen10_maxtrainstep1000_seadep16_gamma099_lrac9e-4_lrcr1e-3_sub6/cc4a81c85f0f72a0e9860fd8246284f5ccc1e781_ligand_6.pdbqt
 15 16 0 0 0
SMALL
GASTEIGER

@<TRIPOS>ATOM
      1  C          8.2970   -0.3330   -2.8580 C.3     1  UNL1        0.1270
      2  C          8.4730   -1.7600   -3.0790 C.2     1  UNL1        0.3030
      3  O          9.5470   -2.3640   -3.0430 O.2     1  UNL1       -0.2520
      4  O          7.3230   -2.5170   -3.3560 O.3     1  UNL1       -0.4810
      5  H          6.4970   -1.9950   -3.6060 H       1  UNL1        0.2960
      6  C          8.7560    0.1300   -1.5320 C.3     1  UNL1        0.0470
      7  C          7.7930    0.0920   -0.4300 C.2     1  UNL1       -0.0430
      8  C          7.7630   -0.9630    0.4700 C.2     1  UNL1        0.0080
      9  C          6.8620    1.0840   -0.2780 C.2     1  UNL1        0.0540
     10  C          6.8340   -1.0190    1.4850 C.2     1  UNL1        0.0510
     11  C          5.9210    1.0500    0.7330 C.2     1  UNL1        0.1660
     12  C          5.9040   -0.0010    1.6180 C.2     1  UNL1        0.1650
     13  O          4.9040    1.9250    1.0730 O.2     1  UNL1       -0.4540
     14  O          4.8580    0.2410    2.5110 O.2     1  UNL1       -0.4540
     15  C          4.0330    1.2640    2.0030 C.3     1  UNL1        0.4680
@<TRIPOS>BOND
     1     5     4    1
     2     4     2    1
     3     2     3    2
     4     2     1    1
     5     1     6    1
     6     6     7    1
     7     7     9    2
     8     7     8    1
     9     9    11    1
    10     8    10    2
    11    11    13    1
    12    11    12    2
    13    13    15    1
    14    10    12    1
    15    12    14    1
    16    15    14    1
