@<TRIPOS>MOLECULE
/home/cewinharhar/GITHUB/reincatalyze/data/processed/docking_pred/2023-May-17-1006_maxeplen10_maxtrainstep1000_seadep16_gamma099_lrac9e-4_lrcr1e-3_sub6/cc4a81c85f0f72a0e9860fd8246284f5ccc1e781_ligand_6.pdbqt
 15 16 0 0 0
SMALL
GASTEIGER

@<TRIPOS>ATOM
      1  C          5.4210    2.8730    0.1160 C.3     1  UNL1        0.1270
      2  C          6.2500    3.8540    0.7980 C.2     1  UNL1        0.3030
      3  O          6.8800    4.7630    0.2540 O.2     1  UNL1       -0.2520
      4  O          6.3420    3.7600    2.1960 O.3     1  UNL1       -0.4810
      5  H          5.7940    3.0340    2.6300 H       1  UNL1        0.2960
      6  C          5.3560    1.5630    0.8000 C.3     1  UNL1        0.0470
      7  C          6.1360    0.4630    0.2300 C.2     1  UNL1       -0.0430
      8  C          6.6010   -0.5800    1.0170 C.2     1  UNL1        0.0080
      9  C          6.4640    0.4520   -1.1000 C.2     1  UNL1        0.0540
     10  C          7.3650   -1.5960    0.4900 C.2     1  UNL1        0.0510
     11  C          7.2290   -0.5580   -1.6510 C.2     1  UNL1        0.1660
     12  C          7.6820   -1.5860   -0.8590 C.2     1  UNL1        0.1650
     13  O          7.6740   -0.7730   -2.9440 O.2     1  UNL1       -0.4540
     14  O          8.4160   -2.4380   -1.6860 O.2     1  UNL1       -0.4540
     15  C          8.6850   -1.7920   -2.9080 C.3     1  UNL1        0.4680
@<TRIPOS>BOND
     1    13    15    1
     2    13    11    1
     3    15    14    1
     4    14    12    1
     5    11     9    1
     6    11    12    2
     7     9     7    2
     8    12    10    1
     9     1     2    1
    10     1     6    1
    11     7     6    1
    12     7     8    1
    13     3     2    2
    14    10     8    2
    15     2     4    1
    16     4     5    1
