@<TRIPOS>MOLECULE
/home/cewinharhar/GITHUB/reincatalyze/data/processed/docking_pred/2023-May-17-1006_maxeplen10_maxtrainstep1000_seadep16_gamma099_lrac9e-4_lrcr1e-3_sub6/cc4a81c85f0f72a0e9860fd8246284f5ccc1e781_ligand_6.pdbqt
 15 16 0 0 0
SMALL
GASTEIGER

@<TRIPOS>ATOM
      1  C          5.4820    2.7640   -0.0010 C.3     1  UNL1        0.1270
      2  C          6.1670    3.7210    0.8540 C.2     1  UNL1        0.3030
      3  O          6.2010    3.6870    2.0850 O.2     1  UNL1       -0.2520
      4  O          6.8490    4.7750    0.2240 O.3     1  UNL1       -0.4810
      5  H          6.8080    5.6700    0.6860 H       1  UNL1        0.2960
      6  C          5.3840    1.4070    0.5760 C.3     1  UNL1        0.0470
      7  C          6.2350    0.3630    0.0010 C.2     1  UNL1       -0.0430
      8  C          6.5220    0.3270   -1.3550 C.2     1  UNL1        0.0080
      9  C          6.7440   -0.6370    0.7870 C.2     1  UNL1        0.0540
     10  C          7.2930   -0.6740   -1.9030 C.2     1  UNL1        0.0510
     11  C          7.5200   -1.6510    0.2590 C.2     1  UNL1        0.1660
     12  C          7.7980   -1.6740   -1.0870 C.2     1  UNL1        0.1650
     13  O          8.1300   -2.7440    0.8500 O.2     1  UNL1       -0.4540
     14  O          8.5890   -2.8000   -1.3160 O.2     1  UNL1       -0.4540
     15  C          8.5460   -3.6430   -0.1890 C.3     1  UNL1        0.4680
@<TRIPOS>BOND
     1    10     8    1
     2    10    12    2
     3     8     7    2
     4    14    12    1
     5    14    15    1
     6    12    11    1
     7    15    13    1
     8     1     6    1
     9     1     2    1
    10     7     6    1
    11     7     9    1
    12     4     5    1
    13     4     2    1
    14    11     9    2
    15    11    13    1
    16     2     3    2
