MODEL 1
REMARK VINA RESULT:      -7.7      0.000      0.000
REMARK SMILES O=C(O)CCc1ccc2c(c1)OCO2
REMARK SMILES IDX 4 1 2 2 1 3 3 4 5 6 6 7 7 8 11 9 8 10 10 11 9 12 12 13 14 14
REMARK SMILES IDX 13 15
REMARK H PARENT 3 5
REMARK Flexibility Score: inf
ROOT
ATOM      1  C   UNL     1       5.421   2.873   0.116  1.00  0.00     0.127 C 
ENDROOT
BRANCH   1   2
ATOM      2  C   UNL     1       6.250   3.854   0.798  1.00  0.00     0.303 C 
ATOM      3  O   UNL     1       6.880   4.763   0.254  1.00  0.00    -0.252 OA
BRANCH   2   4
ATOM      4  O   UNL     1       6.342   3.760   2.196  1.00  0.00    -0.481 OA
ATOM      5  H   UNL     1       5.794   3.034   2.630  1.00  0.00     0.296 HD
ENDBRANCH   2   4
ENDBRANCH   1   2
BRANCH   1   6
ATOM      6  C   UNL     1       5.356   1.563   0.800  1.00  0.00     0.047 C 
BRANCH   6   7
ATOM      7  C   UNL     1       6.136   0.463   0.230  1.00  0.00    -0.043 A 
ATOM      8  C   UNL     1       6.601  -0.580   1.017  1.00  0.00     0.008 A 
ATOM      9  C   UNL     1       6.464   0.452  -1.100  1.00  0.00     0.054 A 
ATOM     10  C   UNL     1       7.365  -1.596   0.490  1.00  0.00     0.051 A 
ATOM     11  C   UNL     1       7.229  -0.558  -1.651  1.00  0.00     0.166 A 
ATOM     12  C   UNL     1       7.682  -1.586  -0.859  1.00  0.00     0.165 A 
ATOM     13  O   UNL     1       7.674  -0.773  -2.944  1.00  0.00    -0.454 OA
ATOM     14  O   UNL     1       8.416  -2.438  -1.686  1.00  0.00    -0.454 OA
ATOM     15  C   UNL     1       8.685  -1.792  -2.908  1.00  0.00     0.468 C 
ENDBRANCH   6   7
ENDBRANCH   1   6
TORSDOF 4
ENDMDL
MODEL 2
REMARK VINA RESULT:      -7.6      2.119      2.508
REMARK SMILES O=C(O)CCc1ccc2c(c1)OCO2
REMARK SMILES IDX 4 1 2 2 1 3 3 4 5 6 6 7 7 8 11 9 8 10 10 11 9 12 12 13 14 14
REMARK SMILES IDX 13 15
REMARK H PARENT 3 5
REMARK Flexibility Score: inf
ROOT
ATOM      1  C   UNL     1       4.727   1.888   0.690  1.00  0.00     0.127 C 
ENDROOT
BRANCH   1   2
ATOM      2  C   UNL     1       4.429   1.160   1.914  1.00  0.00     0.303 C 
ATOM      3  O   UNL     1       5.167   0.334   2.455  1.00  0.00    -0.252 OA
BRANCH   2   4
ATOM      4  O   UNL     1       3.197   1.419   2.535  1.00  0.00    -0.481 OA
ATOM      5  H   UNL     1       3.197   2.136   3.244  1.00  0.00     0.296 HD
ENDBRANCH   2   4
ENDBRANCH   1   2
BRANCH   1   6
ATOM      6  C   UNL     1       6.154   2.242   0.535  1.00  0.00     0.047 C 
BRANCH   6   7
ATOM      7  C   UNL     1       6.998   1.329  -0.238  1.00  0.00    -0.043 A 
ATOM      8  C   UNL     1       8.361   1.545  -0.377  1.00  0.00     0.008 A 
ATOM      9  C   UNL     1       6.455   0.249  -0.882  1.00  0.00     0.054 A 
ATOM     10  C   UNL     1       9.150   0.707  -1.133  1.00  0.00     0.051 A 
ATOM     11  C   UNL     1       7.228  -0.606  -1.645  1.00  0.00     0.166 A 
ATOM     12  C   UNL     1       8.577  -0.380  -1.773  1.00  0.00     0.165 A 
ATOM     13  O   UNL     1       6.902  -1.738  -2.371  1.00  0.00    -0.454 OA
ATOM     14  O   UNL     1       9.079  -1.394  -2.591  1.00  0.00    -0.454 OA
ATOM     15  C   UNL     1       8.011  -2.060  -3.223  1.00  0.00     0.468 C 
ENDBRANCH   6   7
ENDBRANCH   1   6
TORSDOF 4
ENDMDL
MODEL 3
REMARK VINA RESULT:      -7.5      0.962      2.118
REMARK SMILES O=C(O)CCc1ccc2c(c1)OCO2
REMARK SMILES IDX 4 1 2 2 1 3 3 4 5 6 6 7 7 8 11 9 8 10 10 11 9 12 12 13 14 14
REMARK SMILES IDX 13 15
REMARK H PARENT 3 5
REMARK Flexibility Score: inf
ROOT
ATOM      1  C   UNL     1       5.482   2.764  -0.001  1.00  0.00     0.127 C 
ENDROOT
BRANCH   1   2
ATOM      2  C   UNL     1       6.167   3.721   0.854  1.00  0.00     0.303 C 
ATOM      3  O   UNL     1       6.201   3.687   2.085  1.00  0.00    -0.252 OA
BRANCH   2   4
ATOM      4  O   UNL     1       6.849   4.775   0.224  1.00  0.00    -0.481 OA
ATOM      5  H   UNL     1       6.808   5.670   0.686  1.00  0.00     0.296 HD
ENDBRANCH   2   4
ENDBRANCH   1   2
BRANCH   1   6
ATOM      6  C   UNL     1       5.384   1.407   0.576  1.00  0.00     0.047 C 
BRANCH   6   7
ATOM      7  C   UNL     1       6.235   0.363   0.001  1.00  0.00    -0.043 A 
ATOM      8  C   UNL     1       6.522   0.327  -1.355  1.00  0.00     0.008 A 
ATOM      9  C   UNL     1       6.744  -0.637   0.787  1.00  0.00     0.054 A 
ATOM     10  C   UNL     1       7.293  -0.674  -1.903  1.00  0.00     0.051 A 
ATOM     11  C   UNL     1       7.520  -1.651   0.259  1.00  0.00     0.166 A 
ATOM     12  C   UNL     1       7.798  -1.674  -1.087  1.00  0.00     0.165 A 
ATOM     13  O   UNL     1       8.130  -2.744   0.850  1.00  0.00    -0.454 OA
ATOM     14  O   UNL     1       8.589  -2.800  -1.316  1.00  0.00    -0.454 OA
ATOM     15  C   UNL     1       8.546  -3.643  -0.189  1.00  0.00     0.468 C 
ENDBRANCH   6   7
ENDBRANCH   1   6
TORSDOF 4
ENDMDL
MODEL 4
REMARK VINA RESULT:      -7.5      1.986      2.898
REMARK SMILES O=C(O)CCc1ccc2c(c1)OCO2
REMARK SMILES IDX 4 1 2 2 1 3 3 4 5 6 6 7 7 8 11 9 8 10 10 11 9 12 12 13 14 14
REMARK SMILES IDX 13 15
REMARK H PARENT 3 5
REMARK Flexibility Score: inf
ROOT
ATOM      1  C   UNL     1       6.365   1.319   0.600  1.00  0.00     0.127 C 
ENDROOT
BRANCH   1   2
ATOM      2  C   UNL     1       5.198   1.262   1.466  1.00  0.00     0.303 C 
ATOM      3  O   UNL     1       4.231   2.024   1.417  1.00  0.00    -0.252 OA
BRANCH   2   4
ATOM      4  O   UNL     1       5.167   0.252   2.441  1.00  0.00    -0.481 OA
ATOM      5  H   UNL     1       6.042  -0.215   2.625  1.00  0.00     0.296 HD
ENDBRANCH   2   4
ENDBRANCH   1   2
BRANCH   1   6
ATOM      6  C   UNL     1       6.134   0.780  -0.757  1.00  0.00     0.047 C 
BRANCH   6   7
ATOM      7  C   UNL     1       6.929  -0.378  -1.170  1.00  0.00    -0.043 A 
ATOM      8  C   UNL     1       7.281  -0.580  -2.496  1.00  0.00     0.008 A 
ATOM      9  C   UNL     1       7.316  -1.323  -0.257  1.00  0.00     0.054 A 
ATOM     10  C   UNL     1       7.997  -1.688  -2.891  1.00  0.00     0.051 A 
ATOM     11  C   UNL     1       8.036  -2.442  -0.631  1.00  0.00     0.166 A 
ATOM     12  C   UNL     1       8.379  -2.628  -1.948  1.00  0.00     0.165 A 
ATOM     13  O   UNL     1       8.526  -3.507   0.105  1.00  0.00    -0.454 OA
ATOM     14  O   UNL     1       9.090  -3.828  -2.014  1.00  0.00    -0.454 OA
ATOM     15  C   UNL     1       8.922  -4.540  -0.810  1.00  0.00     0.468 C 
ENDBRANCH   6   7
ENDBRANCH   1   6
TORSDOF 4
ENDMDL
MODEL 5
REMARK VINA RESULT:      -7.4      1.806      5.287
REMARK SMILES O=C(O)CCc1ccc2c(c1)OCO2
REMARK SMILES IDX 4 1 2 2 1 3 3 4 5 6 6 7 7 8 11 9 8 10 10 11 9 12 12 13 14 14
REMARK SMILES IDX 13 15
REMARK H PARENT 3 5
REMARK Flexibility Score: inf
ROOT
ATOM      1  C   UNL     1       8.297  -0.333  -2.858  1.00  0.00     0.127 C 
ENDROOT
BRANCH   1   2
ATOM      2  C   UNL     1       8.473  -1.760  -3.079  1.00  0.00     0.303 C 
ATOM      3  O   UNL     1       9.547  -2.364  -3.043  1.00  0.00    -0.252 OA
BRANCH   2   4
ATOM      4  O   UNL     1       7.323  -2.517  -3.356  1.00  0.00    -0.481 OA
ATOM      5  H   UNL     1       6.497  -1.995  -3.606  1.00  0.00     0.296 HD
ENDBRANCH   2   4
ENDBRANCH   1   2
BRANCH   1   6
ATOM      6  C   UNL     1       8.756   0.130  -1.532  1.00  0.00     0.047 C 
BRANCH   6   7
ATOM      7  C   UNL     1       7.793   0.092  -0.430  1.00  0.00    -0.043 A 
ATOM      8  C   UNL     1       7.763  -0.963   0.470  1.00  0.00     0.008 A 
ATOM      9  C   UNL     1       6.862   1.084  -0.278  1.00  0.00     0.054 A 
ATOM     10  C   UNL     1       6.834  -1.019   1.485  1.00  0.00     0.051 A 
ATOM     11  C   UNL     1       5.921   1.050   0.733  1.00  0.00     0.166 A 
ATOM     12  C   UNL     1       5.904  -0.001   1.618  1.00  0.00     0.165 A 
ATOM     13  O   UNL     1       4.904   1.925   1.073  1.00  0.00    -0.454 OA
ATOM     14  O   UNL     1       4.858   0.241   2.511  1.00  0.00    -0.454 OA
ATOM     15  C   UNL     1       4.033   1.264   2.003  1.00  0.00     0.468 C 
ENDBRANCH   6   7
ENDBRANCH   1   6
TORSDOF 4
ENDMDL
