@<TRIPOS>MOLECULE
/home/cewinharhar/GITHUB/reincatalyze/data/processed/docking_pred/2023-May-17-1006_maxeplen10_maxtrainstep1000_seadep16_gamma099_lrac9e-4_lrcr1e-3_sub6/cdc825ac9d1cfd0e1f917a20457d8153cb4f8d56_ligand_6.pdbqt
 15 16 0 0 0
SMALL
GASTEIGER

@<TRIPOS>ATOM
      1  C          5.6170    2.9690   -0.0730 C.3     1  UNL1        0.1270
      2  C          6.3380    3.9270    0.7500 C.2     1  UNL1        0.3030
      3  O          7.1370    4.7690    0.3380 O.2     1  UNL1       -0.2520
      4  O          6.1050    3.8910    2.1340 O.3     1  UNL1       -0.4810
      5  H          5.1480    3.7530    2.4210 H       1  UNL1        0.2960
      6  C          4.9640    1.8880    0.6960 C.3     1  UNL1        0.0470
      7  C          5.6990    0.6320    0.8570 C.2     1  UNL1       -0.0430
      8  C          5.7840   -0.0070    2.0840 C.2     1  UNL1        0.0080
      9  C          6.3610    0.0680   -0.2020 C.2     1  UNL1        0.0540
     10  C          6.5050   -1.1690    2.2450 C.2     1  UNL1        0.0510
     11  C          7.0900   -1.0990   -0.0640 C.2     1  UNL1        0.1660
     12  C          7.1650   -1.7210    1.1580 C.2     1  UNL1        0.1650
     13  O          7.8250   -1.8350   -0.9760 O.2     1  UNL1       -0.4540
     14  O          7.9590   -2.8560    0.9860 O.2     1  UNL1       -0.4540
     15  C          8.6310   -2.7750   -0.2500 C.3     1  UNL1        0.4680
@<TRIPOS>BOND
     1    13    15    1
     2    13    11    1
     3    15    14    1
     4     9    11    1
     5     9     7    2
     6     1     6    1
     7     1     2    1
     8    11    12    2
     9     3     2    2
    10     6     7    1
    11     2     4    1
    12     7     8    1
    13    14    12    1
    14    12    10    1
    15     8    10    2
    16     4     5    1
