@<TRIPOS>MOLECULE
/home/cewinharhar/GITHUB/reincatalyze/data/processed/docking_pred/2023-May-17-1006_maxeplen10_maxtrainstep1000_seadep16_gamma099_lrac9e-4_lrcr1e-3_sub6/cdc825ac9d1cfd0e1f917a20457d8153cb4f8d56_ligand_6.pdbqt
 15 16 0 0 0
SMALL
GASTEIGER

@<TRIPOS>ATOM
      1  C          5.6940    1.4460   -0.2190 C.3     1  UNL1        0.1270
      2  C          5.1600    2.1080    0.9610 C.2     1  UNL1        0.3030
      3  O          4.2680    1.6680    1.6880 O.2     1  UNL1       -0.2520
      4  O          5.7050    3.3560    1.3020 O.3     1  UNL1       -0.4810
      5  H          5.0470    4.1070    1.4420 H       1  UNL1        0.2960
      6  C          7.1660    1.3040   -0.2130 C.3     1  UNL1        0.0470
      7  C          7.7450    0.2240   -1.0140 C.2     1  UNL1       -0.0430
      8  C          6.9980   -0.4560   -1.9630 C.2     1  UNL1        0.0080
      9  C          9.0410   -0.1740   -0.8190 C.2     1  UNL1        0.0540
     10  C          7.5310   -1.4960   -2.6920 C.2     1  UNL1        0.0510
     11  C          9.5980   -1.2140   -1.5390 C.2     1  UNL1        0.1660
     12  C          8.8450   -1.8780   -2.4780 C.2     1  UNL1        0.1650
     13  O         10.8620   -1.7780   -1.5120 O.2     1  UNL1       -0.4540
     14  O          9.6670   -2.8630   -3.0300 O.2     1  UNL1       -0.4540
     15  C         10.8150   -3.0210   -2.2290 C.3     1  UNL1        0.4680
@<TRIPOS>BOND
     1    14    12    1
     2    14    15    1
     3    10    12    2
     4    10     8    1
     5    12    11    1
     6    15    13    1
     7     8     7    2
     8    11    13    1
     9    11     9    2
    10     7     9    1
    11     7     6    1
    12     1     6    1
    13     1     2    1
    14     2     4    1
    15     2     3    2
    16     4     5    1
