@<TRIPOS>MOLECULE
/home/cewinharhar/GITHUB/reincatalyze/data/processed/docking_pred/2023-May-17-1006_maxeplen10_maxtrainstep1000_seadep16_gamma099_lrac9e-4_lrcr1e-3_sub6/cdc825ac9d1cfd0e1f917a20457d8153cb4f8d56_ligand_6.pdbqt
 15 16 0 0 0
SMALL
GASTEIGER

@<TRIPOS>ATOM
      1  C          5.6560    1.5040   -0.2460 C.3     1  UNL1        0.1270
      2  C          5.1080    2.1840    0.9180 C.2     1  UNL1        0.3030
      3  O          4.2660    1.7200    1.6890 O.2     1  UNL1       -0.2520
      4  O          5.5770    3.4790    1.1870 O.3     1  UNL1       -0.4810
      5  H          5.8690    3.6590    2.1360 H       1  UNL1        0.2960
      6  C          6.2640    0.1910    0.0580 C.3     1  UNL1        0.0470
      7  C          7.7100    0.0540   -0.1330 C.2     1  UNL1       -0.0430
      8  C          8.4230    0.9350   -0.9300 C.2     1  UNL1        0.0080
      9  C          8.3970   -0.9810    0.4450 C.2     1  UNL1        0.0540
     10  C          9.7760    0.7860   -1.1390 C.2     1  UNL1        0.0510
     11  C          9.7550   -1.1500    0.2500 C.2     1  UNL1        0.1660
     12  C         10.4490   -0.2680   -0.5420 C.2     1  UNL1        0.1650
     13  O         10.6390   -2.1020    0.7240 O.2     1  UNL1       -0.4540
     14  O         11.7780   -0.6920   -0.5490 O.2     1  UNL1       -0.4540
     15  C         11.8580   -1.9990   -0.0280 C.3     1  UNL1        0.4680
@<TRIPOS>BOND
     1    10     8    1
     2    10    12    2
     3     8     7    2
     4    14    12    1
     5    14    15    1
     6    12    11    1
     7     1     6    1
     8     1     2    1
     9     7     6    1
    10     7     9    1
    11    15    13    1
    12    11     9    2
    13    11    13    1
    14     2     4    1
    15     2     3    2
    16     4     5    1
