@<TRIPOS>MOLECULE
/home/cewinharhar/GITHUB/reincatalyze/data/processed/docking_pred/2023-May-17-1006_maxeplen10_maxtrainstep1000_seadep16_gamma099_lrac9e-4_lrcr1e-3_sub6/cdc825ac9d1cfd0e1f917a20457d8153cb4f8d56_ligand_6.pdbqt
 15 16 0 0 0
SMALL
GASTEIGER

@<TRIPOS>ATOM
      1  C          5.1420    2.4260    0.2750 C.3     1  UNL1        0.1270
      2  C          6.0970    3.3990    0.7820 C.2     1  UNL1        0.3030
      3  O          6.5230    4.3760    0.1630 O.2     1  UNL1       -0.2520
      4  O          6.5780    3.2100    2.0870 O.3     1  UNL1       -0.4810
      5  H          7.5660    3.3540    2.2230 H       1  UNL1        0.2960
      6  C          5.7040    1.5010   -0.7320 C.3     1  UNL1        0.0470
      7  C          6.8430    0.6730   -0.3300 C.2     1  UNL1       -0.0430
      8  C          6.7650   -0.1910    0.7520 C.2     1  UNL1        0.0080
      9  C          8.0380    0.7570   -0.9930 C.2     1  UNL1        0.0540
     10  C          7.8460   -0.9430    1.1540 C.2     1  UNL1        0.0510
     11  C          9.1370    0.0110   -0.6080 C.2     1  UNL1        0.1660
     12  C          9.0450   -0.8410    0.4660 C.2     1  UNL1        0.1650
     13  O         10.4200   -0.0650   -1.1190 O.2     1  UNL1       -0.4540
     14  O         10.2950   -1.4450    0.6090 O.2     1  UNL1       -0.4540
     15  C         11.2450   -0.7490   -0.1640 C.3     1  UNL1        0.4680
@<TRIPOS>BOND
     1    13    11    1
     2    13    15    1
     3     9    11    1
     4     9     7    2
     5     6     7    1
     6     6     1    1
     7    11    12    2
     8     7     8    1
     9    15    14    1
    10     3     2    2
    11     1     2    1
    12    12    14    1
    13    12    10    1
    14     8    10    2
    15     2     4    1
    16     4     5    1
