@<TRIPOS>MOLECULE
/home/cewinharhar/GITHUB/reincatalyze/data/processed/docking_pred/2023-May-17-1006_maxeplen10_maxtrainstep1000_seadep16_gamma099_lrac9e-4_lrcr1e-3_sub6/cdc825ac9d1cfd0e1f917a20457d8153cb4f8d56_ligand_6.pdbqt
 15 16 0 0 0
SMALL
GASTEIGER

@<TRIPOS>ATOM
      1  C          5.6070    1.7440    0.8140 C.3     1  UNL1        0.1270
      2  C          4.9540    0.8970    1.7990 C.2     1  UNL1        0.3030
      3  O          5.4100   -0.1510    2.2600 O.2     1  UNL1       -0.2520
      4  O          3.6960    1.3070    2.2690 O.3     1  UNL1       -0.4810
      5  H          3.6540    1.6030    3.2320 H       1  UNL1        0.2960
      6  C          5.6960    1.1390   -0.5320 C.3     1  UNL1        0.0470
      7  C          6.9390    0.4480   -0.8830 C.2     1  UNL1       -0.0430
      8  C          8.1780    1.0400   -0.6860 C.2     1  UNL1        0.0080
      9  C          6.9120   -0.7950   -1.4560 C.2     1  UNL1        0.0540
     10  C          9.3450    0.4060   -1.0490 C.2     1  UNL1        0.0510
     11  C          8.0710   -1.4500   -1.8280 C.2     1  UNL1        0.1660
     12  C          9.2910   -0.8520   -1.6260 C.2     1  UNL1        0.1650
     13  O          8.2800   -2.6870   -2.4110 O.2     1  UNL1       -0.4540
     14  O         10.2580   -1.7420   -2.0950 O.2     1  UNL1       -0.4540
     15  C          9.6400   -2.7450   -2.8680 C.3     1  UNL1        0.4680
@<TRIPOS>BOND
     1    15    13    1
     2    15    14    1
     3    13    11    1
     4    14    12    1
     5    11    12    2
     6    11     9    1
     7    12    10    1
     8     9     7    2
     9    10     8    2
    10     7     8    1
    11     7     6    1
    12     6     1    1
    13     1     2    1
    14     2     3    2
    15     2     4    1
    16     4     5    1
