@<TRIPOS>MOLECULE
/home/cewinharhar/GITHUB/reincatalyze/data/processed/docking_pred/2023-May-17-1006_maxeplen10_maxtrainstep1000_seadep16_gamma099_lrac9e-4_lrcr1e-3_sub6/cf36f354a35629e8f67fe5763b2daf9f978d0e2b_ligand_6.pdbqt
 15 16 0 0 0
SMALL
GASTEIGER

@<TRIPOS>ATOM
      1  C          8.2350   -0.2000   -2.8480 C.3     1  UNL1        0.1270
      2  C          8.4880   -1.6160   -3.0610 C.2     1  UNL1        0.3030
      3  O          9.5820   -2.1740   -2.9510 O.2     1  UNL1       -0.2520
      4  O          7.3950   -2.4190   -3.4220 O.3     1  UNL1       -0.4810
      5  H          6.6090   -2.4120   -2.7890 H       1  UNL1        0.2960
      6  C          8.6910    0.3010   -1.5340 C.3     1  UNL1        0.0470
      7  C          7.7440    0.2350   -0.4190 C.2     1  UNL1       -0.0430
      8  C          7.7800   -0.8010    0.5030 C.2     1  UNL1        0.0080
      9  C          6.7630    1.1800   -0.2760 C.2     1  UNL1        0.0540
     10  C          6.8680   -0.8830    1.5310 C.2     1  UNL1        0.0510
     11  C          5.8370    1.1180    0.7480 C.2     1  UNL1        0.1660
     12  C          5.8860    0.0860    1.6550 C.2     1  UNL1        0.1650
     13  O          4.7800    1.9450    1.0830 O.2     1  UNL1       -0.4540
     14  O          4.8400    0.2910    2.5550 O.2     1  UNL1       -0.4540
     15  C          3.9560    1.2590    2.0370 C.3     1  UNL1        0.4680
@<TRIPOS>BOND
     1     4     2    1
     2     4     5    1
     3     2     3    2
     4     2     1    1
     5     1     6    1
     6     6     7    1
     7     7     9    2
     8     7     8    1
     9     9    11    1
    10     8    10    2
    11    11    13    1
    12    11    12    2
    13    13    15    1
    14    10    12    1
    15    12    14    1
    16    15    14    1
