@<TRIPOS>MOLECULE
/home/cewinharhar/GITHUB/reincatalyze/data/processed/docking_pred/2023-May-17-1006_maxeplen10_maxtrainstep1000_seadep16_gamma099_lrac9e-4_lrcr1e-3_sub6/cf36f354a35629e8f67fe5763b2daf9f978d0e2b_ligand_6.pdbqt
 15 16 0 0 0
SMALL
GASTEIGER

@<TRIPOS>ATOM
      1  C          5.3360    2.7610    0.2580 C.3     1  UNL1        0.1270
      2  C          6.1820    3.6960    0.9820 C.2     1  UNL1        0.3030
      3  O          6.3460    3.7180    2.2040 O.2     1  UNL1       -0.2520
      4  O          6.8740    4.6570    0.2280 O.3     1  UNL1       -0.4810
      5  H          6.3940    5.0150   -0.5840 H       1  UNL1        0.2960
      6  C          5.3030    1.4040    0.8440 C.3     1  UNL1        0.0470
      7  C          6.1500    0.3800    0.2300 C.2     1  UNL1       -0.0430
      8  C          6.3880    0.3590   -1.1360 C.2     1  UNL1        0.0080
      9  C          6.7060   -0.6170    0.9880 C.2     1  UNL1        0.0540
     10  C          7.1550   -0.6240   -1.7200 C.2     1  UNL1        0.0510
     11  C          7.4800   -1.6130    0.4240 C.2     1  UNL1        0.1660
     12  C          7.7080   -1.6210   -0.9310 C.2     1  UNL1        0.1650
     13  O          8.1300   -2.6990    0.9840 O.2     1  UNL1       -0.4540
     14  O          8.5100   -2.7310   -1.1980 O.2     1  UNL1       -0.4540
     15  C          8.5230   -3.5830   -0.0770 C.3     1  UNL1        0.4680
@<TRIPOS>BOND
     1    10     8    1
     2    10    12    2
     3    14    12    1
     4    14    15    1
     5     8     7    2
     6    12    11    1
     7     5     4    1
     8    15    13    1
     9     4     2    1
    10     7     6    1
    11     7     9    1
    12     1     6    1
    13     1     2    1
    14    11    13    1
    15    11     9    2
    16     2     3    2
