@<TRIPOS>MOLECULE
/home/cewinharhar/GITHUB/reincatalyze/data/processed/docking_pred/2023-May-17-1006_maxeplen10_maxtrainstep1000_seadep16_gamma099_lrac9e-4_lrcr1e-3_sub6/cf36f354a35629e8f67fe5763b2daf9f978d0e2b_ligand_6.pdbqt
 15 16 0 0 0
SMALL
GASTEIGER

@<TRIPOS>ATOM
      1  C          5.4170    2.8610    0.0800 C.3     1  UNL1        0.1270
      2  C          6.2310    3.8310    0.7960 C.2     1  UNL1        0.3030
      3  O          6.8390    4.7730    0.2850 O.2     1  UNL1       -0.2520
      4  O          6.3320    3.6850    2.1880 O.3     1  UNL1       -0.4810
      5  H          7.0580    3.0680    2.5190 H       1  UNL1        0.2960
      6  C          5.3180    1.5480    0.7540 C.3     1  UNL1        0.0470
      7  C          6.1030    0.4420    0.2010 C.2     1  UNL1       -0.0430
      8  C          6.5450   -0.6020    0.9990 C.2     1  UNL1        0.0080
      9  C          6.4590    0.4280   -1.1220 C.2     1  UNL1        0.0540
     10  C          7.3140   -1.6240    0.4880 C.2     1  UNL1        0.0510
     11  C          7.2290   -0.5870   -1.6560 C.2     1  UNL1        0.1660
     12  C          7.6590   -1.6160   -0.8540 C.2     1  UNL1        0.1650
     13  O          7.7000   -0.8050   -2.9390 O.2     1  UNL1       -0.4540
     14  O          8.4050   -2.4740   -1.6640 O.2     1  UNL1       -0.4540
     15  C          8.7030   -1.8310   -2.8820 C.3     1  UNL1        0.4680
@<TRIPOS>BOND
     1    13    15    1
     2    13    11    1
     3    15    14    1
     4    14    12    1
     5    11     9    1
     6    11    12    2
     7     9     7    2
     8    12    10    1
     9     1     6    1
    10     1     2    1
    11     7     6    1
    12     7     8    1
    13     3     2    2
    14    10     8    2
    15     2     4    1
    16     4     5    1
