@<TRIPOS>MOLECULE
/home/cewinharhar/GITHUB/reincatalyze/data/processed/docking_pred/2023-May-17-1006_maxeplen10_maxtrainstep1000_seadep16_gamma099_lrac9e-4_lrcr1e-3_sub6/cf36f354a35629e8f67fe5763b2daf9f978d0e2b_ligand_6.pdbqt
 15 16 0 0 0
SMALL
GASTEIGER

@<TRIPOS>ATOM
      1  C          6.4290    1.2850    0.7270 C.3     1  UNL1        0.1270
      2  C          5.2560    1.1500    1.5760 C.2     1  UNL1        0.3030
      3  O          5.0920    0.2880    2.4410 O.2     1  UNL1       -0.2520
      4  O          4.2200    2.0800    1.3960 O.3     1  UNL1       -0.4810
      5  H          3.3110    1.6990    1.1830 H       1  UNL1        0.2960
      6  C          6.2240    0.8170   -0.6600 C.3     1  UNL1        0.0470
      7  C          6.9740   -0.3620   -1.0950 C.2     1  UNL1       -0.0430
      8  C          7.2570   -0.5880   -2.4340 C.2     1  UNL1        0.0080
      9  C          7.3880   -1.3030   -0.1890 C.2     1  UNL1        0.0540
     10  C          7.9320   -1.7150   -2.8480 C.2     1  UNL1        0.0510
     11  C          8.0660   -2.4410   -0.5820 C.2     1  UNL1        0.1660
     12  C          8.3410   -2.6510   -1.9120 C.2     1  UNL1        0.1650
     13  O          8.5710   -3.5060    0.1440 O.2     1  UNL1       -0.4540
     14  O          9.0240   -3.8650   -1.9950 O.2     1  UNL1       -0.4540
     15  C          8.9020   -4.5590   -0.7740 C.3     1  UNL1        0.4680
@<TRIPOS>BOND
     1    10     8    1
     2    10    12    2
     3     8     7    2
     4    14    12    1
     5    14    15    1
     6    12    11    1
     7     7     6    1
     8     7     9    1
     9    15    13    1
    10     6     1    1
    11    11     9    2
    12    11    13    1
    13     1     2    1
    14     5     4    1
    15     4     2    1
    16     2     3    2
