MODEL 1
REMARK VINA RESULT:      -7.7      0.000      0.000
REMARK SMILES O=C(O)CCc1ccc2c(c1)OCO2
REMARK SMILES IDX 4 1 2 2 1 3 3 4 5 6 6 7 7 8 11 9 8 10 10 11 9 12 12 13 14 14
REMARK SMILES IDX 13 15
REMARK H PARENT 3 5
REMARK Flexibility Score: inf
ROOT
ATOM      1  C   UNL     1       5.417   2.861   0.080  1.00  0.00     0.127 C 
ENDROOT
BRANCH   1   2
ATOM      2  C   UNL     1       6.231   3.831   0.796  1.00  0.00     0.303 C 
ATOM      3  O   UNL     1       6.839   4.773   0.285  1.00  0.00    -0.252 OA
BRANCH   2   4
ATOM      4  O   UNL     1       6.332   3.685   2.188  1.00  0.00    -0.481 OA
ATOM      5  H   UNL     1       7.058   3.068   2.519  1.00  0.00     0.296 HD
ENDBRANCH   2   4
ENDBRANCH   1   2
BRANCH   1   6
ATOM      6  C   UNL     1       5.318   1.548   0.754  1.00  0.00     0.047 C 
BRANCH   6   7
ATOM      7  C   UNL     1       6.103   0.442   0.201  1.00  0.00    -0.043 A 
ATOM      8  C   UNL     1       6.545  -0.602   0.999  1.00  0.00     0.008 A 
ATOM      9  C   UNL     1       6.459   0.428  -1.122  1.00  0.00     0.054 A 
ATOM     10  C   UNL     1       7.314  -1.624   0.488  1.00  0.00     0.051 A 
ATOM     11  C   UNL     1       7.229  -0.587  -1.656  1.00  0.00     0.166 A 
ATOM     12  C   UNL     1       7.659  -1.616  -0.854  1.00  0.00     0.165 A 
ATOM     13  O   UNL     1       7.700  -0.805  -2.939  1.00  0.00    -0.454 OA
ATOM     14  O   UNL     1       8.405  -2.474  -1.664  1.00  0.00    -0.454 OA
ATOM     15  C   UNL     1       8.703  -1.831  -2.882  1.00  0.00     0.468 C 
ENDBRANCH   6   7
ENDBRANCH   1   6
TORSDOF 4
ENDMDL
MODEL 2
REMARK VINA RESULT:      -7.6      2.111      2.518
REMARK SMILES O=C(O)CCc1ccc2c(c1)OCO2
REMARK SMILES IDX 4 1 2 2 1 3 3 4 5 6 6 7 7 8 11 9 8 10 10 11 9 12 12 13 14 14
REMARK SMILES IDX 13 15
REMARK H PARENT 3 5
REMARK Flexibility Score: inf
ROOT
ATOM      1  C   UNL     1       4.695   1.860   0.680  1.00  0.00     0.127 C 
ENDROOT
BRANCH   1   2
ATOM      2  C   UNL     1       4.394   1.160   1.919  1.00  0.00     0.303 C 
ATOM      3  O   UNL     1       5.122   0.333   2.472  1.00  0.00    -0.252 OA
BRANCH   2   4
ATOM      4  O   UNL     1       3.169   1.449   2.541  1.00  0.00    -0.481 OA
ATOM      5  H   UNL     1       3.109   1.241   3.526  1.00  0.00     0.296 HD
ENDBRANCH   2   4
ENDBRANCH   1   2
BRANCH   1   6
ATOM      6  C   UNL     1       6.119   2.231   0.532  1.00  0.00     0.047 C 
BRANCH   6   7
ATOM      7  C   UNL     1       6.977   1.327  -0.237  1.00  0.00    -0.043 A 
ATOM      8  C   UNL     1       8.336   1.564  -0.380  1.00  0.00     0.008 A 
ATOM      9  C   UNL     1       6.451   0.235  -0.875  1.00  0.00     0.054 A 
ATOM     10  C   UNL     1       9.137   0.736  -1.133  1.00  0.00     0.051 A 
ATOM     11  C   UNL     1       7.237  -0.611  -1.635  1.00  0.00     0.166 A 
ATOM     12  C   UNL     1       8.582  -0.364  -1.766  1.00  0.00     0.165 A 
ATOM     13  O   UNL     1       6.928  -1.752  -2.354  1.00  0.00    -0.454 OA
ATOM     14  O   UNL     1       9.099  -1.373  -2.580  1.00  0.00    -0.454 OA
ATOM     15  C   UNL     1       8.041  -2.061  -3.207  1.00  0.00     0.468 C 
ENDBRANCH   6   7
ENDBRANCH   1   6
TORSDOF 4
ENDMDL
MODEL 3
REMARK VINA RESULT:      -7.5      1.980      2.964
REMARK SMILES O=C(O)CCc1ccc2c(c1)OCO2
REMARK SMILES IDX 4 1 2 2 1 3 3 4 5 6 6 7 7 8 11 9 8 10 10 11 9 12 12 13 14 14
REMARK SMILES IDX 13 15
REMARK H PARENT 3 5
REMARK Flexibility Score: inf
ROOT
ATOM      1  C   UNL     1       6.429   1.285   0.727  1.00  0.00     0.127 C 
ENDROOT
BRANCH   1   2
ATOM      2  C   UNL     1       5.256   1.150   1.576  1.00  0.00     0.303 C 
ATOM      3  O   UNL     1       5.092   0.288   2.441  1.00  0.00    -0.252 OA
BRANCH   2   4
ATOM      4  O   UNL     1       4.220   2.080   1.396  1.00  0.00    -0.481 OA
ATOM      5  H   UNL     1       3.311   1.699   1.183  1.00  0.00     0.296 HD
ENDBRANCH   2   4
ENDBRANCH   1   2
BRANCH   1   6
ATOM      6  C   UNL     1       6.224   0.817  -0.660  1.00  0.00     0.047 C 
BRANCH   6   7
ATOM      7  C   UNL     1       6.974  -0.362  -1.095  1.00  0.00    -0.043 A 
ATOM      8  C   UNL     1       7.257  -0.588  -2.434  1.00  0.00     0.008 A 
ATOM      9  C   UNL     1       7.388  -1.303  -0.189  1.00  0.00     0.054 A 
ATOM     10  C   UNL     1       7.932  -1.715  -2.848  1.00  0.00     0.051 A 
ATOM     11  C   UNL     1       8.066  -2.441  -0.582  1.00  0.00     0.166 A 
ATOM     12  C   UNL     1       8.341  -2.651  -1.912  1.00  0.00     0.165 A 
ATOM     13  O   UNL     1       8.571  -3.506   0.144  1.00  0.00    -0.454 OA
ATOM     14  O   UNL     1       9.024  -3.865  -1.995  1.00  0.00    -0.454 OA
ATOM     15  C   UNL     1       8.902  -4.559  -0.774  1.00  0.00     0.468 C 
ENDBRANCH   6   7
ENDBRANCH   1   6
TORSDOF 4
ENDMDL
MODEL 4
REMARK VINA RESULT:      -7.5      1.811      5.262
REMARK SMILES O=C(O)CCc1ccc2c(c1)OCO2
REMARK SMILES IDX 4 1 2 2 1 3 3 4 5 6 6 7 7 8 11 9 8 10 10 11 9 12 12 13 14 14
REMARK SMILES IDX 13 15
REMARK H PARENT 3 5
REMARK Flexibility Score: inf
ROOT
ATOM      1  C   UNL     1       8.235  -0.200  -2.848  1.00  0.00     0.127 C 
ENDROOT
BRANCH   1   2
ATOM      2  C   UNL     1       8.488  -1.616  -3.061  1.00  0.00     0.303 C 
ATOM      3  O   UNL     1       9.582  -2.174  -2.951  1.00  0.00    -0.252 OA
BRANCH   2   4
ATOM      4  O   UNL     1       7.395  -2.419  -3.422  1.00  0.00    -0.481 OA
ATOM      5  H   UNL     1       6.609  -2.412  -2.789  1.00  0.00     0.296 HD
ENDBRANCH   2   4
ENDBRANCH   1   2
BRANCH   1   6
ATOM      6  C   UNL     1       8.691   0.301  -1.534  1.00  0.00     0.047 C 
BRANCH   6   7
ATOM      7  C   UNL     1       7.744   0.235  -0.419  1.00  0.00    -0.043 A 
ATOM      8  C   UNL     1       7.780  -0.801   0.503  1.00  0.00     0.008 A 
ATOM      9  C   UNL     1       6.763   1.180  -0.276  1.00  0.00     0.054 A 
ATOM     10  C   UNL     1       6.868  -0.883   1.531  1.00  0.00     0.051 A 
ATOM     11  C   UNL     1       5.837   1.118   0.748  1.00  0.00     0.166 A 
ATOM     12  C   UNL     1       5.886   0.086   1.655  1.00  0.00     0.165 A 
ATOM     13  O   UNL     1       4.780   1.945   1.083  1.00  0.00    -0.454 OA
ATOM     14  O   UNL     1       4.840   0.291   2.555  1.00  0.00    -0.454 OA
ATOM     15  C   UNL     1       3.956   1.259   2.037  1.00  0.00     0.468 C 
ENDBRANCH   6   7
ENDBRANCH   1   6
TORSDOF 4
ENDMDL
MODEL 5
REMARK VINA RESULT:      -7.4      0.960      2.124
REMARK SMILES O=C(O)CCc1ccc2c(c1)OCO2
REMARK SMILES IDX 4 1 2 2 1 3 3 4 5 6 6 7 7 8 11 9 8 10 10 11 9 12 12 13 14 14
REMARK SMILES IDX 13 15
REMARK H PARENT 3 5
REMARK Flexibility Score: inf
ROOT
ATOM      1  C   UNL     1       5.336   2.761   0.258  1.00  0.00     0.127 C 
ENDROOT
BRANCH   1   2
ATOM      2  C   UNL     1       6.182   3.696   0.982  1.00  0.00     0.303 C 
ATOM      3  O   UNL     1       6.346   3.718   2.204  1.00  0.00    -0.252 OA
BRANCH   2   4
ATOM      4  O   UNL     1       6.874   4.657   0.228  1.00  0.00    -0.481 OA
ATOM      5  H   UNL     1       6.394   5.015  -0.584  1.00  0.00     0.296 HD
ENDBRANCH   2   4
ENDBRANCH   1   2
BRANCH   1   6
ATOM      6  C   UNL     1       5.303   1.404   0.844  1.00  0.00     0.047 C 
BRANCH   6   7
ATOM      7  C   UNL     1       6.150   0.380   0.230  1.00  0.00    -0.043 A 
ATOM      8  C   UNL     1       6.388   0.359  -1.136  1.00  0.00     0.008 A 
ATOM      9  C   UNL     1       6.706  -0.617   0.988  1.00  0.00     0.054 A 
ATOM     10  C   UNL     1       7.155  -0.624  -1.720  1.00  0.00     0.051 A 
ATOM     11  C   UNL     1       7.480  -1.613   0.424  1.00  0.00     0.166 A 
ATOM     12  C   UNL     1       7.708  -1.621  -0.931  1.00  0.00     0.165 A 
ATOM     13  O   UNL     1       8.130  -2.699   0.984  1.00  0.00    -0.454 OA
ATOM     14  O   UNL     1       8.510  -2.731  -1.198  1.00  0.00    -0.454 OA
ATOM     15  C   UNL     1       8.523  -3.583  -0.077  1.00  0.00     0.468 C 
ENDBRANCH   6   7
ENDBRANCH   1   6
TORSDOF 4
ENDMDL
