@<TRIPOS>MOLECULE
/home/cewinharhar/GITHUB/reincatalyze/data/processed/docking_pred/2023-May-17-1006_maxeplen10_maxtrainstep1000_seadep16_gamma099_lrac9e-4_lrcr1e-3_sub6/d0b377ce7413ba2d0a06352180e6db5bf746794c_ligand_6.pdbqt
 15 16 0 0 0
SMALL
GASTEIGER

@<TRIPOS>ATOM
      1  C          5.4170    2.8720    0.1130 C.3     1  UNL1        0.1270
      2  C          6.2480    3.8610    0.7810 C.2     1  UNL1        0.3030
      3  O          6.9020    4.7430    0.2220 O.2     1  UNL1       -0.2520
      4  O          6.3110    3.8100    2.1820 O.3     1  UNL1       -0.4810
      5  H          7.1330    4.2130    2.6060 H       1  UNL1        0.2960
      6  C          5.3650    1.5660    0.8050 C.3     1  UNL1        0.0470
      7  C          6.1370    0.4630    0.2280 C.2     1  UNL1       -0.0430
      8  C          6.5800   -0.5950    1.0060 C.2     1  UNL1        0.0080
      9  C          6.4790    0.4660   -1.0980 C.2     1  UNL1        0.0540
     10  C          7.3370   -1.6150    0.4730 C.2     1  UNL1        0.0510
     11  C          7.2370   -0.5470   -1.6550 C.2     1  UNL1        0.1660
     12  C          7.6680   -1.5900   -0.8720 C.2     1  UNL1        0.1650
     13  O          7.6930   -0.7490   -2.9460 O.2     1  UNL1       -0.4540
     14  O          8.3990   -2.4410   -1.7030 O.2     1  UNL1       -0.4540
     15  C          8.6890   -1.7820   -2.9140 C.3     1  UNL1        0.4680
@<TRIPOS>BOND
     1    13    15    1
     2    13    11    1
     3    15    14    1
     4    14    12    1
     5    11     9    1
     6    11    12    2
     7     9     7    2
     8    12    10    1
     9     1     2    1
    10     1     6    1
    11     3     2    2
    12     7     6    1
    13     7     8    1
    14    10     8    2
    15     2     4    1
    16     4     5    1
