@<TRIPOS>MOLECULE
/home/cewinharhar/GITHUB/reincatalyze/data/processed/docking_pred/2023-May-17-1006_maxeplen10_maxtrainstep1000_seadep16_gamma099_lrac9e-4_lrcr1e-3_sub6/d0b377ce7413ba2d0a06352180e6db5bf746794c_ligand_6.pdbqt
 15 16 0 0 0
SMALL
GASTEIGER

@<TRIPOS>ATOM
      1  C          5.5190    2.7280   -0.0200 C.3     1  UNL1        0.1270
      2  C          6.1670    3.7100    0.8350 C.2     1  UNL1        0.3030
      3  O          6.1380    3.7180    2.0670 O.2     1  UNL1       -0.2520
      4  O          6.8890    4.7360    0.2060 O.3     1  UNL1       -0.4810
      5  H          6.4050    5.2380   -0.5230 H       1  UNL1        0.2960
      6  C          5.4190    1.3810    0.5810 C.3     1  UNL1        0.0470
      7  C          6.2520    0.3210    0.0100 C.2     1  UNL1       -0.0430
      8  C          6.4880    0.2400   -1.3540 C.2     1  UNL1        0.0080
      9  C          6.7940   -0.6510    0.8090 C.2     1  UNL1        0.0540
     10  C          7.2420   -0.7770   -1.8960 C.2     1  UNL1        0.0510
     11  C          7.5540   -1.6810    0.2870 C.2     1  UNL1        0.1660
     12  C          7.7800   -1.7470   -1.0670 C.2     1  UNL1        0.1650
     13  O          8.1890   -2.7520    0.8910 O.2     1  UNL1       -0.4540
     14  O          8.5670   -2.8790   -1.2880 O.2     1  UNL1       -0.4540
     15  C          8.5690   -3.6840   -0.1320 C.3     1  UNL1        0.4680
@<TRIPOS>BOND
     1    10     8    1
     2    10    12    2
     3     8     7    2
     4    14    12    1
     5    14    15    1
     6    12    11    1
     7     5     4    1
     8    15    13    1
     9     1     6    1
    10     1     2    1
    11     7     6    1
    12     7     9    1
    13     4     2    1
    14    11     9    2
    15    11    13    1
    16     2     3    2
