@<TRIPOS>MOLECULE
/home/cewinharhar/GITHUB/reincatalyze/data/processed/docking_pred/2023-May-17-1006_maxeplen10_maxtrainstep1000_seadep16_gamma099_lrac9e-4_lrcr1e-3_sub6/d0b377ce7413ba2d0a06352180e6db5bf746794c_ligand_6.pdbqt
 15 16 0 0 0
SMALL
GASTEIGER

@<TRIPOS>ATOM
      1  C          4.6860    1.8600    0.6810 C.3     1  UNL1        0.1270
      2  C          4.4030    1.1450    1.9160 C.2     1  UNL1        0.3030
      3  O          5.1430    0.3190    2.4520 O.2     1  UNL1       -0.2520
      4  O          3.1830    1.4190    2.5540 O.3     1  UNL1       -0.4810
      5  H          2.6030    2.1230    2.1220 H       1  UNL1        0.2960
      6  C          6.1070    2.2360    0.5180 C.3     1  UNL1        0.0470
      7  C          6.9650    1.3240   -0.2420 C.2     1  UNL1       -0.0430
      8  C          8.3320    1.5330   -0.3460 C.2     1  UNL1        0.0080
      9  C          6.4320    0.2530   -0.9080 C.2     1  UNL1        0.0540
     10  C          9.1350    0.6980   -1.0900 C.2     1  UNL1        0.0510
     11  C          7.2190   -0.5990   -1.6600 C.2     1  UNL1        0.1660
     12  C          8.5720   -0.3800   -1.7540 C.2     1  UNL1        0.1650
     13  O          6.9040   -1.7240   -2.4040 O.2     1  UNL1       -0.4540
     14  O          9.0880   -1.3890   -2.5680 O.2     1  UNL1       -0.4540
     15  C          8.0320   -2.0450   -3.2320 C.3     1  UNL1        0.4680
@<TRIPOS>BOND
     1    15    14    1
     2    15    13    1
     3    14    12    1
     4    13    11    1
     5    12    11    2
     6    12    10    1
     7    11     9    1
     8    10     8    2
     9     9     7    2
    10     8     7    1
    11     7     6    1
    12     6     1    1
    13     1     2    1
    14     2     3    2
    15     2     4    1
    16     5     4    1
