@<TRIPOS>MOLECULE
/home/cewinharhar/GITHUB/reincatalyze/data/processed/docking_pred/2023-May-17-1006_maxeplen10_maxtrainstep1000_seadep16_gamma099_lrac9e-4_lrcr1e-3_sub6/d0b377ce7413ba2d0a06352180e6db5bf746794c_ligand_6.pdbqt
 15 16 0 0 0
SMALL
GASTEIGER

@<TRIPOS>ATOM
      1  C          8.3040   -0.3190   -2.8470 C.3     1  UNL1        0.1270
      2  C          8.4650   -1.7470   -3.0680 C.2     1  UNL1        0.3030
      3  O          9.5330   -2.3620   -3.0300 O.2     1  UNL1       -0.2520
      4  O          7.3090   -2.4910   -3.3480 O.3     1  UNL1       -0.4810
      5  H          7.0180   -3.1460   -2.6380 H       1  UNL1        0.2960
      6  C          8.7600    0.1390   -1.5170 C.3     1  UNL1        0.0470
      7  C          7.7930    0.0990   -0.4190 C.2     1  UNL1       -0.0430
      8  C          7.7490   -0.9630    0.4710 C.2     1  UNL1        0.0080
      9  C          6.8710    1.1000   -0.2610 C.2     1  UNL1        0.0540
     10  C          6.8170   -1.0190    1.4830 C.2     1  UNL1        0.0510
     11  C          5.9260    1.0650    0.7470 C.2     1  UNL1        0.1660
     12  C          5.8960    0.0070    1.6220 C.2     1  UNL1        0.1650
     13  O          4.9160    1.9470    1.0910 O.2     1  UNL1       -0.4540
     14  O          4.8490    0.2500    2.5130 O.2     1  UNL1       -0.4540
     15  C          4.0360    1.2860    2.0120 C.3     1  UNL1        0.4680
@<TRIPOS>BOND
     1     4     2    1
     2     4     5    1
     3     2     3    2
     4     2     1    1
     5     1     6    1
     6     6     7    1
     7     7     9    2
     8     7     8    1
     9     9    11    1
    10     8    10    2
    11    11    13    1
    12    11    12    2
    13    13    15    1
    14    10    12    1
    15    12    14    1
    16    15    14    1
