@<TRIPOS>MOLECULE
/home/cewinharhar/GITHUB/reincatalyze/data/processed/docking_pred/2023-May-17-1006_maxeplen10_maxtrainstep1000_seadep16_gamma099_lrac9e-4_lrcr1e-3_sub6/d0b377ce7413ba2d0a06352180e6db5bf746794c_ligand_6.pdbqt
 15 16 0 0 0
SMALL
GASTEIGER

@<TRIPOS>ATOM
      1  C          6.4780    1.2320    0.8390 C.3     1  UNL1        0.1270
      2  C          5.2240    1.1780    1.5750 C.2     1  UNL1        0.3030
      3  O          4.9300    0.3410    2.4300 O.2     1  UNL1       -0.2520
      4  O          4.2670    2.1640    1.2890 O.3     1  UNL1       -0.4810
      5  H          4.4660    3.0910    1.6310 H       1  UNL1        0.2960
      6  C          6.3480    0.8860   -0.5930 C.3     1  UNL1        0.0470
      7  C          7.0550   -0.3060   -1.0680 C.2     1  UNL1       -0.0430
      8  C          7.2820   -0.5230   -2.4180 C.2     1  UNL1        0.0080
      9  C          7.4810   -1.2650   -0.1880 C.2     1  UNL1        0.0540
     10  C          7.9150   -1.6600   -2.8690 C.2     1  UNL1        0.0510
     11  C          8.1180   -2.4140   -0.6180 C.2     1  UNL1        0.1660
     12  C          8.3370   -2.6150   -1.9590 C.2     1  UNL1        0.1650
     13  O          8.6260   -3.4970    0.0770 O.2     1  UNL1       -0.4540
     14  O          8.9890   -3.8430   -2.0810 O.2     1  UNL1       -0.4540
     15  C          8.8980   -4.5470   -0.8640 C.3     1  UNL1        0.4680
@<TRIPOS>BOND
     1    10     8    1
     2    10    12    2
     3     8     7    2
     4    14    12    1
     5    14    15    1
     6    12    11    1
     7     7     6    1
     8     7     9    1
     9    15    13    1
    10    11     9    2
    11    11    13    1
    12     6     1    1
    13     1     2    1
    14     4     2    1
    15     4     5    1
    16     2     3    2
