@<TRIPOS>MOLECULE
/home/cewinharhar/GITHUB/reincatalyze/data/processed/docking_pred/2023-May-17-1006_maxeplen10_maxtrainstep1000_seadep16_gamma099_lrac9e-4_lrcr1e-3_sub6/d17de8b65df071edc80e577bc10846f04a34e0dd_ligand_6.pdbqt
 15 16 0 0 0
SMALL
GASTEIGER

@<TRIPOS>ATOM
      1  C          5.9710    2.6620   -0.2900 C.3     1  UNL1        0.1270
      2  C          6.5240    3.6420    0.6310 C.2     1  UNL1        0.3030
      3  O          6.9120    4.7720    0.3280 O.2     1  UNL1       -0.2520
      4  O          6.6260    3.2720    1.9810 O.3     1  UNL1       -0.4810
      5  H          6.1670    2.4130    2.2430 H       1  UNL1        0.2960
      6  C          5.6740    1.3540    0.3320 C.3     1  UNL1        0.0470
      7  C          6.4400    0.1950   -0.1310 C.2     1  UNL1       -0.0430
      8  C          6.8510   -0.7990    0.7450 C.2     1  UNL1        0.0080
      9  C          6.8070    0.0780   -1.4450 C.2     1  UNL1        0.0540
     10  C          7.6020   -1.8710    0.3170 C.2     1  UNL1        0.0510
     11  C          7.5600   -0.9900   -1.8970 C.2     1  UNL1        0.1660
     12  C          7.9600   -1.9670   -1.0180 C.2     1  UNL1        0.1650
     13  O          8.0380   -1.3090   -3.1550 O.2     1  UNL1       -0.4540
     14  O          8.6940   -2.8970   -1.7560 O.2     1  UNL1       -0.4540
     15  C          9.0170   -2.3500   -3.0130 C.3     1  UNL1        0.4680
@<TRIPOS>BOND
     1    13    15    1
     2    13    11    1
     3    15    14    1
     4    11     9    1
     5    11    12    2
     6    14    12    1
     7     9     7    2
     8    12    10    1
     9     1     6    1
    10     1     2    1
    11     7     6    1
    12     7     8    1
    13    10     8    2
    14     3     2    2
    15     2     4    1
    16     4     5    1
