@<TRIPOS>MOLECULE
/home/cewinharhar/GITHUB/reincatalyze/data/processed/docking_pred/2023-May-17-1006_maxeplen10_maxtrainstep1000_seadep16_gamma099_lrac9e-4_lrcr1e-3_sub6/d17de8b65df071edc80e577bc10846f04a34e0dd_ligand_6.pdbqt
 15 16 0 0 0
SMALL
GASTEIGER

@<TRIPOS>ATOM
      1  C          5.1780    0.3360    1.8220 C.3     1  UNL1        0.1270
      2  C          6.2890   -0.4470    2.3410 C.2     1  UNL1        0.3030
      3  O          7.3040    0.0100    2.8690 O.2     1  UNL1       -0.2520
      4  O          6.1990   -1.8440    2.2320 O.3     1  UNL1       -0.4810
      5  H          5.8770   -2.2010    1.3450 H       1  UNL1        0.2960
      6  C          5.4730    1.0240    0.5480 C.3     1  UNL1        0.0470
      7  C          6.6070    0.5350   -0.2400 C.2     1  UNL1       -0.0430
      8  C          7.7660    1.2820   -0.3830 C.2     1  UNL1        0.0080
      9  C          6.5390   -0.6660   -0.8950 C.2     1  UNL1        0.0540
     10  C          8.8190    0.8400   -1.1520 C.2     1  UNL1        0.0510
     11  C          7.5830   -1.1300   -1.6720 C.2     1  UNL1        0.1660
     12  C          8.7260   -0.3800   -1.8030 C.2     1  UNL1        0.1650
     13  O          7.7330   -2.2910   -2.4100 O.2     1  UNL1       -0.4540
     14  O          9.5860   -1.0980   -2.6360 O.2     1  UNL1       -0.4540
     15  C          8.8700   -2.1320   -3.2710 C.3     1  UNL1        0.4680
@<TRIPOS>BOND
     1    15    14    1
     2    15    13    1
     3    14    12    1
     4    13    11    1
     5    12    11    2
     6    12    10    1
     7    11     9    1
     8    10     8    2
     9     9     7    2
    10     8     7    1
    11     7     6    1
    12     6     1    1
    13     5     4    1
    14     1     2    1
    15     4     2    1
    16     2     3    2
