MODEL 1
REMARK VINA RESULT:      -7.3      0.000      0.000
REMARK SMILES O=C(O)CCc1ccc2c(c1)OCO2
REMARK SMILES IDX 4 1 2 2 1 3 3 4 5 6 6 7 7 8 11 9 8 10 10 11 9 12 12 13 14 14
REMARK SMILES IDX 13 15
REMARK H PARENT 3 5
REMARK Flexibility Score: inf
ROOT
ATOM      1  C   UNL     1       5.405   1.023   0.563  1.00  0.00     0.127 C 
ENDROOT
BRANCH   1   2
ATOM      2  C   UNL     1       5.078   0.555   1.900  1.00  0.00     0.303 C 
ATOM      3  O   UNL     1       5.772  -0.196   2.588  1.00  0.00    -0.252 OA
BRANCH   2   4
ATOM      4  O   UNL     1       3.867   0.994   2.458  1.00  0.00    -0.481 OA
ATOM      5  H   UNL     1       3.063   0.405   2.298  1.00  0.00     0.296 HD
ENDBRANCH   2   4
ENDBRANCH   1   2
BRANCH   1   6
ATOM      6  C   UNL     1       6.847   0.960   0.241  1.00  0.00     0.047 C 
BRANCH   6   7
ATOM      7  C   UNL     1       7.327  -0.216  -0.489  1.00  0.00    -0.043 A 
ATOM      8  C   UNL     1       7.224  -0.304  -1.868  1.00  0.00     0.008 A 
ATOM      9  C   UNL     1       7.860  -1.286   0.180  1.00  0.00     0.054 A 
ATOM     10  C   UNL     1       7.642  -1.424  -2.552  1.00  0.00     0.051 A 
ATOM     11  C   UNL     1       8.286  -2.420  -0.485  1.00  0.00     0.166 A 
ATOM     12  C   UNL     1       8.179  -2.493  -1.853  1.00  0.00     0.165 A 
ATOM     13  O   UNL     1       8.846  -3.599  -0.026  1.00  0.00    -0.454 OA
ATOM     14  O   UNL     1       8.683  -3.738  -2.231  1.00  0.00    -0.454 OA
ATOM     15  C   UNL     1       8.811  -4.559  -1.093  1.00  0.00     0.468 C 
ENDBRANCH   6   7
ENDBRANCH   1   6
TORSDOF 4
ENDMDL
MODEL 2
REMARK VINA RESULT:      -7.1      1.768      5.266
REMARK SMILES O=C(O)CCc1ccc2c(c1)OCO2
REMARK SMILES IDX 4 1 2 2 1 3 3 4 5 6 6 7 7 8 11 9 8 10 10 11 9 12 12 13 14 14
REMARK SMILES IDX 13 15
REMARK H PARENT 3 5
REMARK Flexibility Score: inf
ROOT
ATOM      1  C   UNL     1       8.409  -0.309  -3.165  1.00  0.00     0.127 C 
ENDROOT
BRANCH   1   2
ATOM      2  C   UNL     1       8.503  -1.760  -3.196  1.00  0.00     0.303 C 
ATOM      3  O   UNL     1       9.540  -2.413  -3.070  1.00  0.00    -0.252 OA
BRANCH   2   4
ATOM      4  O   UNL     1       7.313  -2.479  -3.386  1.00  0.00    -0.481 OA
ATOM      5  H   UNL     1       7.127  -3.215  -2.722  1.00  0.00     0.296 HD
ENDBRANCH   2   4
ENDBRANCH   1   2
BRANCH   1   6
ATOM      6  C   UNL     1       8.956   0.302  -1.935  1.00  0.00     0.047 C 
BRANCH   6   7
ATOM      7  C   UNL     1       8.188   0.143  -0.699  1.00  0.00    -0.043 A 
ATOM      8  C   UNL     1       8.611  -0.704   0.314  1.00  0.00     0.008 A 
ATOM      9  C   UNL     1       6.999   0.801  -0.524  1.00  0.00     0.054 A 
ATOM     10  C   UNL     1       7.871  -0.883   1.461  1.00  0.00     0.051 A 
ATOM     11  C   UNL     1       6.240   0.637   0.619  1.00  0.00     0.166 A 
ATOM     12  C   UNL     1       6.673  -0.204   1.615  1.00  0.00     0.165 A 
ATOM     13  O   UNL     1       5.031   1.189   1.006  1.00  0.00    -0.454 OA
ATOM     14  O   UNL     1       5.710  -0.163   2.625  1.00  0.00    -0.454 OA
ATOM     15  C   UNL     1       4.539   0.449   2.134  1.00  0.00     0.468 C 
ENDBRANCH   6   7
ENDBRANCH   1   6
TORSDOF 4
ENDMDL
MODEL 3
REMARK VINA RESULT:      -6.8      1.728      5.079
REMARK SMILES O=C(O)CCc1ccc2c(c1)OCO2
REMARK SMILES IDX 4 1 2 2 1 3 3 4 5 6 6 7 7 8 11 9 8 10 10 11 9 12 12 13 14 14
REMARK SMILES IDX 13 15
REMARK H PARENT 3 5
REMARK Flexibility Score: inf
ROOT
ATOM      1  C   UNL     1       8.739  -0.607  -2.812  1.00  0.00     0.127 C 
ENDROOT
BRANCH   1   2
ATOM      2  C   UNL     1       8.672  -2.030  -3.108  1.00  0.00     0.303 C 
ATOM      3  O   UNL     1       7.642  -2.706  -3.147  1.00  0.00    -0.252 OA
BRANCH   2   4
ATOM      4  O   UNL     1       9.881  -2.692  -3.370  1.00  0.00    -0.481 OA
ATOM      5  H   UNL     1      10.711  -2.119  -3.369  1.00  0.00     0.296 HD
ENDBRANCH   2   4
ENDBRANCH   1   2
BRANCH   1   6
ATOM      6  C   UNL     1       7.418   0.042  -2.677  1.00  0.00     0.047 C 
BRANCH   6   7
ATOM      7  C   UNL     1       6.832   0.114  -1.337  1.00  0.00    -0.043 A 
ATOM      8  C   UNL     1       6.020   1.172  -0.957  1.00  0.00     0.008 A 
ATOM      9  C   UNL     1       7.103  -0.849  -0.401  1.00  0.00     0.054 A 
ATOM     10  C   UNL     1       5.498   1.259   0.314  1.00  0.00     0.051 A 
ATOM     11  C   UNL     1       6.590  -0.782   0.880  1.00  0.00     0.166 A 
ATOM     12  C   UNL     1       5.786   0.272   1.242  1.00  0.00     0.165 A 
ATOM     13  O   UNL     1       6.727  -1.624   1.970  1.00  0.00    -0.454 OA
ATOM     14  O   UNL     1       5.428   0.066   2.576  1.00  0.00    -0.454 OA
ATOM     15  C   UNL     1       6.250  -0.933   3.135  1.00  0.00     0.468 C 
ENDBRANCH   6   7
ENDBRANCH   1   6
TORSDOF 4
ENDMDL
MODEL 4
REMARK VINA RESULT:      -6.7      2.192      2.876
REMARK SMILES O=C(O)CCc1ccc2c(c1)OCO2
REMARK SMILES IDX 4 1 2 2 1 3 3 4 5 6 6 7 7 8 11 9 8 10 10 11 9 12 12 13 14 14
REMARK SMILES IDX 13 15
REMARK H PARENT 3 5
REMARK Flexibility Score: inf
ROOT
ATOM      1  C   UNL     1       5.971   2.662  -0.290  1.00  0.00     0.127 C 
ENDROOT
BRANCH   1   2
ATOM      2  C   UNL     1       6.524   3.642   0.631  1.00  0.00     0.303 C 
ATOM      3  O   UNL     1       6.912   4.772   0.328  1.00  0.00    -0.252 OA
BRANCH   2   4
ATOM      4  O   UNL     1       6.626   3.272   1.981  1.00  0.00    -0.481 OA
ATOM      5  H   UNL     1       6.167   2.413   2.243  1.00  0.00     0.296 HD
ENDBRANCH   2   4
ENDBRANCH   1   2
BRANCH   1   6
ATOM      6  C   UNL     1       5.674   1.354   0.332  1.00  0.00     0.047 C 
BRANCH   6   7
ATOM      7  C   UNL     1       6.440   0.195  -0.131  1.00  0.00    -0.043 A 
ATOM      8  C   UNL     1       6.851  -0.799   0.745  1.00  0.00     0.008 A 
ATOM      9  C   UNL     1       6.807   0.078  -1.445  1.00  0.00     0.054 A 
ATOM     10  C   UNL     1       7.602  -1.871   0.317  1.00  0.00     0.051 A 
ATOM     11  C   UNL     1       7.560  -0.990  -1.897  1.00  0.00     0.166 A 
ATOM     12  C   UNL     1       7.960  -1.967  -1.018  1.00  0.00     0.165 A 
ATOM     13  O   UNL     1       8.038  -1.309  -3.155  1.00  0.00    -0.454 OA
ATOM     14  O   UNL     1       8.694  -2.897  -1.756  1.00  0.00    -0.454 OA
ATOM     15  C   UNL     1       9.017  -2.350  -3.013  1.00  0.00     0.468 C 
ENDBRANCH   6   7
ENDBRANCH   1   6
TORSDOF 4
ENDMDL
MODEL 5
REMARK VINA RESULT:      -6.6      1.891      2.334
REMARK SMILES O=C(O)CCc1ccc2c(c1)OCO2
REMARK SMILES IDX 4 1 2 2 1 3 3 4 5 6 6 7 7 8 11 9 8 10 10 11 9 12 12 13 14 14
REMARK SMILES IDX 13 15
REMARK H PARENT 3 5
REMARK Flexibility Score: inf
ROOT
ATOM      1  C   UNL     1       5.178   0.336   1.822  1.00  0.00     0.127 C 
ENDROOT
BRANCH   1   2
ATOM      2  C   UNL     1       6.289  -0.447   2.341  1.00  0.00     0.303 C 
ATOM      3  O   UNL     1       7.304   0.010   2.869  1.00  0.00    -0.252 OA
BRANCH   2   4
ATOM      4  O   UNL     1       6.199  -1.844   2.232  1.00  0.00    -0.481 OA
ATOM      5  H   UNL     1       5.877  -2.201   1.345  1.00  0.00     0.296 HD
ENDBRANCH   2   4
ENDBRANCH   1   2
BRANCH   1   6
ATOM      6  C   UNL     1       5.473   1.024   0.548  1.00  0.00     0.047 C 
BRANCH   6   7
ATOM      7  C   UNL     1       6.607   0.535  -0.240  1.00  0.00    -0.043 A 
ATOM      8  C   UNL     1       7.766   1.282  -0.383  1.00  0.00     0.008 A 
ATOM      9  C   UNL     1       6.539  -0.666  -0.895  1.00  0.00     0.054 A 
ATOM     10  C   UNL     1       8.819   0.840  -1.152  1.00  0.00     0.051 A 
ATOM     11  C   UNL     1       7.583  -1.130  -1.672  1.00  0.00     0.166 A 
ATOM     12  C   UNL     1       8.726  -0.380  -1.803  1.00  0.00     0.165 A 
ATOM     13  O   UNL     1       7.733  -2.291  -2.410  1.00  0.00    -0.454 OA
ATOM     14  O   UNL     1       9.586  -1.098  -2.636  1.00  0.00    -0.454 OA
ATOM     15  C   UNL     1       8.870  -2.132  -3.271  1.00  0.00     0.468 C 
ENDBRANCH   6   7
ENDBRANCH   1   6
TORSDOF 4
ENDMDL
