@<TRIPOS>MOLECULE
/home/cewinharhar/GITHUB/reincatalyze/data/processed/docking_pred/2023-May-17-1006_maxeplen10_maxtrainstep1000_seadep16_gamma099_lrac9e-4_lrcr1e-3_sub6/d17de8b65df071edc80e577bc10846f04a34e0dd_ligand_6.pdbqt
 15 16 0 0 0
SMALL
GASTEIGER

@<TRIPOS>ATOM
      1  C          8.7390   -0.6070   -2.8120 C.3     1  UNL1        0.1270
      2  C          8.6720   -2.0300   -3.1080 C.2     1  UNL1        0.3030
      3  O          7.6420   -2.7060   -3.1470 O.2     1  UNL1       -0.2520
      4  O          9.8810   -2.6920   -3.3700 O.3     1  UNL1       -0.4810
      5  H         10.7110   -2.1190   -3.3690 H       1  UNL1        0.2960
      6  C          7.4180    0.0420   -2.6770 C.3     1  UNL1        0.0470
      7  C          6.8320    0.1140   -1.3370 C.2     1  UNL1       -0.0430
      8  C          6.0200    1.1720   -0.9570 C.2     1  UNL1        0.0080
      9  C          7.1030   -0.8490   -0.4010 C.2     1  UNL1        0.0540
     10  C          5.4980    1.2590    0.3140 C.2     1  UNL1        0.0510
     11  C          6.5900   -0.7820    0.8800 C.2     1  UNL1        0.1660
     12  C          5.7860    0.2720    1.2420 C.2     1  UNL1        0.1650
     13  O          6.7270   -1.6240    1.9700 O.2     1  UNL1       -0.4540
     14  O          5.4280    0.0660    2.5760 O.2     1  UNL1       -0.4540
     15  C          6.2500   -0.9330    3.1350 C.3     1  UNL1        0.4680
@<TRIPOS>BOND
     1     4     5    1
     2     4     2    1
     3     3     2    2
     4     2     1    1
     5     1     6    1
     6     6     7    1
     7     7     8    2
     8     7     9    1
     9     8    10    1
    10     9    11    2
    11    10    12    2
    12    11    12    1
    13    11    13    1
    14    12    14    1
    15    13    15    1
    16    14    15    1
