@<TRIPOS>MOLECULE
/home/cewinharhar/GITHUB/reincatalyze/data/processed/docking_pred/2023-May-17-1006_maxeplen10_maxtrainstep1000_seadep16_gamma099_lrac9e-4_lrcr1e-3_sub6/d17de8b65df071edc80e577bc10846f04a34e0dd_ligand_6.pdbqt
 15 16 0 0 0
SMALL
GASTEIGER

@<TRIPOS>ATOM
      1  C          5.4050    1.0230    0.5630 C.3     1  UNL1        0.1270
      2  C          5.0780    0.5550    1.9000 C.2     1  UNL1        0.3030
      3  O          5.7720   -0.1960    2.5880 O.2     1  UNL1       -0.2520
      4  O          3.8670    0.9940    2.4580 O.3     1  UNL1       -0.4810
      5  H          3.0630    0.4050    2.2980 H       1  UNL1        0.2960
      6  C          6.8470    0.9600    0.2410 C.3     1  UNL1        0.0470
      7  C          7.3270   -0.2160   -0.4890 C.2     1  UNL1       -0.0430
      8  C          7.2240   -0.3040   -1.8680 C.2     1  UNL1        0.0080
      9  C          7.8600   -1.2860    0.1800 C.2     1  UNL1        0.0540
     10  C          7.6420   -1.4240   -2.5520 C.2     1  UNL1        0.0510
     11  C          8.2860   -2.4200   -0.4850 C.2     1  UNL1        0.1660
     12  C          8.1790   -2.4930   -1.8530 C.2     1  UNL1        0.1650
     13  O          8.8460   -3.5990   -0.0260 O.2     1  UNL1       -0.4540
     14  O          8.6830   -3.7380   -2.2310 O.2     1  UNL1       -0.4540
     15  C          8.8110   -4.5590   -1.0930 C.3     1  UNL1        0.4680
@<TRIPOS>BOND
     1    10     8    1
     2    10    12    2
     3    14    12    1
     4    14    15    1
     5     8     7    2
     6    12    11    1
     7    15    13    1
     8     7     9    1
     9     7     6    1
    10    11    13    1
    11    11     9    2
    12     6     1    1
    13     1     2    1
    14     2     4    1
    15     2     3    2
    16     5     4    1
