@<TRIPOS>MOLECULE
/home/cewinharhar/GITHUB/reincatalyze/data/processed/docking_pred/2023-May-17-1006_maxeplen10_maxtrainstep1000_seadep16_gamma099_lrac9e-4_lrcr1e-3_sub6/d17de8b65df071edc80e577bc10846f04a34e0dd_ligand_6.pdbqt
 15 16 0 0 0
SMALL
GASTEIGER

@<TRIPOS>ATOM
      1  C          8.4090   -0.3090   -3.1650 C.3     1  UNL1        0.1270
      2  C          8.5030   -1.7600   -3.1960 C.2     1  UNL1        0.3030
      3  O          9.5400   -2.4130   -3.0700 O.2     1  UNL1       -0.2520
      4  O          7.3130   -2.4790   -3.3860 O.3     1  UNL1       -0.4810
      5  H          7.1270   -3.2150   -2.7220 H       1  UNL1        0.2960
      6  C          8.9560    0.3020   -1.9350 C.3     1  UNL1        0.0470
      7  C          8.1880    0.1430   -0.6990 C.2     1  UNL1       -0.0430
      8  C          8.6110   -0.7040    0.3140 C.2     1  UNL1        0.0080
      9  C          6.9990    0.8010   -0.5240 C.2     1  UNL1        0.0540
     10  C          7.8710   -0.8830    1.4610 C.2     1  UNL1        0.0510
     11  C          6.2400    0.6370    0.6190 C.2     1  UNL1        0.1660
     12  C          6.6730   -0.2040    1.6150 C.2     1  UNL1        0.1650
     13  O          5.0310    1.1890    1.0060 O.2     1  UNL1       -0.4540
     14  O          5.7100   -0.1630    2.6250 O.2     1  UNL1       -0.4540
     15  C          4.5390    0.4490    2.1340 C.3     1  UNL1        0.4680
@<TRIPOS>BOND
     1     4     2    1
     2     4     5    1
     3     2     1    1
     4     2     3    2
     5     1     6    1
     6     6     7    1
     7     7     9    2
     8     7     8    1
     9     9    11    1
    10     8    10    2
    11    11    13    1
    12    11    12    2
    13    13    15    1
    14    10    12    1
    15    12    14    1
    16    15    14    1
