@<TRIPOS>MOLECULE
/home/cewinharhar/GITHUB/reincatalyze/data/processed/docking_pred/2023-May-17-1006_maxeplen10_maxtrainstep1000_seadep16_gamma099_lrac9e-4_lrcr1e-3_sub6/d18fc177cce43baae8a65556dd45e7572e61ad5e_ligand_6.pdbqt
 15 16 0 0 0
SMALL
GASTEIGER

@<TRIPOS>ATOM
      1  C          5.3750    2.7100    0.1300 C.3     1  UNL1        0.1270
      2  C          6.0960    3.7230    0.8830 C.2     1  UNL1        0.3030
      3  O          6.1450    3.8040    2.1120 O.2     1  UNL1       -0.2520
      4  O          6.7980    4.6940    0.1500 O.3     1  UNL1       -0.4810
      5  H          7.0860    5.5150    0.6600 H       1  UNL1        0.2960
      6  C          5.3850    1.3720    0.7600 C.3     1  UNL1        0.0470
      7  C          6.2300    0.3430    0.1500 C.2     1  UNL1       -0.0430
      8  C          6.4980    0.3380   -1.2100 C.2     1  UNL1        0.0080
      9  C          6.7500   -0.6740    0.9060 C.2     1  UNL1        0.0540
     10  C          7.2610   -0.6500   -1.7910 C.2     1  UNL1        0.0510
     11  C          7.5200   -1.6750    0.3450 C.2     1  UNL1        0.1660
     12  C          7.7780   -1.6670   -1.0050 C.2     1  UNL1        0.1650
     13  O          8.1390   -2.7800    0.9030 O.2     1  UNL1       -0.4540
     14  O          8.5680   -2.7870   -1.2710 O.2     1  UNL1       -0.4540
     15  C          8.5410   -3.6560   -0.1620 C.3     1  UNL1        0.4680
@<TRIPOS>BOND
     1    10     8    1
     2    10    12    2
     3    14    12    1
     4    14    15    1
     5     8     7    2
     6    12    11    1
     7    15    13    1
     8     1     6    1
     9     1     2    1
    10     4     5    1
    11     4     2    1
    12     7     6    1
    13     7     9    1
    14    11    13    1
    15    11     9    2
    16     2     3    2
