MODEL 1
REMARK VINA RESULT:      -7.7      0.000      0.000
REMARK SMILES O=C(O)CCc1ccc2c(c1)OCO2
REMARK SMILES IDX 4 1 2 2 1 3 3 4 5 6 6 7 7 8 11 9 8 10 10 11 9 12 12 13 14 14
REMARK SMILES IDX 13 15
REMARK H PARENT 3 5
REMARK Flexibility Score: inf
ROOT
ATOM      1  C   UNL     1       5.409   2.912   0.071  1.00  0.00     0.127 C 
ENDROOT
BRANCH   1   2
ATOM      2  C   UNL     1       6.242   3.868   0.784  1.00  0.00     0.303 C 
ATOM      3  O   UNL     1       6.897   4.774   0.267  1.00  0.00    -0.252 OA
BRANCH   2   4
ATOM      4  O   UNL     1       6.306   3.749   2.181  1.00  0.00    -0.481 OA
ATOM      5  H   UNL     1       7.000   3.113   2.543  1.00  0.00     0.296 HD
ENDBRANCH   2   4
ENDBRANCH   1   2
BRANCH   1   6
ATOM      6  C   UNL     1       5.292   1.600   0.741  1.00  0.00     0.047 C 
BRANCH   6   7
ATOM      7  C   UNL     1       6.080   0.490   0.201  1.00  0.00    -0.043 A 
ATOM      8  C   UNL     1       6.527  -0.544   1.010  1.00  0.00     0.008 A 
ATOM      9  C   UNL     1       6.434   0.461  -1.122  1.00  0.00     0.054 A 
ATOM     10  C   UNL     1       7.298  -1.569   0.510  1.00  0.00     0.051 A 
ATOM     11  C   UNL     1       7.207  -0.558  -1.645  1.00  0.00     0.166 A 
ATOM     12  C   UNL     1       7.641  -1.576  -0.832  1.00  0.00     0.165 A 
ATOM     13  O   UNL     1       7.677  -0.789  -2.926  1.00  0.00    -0.454 OA
ATOM     14  O   UNL     1       8.388  -2.441  -1.633  1.00  0.00    -0.454 OA
ATOM     15  C   UNL     1       8.683  -1.811  -2.858  1.00  0.00     0.468 C 
ENDBRANCH   6   7
ENDBRANCH   1   6
TORSDOF 4
ENDMDL
MODEL 2
REMARK VINA RESULT:      -7.6      2.118      2.524
REMARK SMILES O=C(O)CCc1ccc2c(c1)OCO2
REMARK SMILES IDX 4 1 2 2 1 3 3 4 5 6 6 7 7 8 11 9 8 10 10 11 9 12 12 13 14 14
REMARK SMILES IDX 13 15
REMARK H PARENT 3 5
REMARK Flexibility Score: inf
ROOT
ATOM      1  C   UNL     1       4.690   1.868   0.677  1.00  0.00     0.127 C 
ENDROOT
BRANCH   1   2
ATOM      2  C   UNL     1       4.391   1.173   1.919  1.00  0.00     0.303 C 
ATOM      3  O   UNL     1       5.122   0.353   2.477  1.00  0.00    -0.252 OA
BRANCH   2   4
ATOM      4  O   UNL     1       3.163   1.460   2.538  1.00  0.00    -0.481 OA
ATOM      5  H   UNL     1       2.725   2.329   2.277  1.00  0.00     0.296 HD
ENDBRANCH   2   4
ENDBRANCH   1   2
BRANCH   1   6
ATOM      6  C   UNL     1       6.112   2.244   0.528  1.00  0.00     0.047 C 
BRANCH   6   7
ATOM      7  C   UNL     1       6.974   1.342  -0.240  1.00  0.00    -0.043 A 
ATOM      8  C   UNL     1       8.332   1.584  -0.383  1.00  0.00     0.008 A 
ATOM      9  C   UNL     1       6.452   0.247  -0.875  1.00  0.00     0.054 A 
ATOM     10  C   UNL     1       9.136   0.757  -1.135  1.00  0.00     0.051 A 
ATOM     11  C   UNL     1       7.240  -0.597  -1.634  1.00  0.00     0.166 A 
ATOM     12  C   UNL     1       8.585  -0.345  -1.766  1.00  0.00     0.165 A 
ATOM     13  O   UNL     1       6.936  -1.741  -2.351  1.00  0.00    -0.454 OA
ATOM     14  O   UNL     1       9.106  -1.354  -2.578  1.00  0.00    -0.454 OA
ATOM     15  C   UNL     1       8.050  -2.047  -3.204  1.00  0.00     0.468 C 
ENDBRANCH   6   7
ENDBRANCH   1   6
TORSDOF 4
ENDMDL
MODEL 3
REMARK VINA RESULT:      -7.5      1.973      2.876
REMARK SMILES O=C(O)CCc1ccc2c(c1)OCO2
REMARK SMILES IDX 4 1 2 2 1 3 3 4 5 6 6 7 7 8 11 9 8 10 10 11 9 12 12 13 14 14
REMARK SMILES IDX 13 15
REMARK H PARENT 3 5
REMARK Flexibility Score: inf
ROOT
ATOM      1  C   UNL     1       6.427   1.311   0.735  1.00  0.00     0.127 C 
ENDROOT
BRANCH   1   2
ATOM      2  C   UNL     1       5.181   1.317   1.484  1.00  0.00     0.303 C 
ATOM      3  O   UNL     1       4.260   2.123   1.338  1.00  0.00    -0.252 OA
BRANCH   2   4
ATOM      4  O   UNL     1       5.009   0.320   2.457  1.00  0.00    -0.481 OA
ATOM      5  H   UNL     1       4.745  -0.592   2.118  1.00  0.00     0.296 HD
ENDBRANCH   2   4
ENDBRANCH   1   2
BRANCH   1   6
ATOM      6  C   UNL     1       6.277   0.898  -0.677  1.00  0.00     0.047 C 
BRANCH   6   7
ATOM      7  C   UNL     1       7.005  -0.295  -1.115  1.00  0.00    -0.043 A 
ATOM      8  C   UNL     1       7.286  -0.522  -2.454  1.00  0.00     0.008 A 
ATOM      9  C   UNL     1       7.399  -1.246  -0.212  1.00  0.00     0.054 A 
ATOM     10  C   UNL     1       7.939  -1.660  -2.871  1.00  0.00     0.051 A 
ATOM     11  C   UNL     1       8.056  -2.396  -0.607  1.00  0.00     0.166 A 
ATOM     12  C   UNL     1       8.328  -2.607  -1.937  1.00  0.00     0.165 A 
ATOM     13  O   UNL     1       8.539  -3.473   0.115  1.00  0.00    -0.454 OA
ATOM     14  O   UNL     1       8.988  -3.834  -2.024  1.00  0.00    -0.454 OA
ATOM     15  C   UNL     1       8.851  -4.529  -0.806  1.00  0.00     0.468 C 
ENDBRANCH   6   7
ENDBRANCH   1   6
TORSDOF 4
ENDMDL
MODEL 4
REMARK VINA RESULT:      -7.5      1.821      5.285
REMARK SMILES O=C(O)CCc1ccc2c(c1)OCO2
REMARK SMILES IDX 4 1 2 2 1 3 3 4 5 6 6 7 7 8 11 9 8 10 10 11 9 12 12 13 14 14
REMARK SMILES IDX 13 15
REMARK H PARENT 3 5
REMARK Flexibility Score: inf
ROOT
ATOM      1  C   UNL     1       8.275  -0.337  -2.837  1.00  0.00     0.127 C 
ENDROOT
BRANCH   1   2
ATOM      2  C   UNL     1       8.458  -1.761  -3.073  1.00  0.00     0.303 C 
ATOM      3  O   UNL     1       9.533  -2.362  -3.034  1.00  0.00    -0.252 OA
BRANCH   2   4
ATOM      4  O   UNL     1       7.313  -2.517  -3.370  1.00  0.00    -0.481 OA
ATOM      5  H   UNL     1       7.257  -2.891  -4.305  1.00  0.00     0.296 HD
ENDBRANCH   2   4
ENDBRANCH   1   2
BRANCH   1   6
ATOM      6  C   UNL     1       8.740   0.116  -1.508  1.00  0.00     0.047 C 
BRANCH   6   7
ATOM      7  C   UNL     1       7.777   0.081  -0.405  1.00  0.00    -0.043 A 
ATOM      8  C   UNL     1       7.744  -0.971   0.496  1.00  0.00     0.008 A 
ATOM      9  C   UNL     1       6.848   1.077  -0.256  1.00  0.00     0.054 A 
ATOM     10  C   UNL     1       6.816  -1.022   1.512  1.00  0.00     0.051 A 
ATOM     11  C   UNL     1       5.908   1.047   0.756  1.00  0.00     0.166 A 
ATOM     12  C   UNL     1       5.888  -0.002   1.643  1.00  0.00     0.165 A 
ATOM     13  O   UNL     1       4.893   1.926   1.094  1.00  0.00    -0.454 OA
ATOM     14  O   UNL     1       4.843   0.244   2.535  1.00  0.00    -0.454 OA
ATOM     15  C   UNL     1       4.021   1.269   2.026  1.00  0.00     0.468 C 
ENDBRANCH   6   7
ENDBRANCH   1   6
TORSDOF 4
ENDMDL
MODEL 5
REMARK VINA RESULT:      -7.5      0.965      2.120
REMARK SMILES O=C(O)CCc1ccc2c(c1)OCO2
REMARK SMILES IDX 4 1 2 2 1 3 3 4 5 6 6 7 7 8 11 9 8 10 10 11 9 12 12 13 14 14
REMARK SMILES IDX 13 15
REMARK H PARENT 3 5
REMARK Flexibility Score: inf
ROOT
ATOM      1  C   UNL     1       5.375   2.710   0.130  1.00  0.00     0.127 C 
ENDROOT
BRANCH   1   2
ATOM      2  C   UNL     1       6.096   3.723   0.883  1.00  0.00     0.303 C 
ATOM      3  O   UNL     1       6.145   3.804   2.112  1.00  0.00    -0.252 OA
BRANCH   2   4
ATOM      4  O   UNL     1       6.798   4.694   0.150  1.00  0.00    -0.481 OA
ATOM      5  H   UNL     1       7.086   5.515   0.660  1.00  0.00     0.296 HD
ENDBRANCH   2   4
ENDBRANCH   1   2
BRANCH   1   6
ATOM      6  C   UNL     1       5.385   1.372   0.760  1.00  0.00     0.047 C 
BRANCH   6   7
ATOM      7  C   UNL     1       6.230   0.343   0.150  1.00  0.00    -0.043 A 
ATOM      8  C   UNL     1       6.498   0.338  -1.210  1.00  0.00     0.008 A 
ATOM      9  C   UNL     1       6.750  -0.674   0.906  1.00  0.00     0.054 A 
ATOM     10  C   UNL     1       7.261  -0.650  -1.791  1.00  0.00     0.051 A 
ATOM     11  C   UNL     1       7.520  -1.675   0.345  1.00  0.00     0.166 A 
ATOM     12  C   UNL     1       7.778  -1.667  -1.005  1.00  0.00     0.165 A 
ATOM     13  O   UNL     1       8.139  -2.780   0.903  1.00  0.00    -0.454 OA
ATOM     14  O   UNL     1       8.568  -2.787  -1.271  1.00  0.00    -0.454 OA
ATOM     15  C   UNL     1       8.541  -3.656  -0.162  1.00  0.00     0.468 C 
ENDBRANCH   6   7
ENDBRANCH   1   6
TORSDOF 4
ENDMDL
