@<TRIPOS>MOLECULE
/home/cewinharhar/GITHUB/reincatalyze/data/processed/docking_pred/2023-May-17-1006_maxeplen10_maxtrainstep1000_seadep16_gamma099_lrac9e-4_lrcr1e-3_sub6/d18fc177cce43baae8a65556dd45e7572e61ad5e_ligand_6.pdbqt
 15 16 0 0 0
SMALL
GASTEIGER

@<TRIPOS>ATOM
      1  C          8.2750   -0.3370   -2.8370 C.3     1  UNL1        0.1270
      2  C          8.4580   -1.7610   -3.0730 C.2     1  UNL1        0.3030
      3  O          9.5330   -2.3620   -3.0340 O.2     1  UNL1       -0.2520
      4  O          7.3130   -2.5170   -3.3700 O.3     1  UNL1       -0.4810
      5  H          7.2570   -2.8910   -4.3050 H       1  UNL1        0.2960
      6  C          8.7400    0.1160   -1.5080 C.3     1  UNL1        0.0470
      7  C          7.7770    0.0810   -0.4050 C.2     1  UNL1       -0.0430
      8  C          7.7440   -0.9710    0.4960 C.2     1  UNL1        0.0080
      9  C          6.8480    1.0770   -0.2560 C.2     1  UNL1        0.0540
     10  C          6.8160   -1.0220    1.5120 C.2     1  UNL1        0.0510
     11  C          5.9080    1.0470    0.7560 C.2     1  UNL1        0.1660
     12  C          5.8880   -0.0020    1.6430 C.2     1  UNL1        0.1650
     13  O          4.8930    1.9260    1.0940 O.2     1  UNL1       -0.4540
     14  O          4.8430    0.2440    2.5350 O.2     1  UNL1       -0.4540
     15  C          4.0210    1.2690    2.0260 C.3     1  UNL1        0.4680
@<TRIPOS>BOND
     1     5     4    1
     2     4     2    1
     3     2     3    2
     4     2     1    1
     5     1     6    1
     6     6     7    1
     7     7     9    2
     8     7     8    1
     9     9    11    1
    10     8    10    2
    11    11    13    1
    12    11    12    2
    13    13    15    1
    14    10    12    1
    15    12    14    1
    16    15    14    1
