@<TRIPOS>MOLECULE
/home/cewinharhar/GITHUB/reincatalyze/data/processed/docking_pred/2023-May-17-1006_maxeplen10_maxtrainstep1000_seadep16_gamma099_lrac9e-4_lrcr1e-3_sub6/d18fc177cce43baae8a65556dd45e7572e61ad5e_ligand_6.pdbqt
 15 16 0 0 0
SMALL
GASTEIGER

@<TRIPOS>ATOM
      1  C          5.4090    2.9120    0.0710 C.3     1  UNL1        0.1270
      2  C          6.2420    3.8680    0.7840 C.2     1  UNL1        0.3030
      3  O          6.8970    4.7740    0.2670 O.2     1  UNL1       -0.2520
      4  O          6.3060    3.7490    2.1810 O.3     1  UNL1       -0.4810
      5  H          7.0000    3.1130    2.5430 H       1  UNL1        0.2960
      6  C          5.2920    1.6000    0.7410 C.3     1  UNL1        0.0470
      7  C          6.0800    0.4900    0.2010 C.2     1  UNL1       -0.0430
      8  C          6.5270   -0.5440    1.0100 C.2     1  UNL1        0.0080
      9  C          6.4340    0.4610   -1.1220 C.2     1  UNL1        0.0540
     10  C          7.2980   -1.5690    0.5100 C.2     1  UNL1        0.0510
     11  C          7.2070   -0.5580   -1.6450 C.2     1  UNL1        0.1660
     12  C          7.6410   -1.5760   -0.8320 C.2     1  UNL1        0.1650
     13  O          7.6770   -0.7890   -2.9260 O.2     1  UNL1       -0.4540
     14  O          8.3880   -2.4410   -1.6330 O.2     1  UNL1       -0.4540
     15  C          8.6830   -1.8110   -2.8580 C.3     1  UNL1        0.4680
@<TRIPOS>BOND
     1    13    15    1
     2    13    11    1
     3    15    14    1
     4    11     9    1
     5    11    12    2
     6    14    12    1
     7     9     7    2
     8    12    10    1
     9     1     6    1
    10     1     2    1
    11     7     6    1
    12     7     8    1
    13     3     2    2
    14    10     8    2
    15     2     4    1
    16     4     5    1
