@<TRIPOS>MOLECULE
/home/cewinharhar/GITHUB/reincatalyze/data/processed/docking_pred/2023-May-17-1006_maxeplen10_maxtrainstep1000_seadep16_gamma099_lrac9e-4_lrcr1e-3_sub6/d27e6afc186b75c76b7fe435f4b9560b42cd14a2_ligand_6.pdbqt
 15 16 0 0 0
SMALL
GASTEIGER

@<TRIPOS>ATOM
      1  C          6.4480    1.2930    0.7680 C.3     1  UNL1        0.1270
      2  C          5.2430    1.1390    1.5670 C.2     1  UNL1        0.3030
      3  O          5.0460    0.2580    2.4060 O.2     1  UNL1       -0.2520
      4  O          4.2140    2.0730    1.3670 O.3     1  UNL1       -0.4810
      5  H          4.1070    2.7770    2.0800 H       1  UNL1        0.2960
      6  C          6.2870    0.8920   -0.6460 C.3     1  UNL1        0.0470
      7  C          7.0270   -0.2860   -1.1050 C.2     1  UNL1       -0.0430
      8  C          7.3240   -0.4780   -2.4450 C.2     1  UNL1        0.0080
      9  C          7.4170   -1.2560   -0.2210 C.2     1  UNL1        0.0540
     10  C          7.9890   -1.6020   -2.8830 C.2     1  UNL1        0.0510
     11  C          8.0850   -2.3920   -0.6370 C.2     1  UNL1        0.1660
     12  C          8.3740   -2.5690   -1.9680 C.2     1  UNL1        0.1650
     13  O          8.5670   -3.4840    0.0650 O.2     1  UNL1       -0.4540
     14  O          9.0420   -3.7890   -2.0770 O.2     1  UNL1       -0.4540
     15  C          8.8950   -4.5150   -0.8790 C.3     1  UNL1        0.4680
@<TRIPOS>BOND
     1    10     8    1
     2    10    12    2
     3     8     7    2
     4    14    12    1
     5    14    15    1
     6    12    11    1
     7     7     6    1
     8     7     9    1
     9    15    13    1
    10     6     1    1
    11    11     9    2
    12    11    13    1
    13     1     2    1
    14     4     2    1
    15     4     5    1
    16     2     3    2
