@<TRIPOS>MOLECULE
/home/cewinharhar/GITHUB/reincatalyze/data/processed/docking_pred/2023-May-17-1006_maxeplen10_maxtrainstep1000_seadep16_gamma099_lrac9e-4_lrcr1e-3_sub6/d27e6afc186b75c76b7fe435f4b9560b42cd14a2_ligand_6.pdbqt
 15 16 0 0 0
SMALL
GASTEIGER

@<TRIPOS>ATOM
      1  C          5.4210    2.8680    0.1200 C.3     1  UNL1        0.1270
      2  C          6.2550    3.8510    0.7950 C.2     1  UNL1        0.3030
      3  O          6.9080    4.7380    0.2420 O.2     1  UNL1       -0.2520
      4  O          6.3230    3.7860    2.1950 O.3     1  UNL1       -0.4810
      5  H          5.7550    3.0780    2.6360 H       1  UNL1        0.2960
      6  C          5.3600    1.5600    0.8070 C.3     1  UNL1        0.0470
      7  C          6.1340    0.4570    0.2320 C.2     1  UNL1       -0.0430
      8  C          6.5800   -0.5980    1.0130 C.2     1  UNL1        0.0080
      9  C          6.4730    0.4570   -1.0940 C.2     1  UNL1        0.0540
     10  C          7.3380   -1.6180    0.4810 C.2     1  UNL1        0.0510
     11  C          7.2320   -0.5560   -1.6500 C.2     1  UNL1        0.1660
     12  C          7.6670   -1.5960   -0.8650 C.2     1  UNL1        0.1650
     13  O          7.6870   -0.7610   -2.9410 O.2     1  UNL1       -0.4540
     14  O          8.3990   -2.4480   -1.6940 O.2     1  UNL1       -0.4540
     15  C          8.6860   -1.7920   -2.9070 C.3     1  UNL1        0.4680
@<TRIPOS>BOND
     1    13    15    1
     2    13    11    1
     3    15    14    1
     4    14    12    1
     5    11     9    1
     6    11    12    2
     7     9     7    2
     8    12    10    1
     9     1     2    1
    10     1     6    1
    11     7     6    1
    12     7     8    1
    13     3     2    2
    14    10     8    2
    15     2     4    1
    16     4     5    1
