@<TRIPOS>MOLECULE
/home/cewinharhar/GITHUB/reincatalyze/data/processed/docking_pred/2023-May-17-1006_maxeplen10_maxtrainstep1000_seadep16_gamma099_lrac9e-4_lrcr1e-3_sub6/d27e6afc186b75c76b7fe435f4b9560b42cd14a2_ligand_6.pdbqt
 15 16 0 0 0
SMALL
GASTEIGER

@<TRIPOS>ATOM
      1  C          8.2780   -0.3450   -2.8560 C.3     1  UNL1        0.1270
      2  C          8.4570   -1.7700   -3.0840 C.2     1  UNL1        0.3030
      3  O          9.5320   -2.3720   -3.0490 O.2     1  UNL1       -0.2520
      4  O          7.3100   -2.5260   -3.3700 O.3     1  UNL1       -0.4810
      5  H          7.0050   -3.1620   -2.6490 H       1  UNL1        0.2960
      6  C          8.7370    0.1130   -1.5270 C.3     1  UNL1        0.0470
      7  C          7.7710    0.0750   -0.4270 C.2     1  UNL1       -0.0430
      8  C          7.7290   -0.9860    0.4640 C.2     1  UNL1        0.0080
      9  C          6.8490    1.0750   -0.2700 C.2     1  UNL1        0.0540
     10  C          6.7970   -1.0410    1.4770 C.2     1  UNL1        0.0510
     11  C          5.9050    1.0420    0.7390 C.2     1  UNL1        0.1660
     12  C          5.8760   -0.0150    1.6160 C.2     1  UNL1        0.1650
     13  O          4.8960    1.9250    1.0830 O.2     1  UNL1       -0.4540
     14  O          4.8310    0.2300    2.5080 O.2     1  UNL1       -0.4540
     15  C          4.0170    1.2640    2.0060 C.3     1  UNL1        0.4680
@<TRIPOS>BOND
     1     4     2    1
     2     4     5    1
     3     2     3    2
     4     2     1    1
     5     1     6    1
     6     6     7    1
     7     7     9    2
     8     7     8    1
     9     9    11    1
    10     8    10    2
    11    11    13    1
    12    11    12    2
    13    13    15    1
    14    10    12    1
    15    12    14    1
    16    15    14    1
