@<TRIPOS>MOLECULE
/home/cewinharhar/GITHUB/reincatalyze/data/processed/docking_pred/2023-May-17-1006_maxeplen10_maxtrainstep1000_seadep16_gamma099_lrac9e-4_lrcr1e-3_sub6/d27e6afc186b75c76b7fe435f4b9560b42cd14a2_ligand_6.pdbqt
 15 16 0 0 0
SMALL
GASTEIGER

@<TRIPOS>ATOM
      1  C          4.6940    1.8650    0.6910 C.3     1  UNL1        0.1270
      2  C          4.3910    1.1490    1.9210 C.2     1  UNL1        0.3030
      3  O          5.1180    0.3140    2.4620 O.2     1  UNL1       -0.2520
      4  O          3.1680    1.4340    2.5470 O.3     1  UNL1       -0.4810
      5  H          2.6350    0.6390    2.8650 H       1  UNL1        0.2960
      6  C          6.1210    2.2250    0.5420 C.3     1  UNL1        0.0470
      7  C          6.9700    1.3200   -0.2350 C.2     1  UNL1       -0.0430
      8  C          8.3310    1.5430   -0.3720 C.2     1  UNL1        0.0080
      9  C          6.4330    0.2410   -0.8850 C.2     1  UNL1        0.0540
     10  C          9.1250    0.7130   -1.1330 C.2     1  UNL1        0.0510
     11  C          7.2100   -0.6060   -1.6530 C.2     1  UNL1        0.1660
     12  C          8.5580   -0.3730   -1.7790 C.2     1  UNL1        0.1650
     13  O          6.8890   -1.7360   -2.3850 O.2     1  UNL1       -0.4540
     14  O          9.0650   -1.3800   -2.6030 O.2     1  UNL1       -0.4540
     15  C          8.0000   -2.0480   -3.2390 C.3     1  UNL1        0.4680
@<TRIPOS>BOND
     1    15    14    1
     2    15    13    1
     3    14    12    1
     4    13    11    1
     5    12    11    2
     6    12    10    1
     7    11     9    1
     8    10     8    2
     9     9     7    2
    10     8     7    1
    11     7     6    1
    12     6     1    1
    13     1     2    1
    14     2     3    2
    15     2     4    1
    16     4     5    1
