@<TRIPOS>MOLECULE
/home/cewinharhar/GITHUB/reincatalyze/data/processed/docking_pred/2023-May-17-1006_maxeplen10_maxtrainstep1000_seadep16_gamma099_lrac9e-4_lrcr1e-3_sub6/d29de17412cd01c0ee6022e9d720ef028927a1a9_ligand_6.pdbqt
 15 16 0 0 0
SMALL
GASTEIGER

@<TRIPOS>ATOM
      1  C          6.4280    1.3230    0.7360 C.3     1  UNL1        0.1270
      2  C          5.1870    1.3160    1.4940 C.2     1  UNL1        0.3030
      3  O          4.2610    2.1180    1.3620 O.2     1  UNL1       -0.2520
      4  O          5.0290    0.3100    2.4610 O.3     1  UNL1       -0.4810
      5  H          5.4840   -0.5690    2.2680 H       1  UNL1        0.2960
      6  C          6.2700    0.9220   -0.6790 C.3     1  UNL1        0.0470
      7  C          7.0040   -0.2610   -1.1340 C.2     1  UNL1       -0.0430
      8  C          7.2810   -0.4700   -2.4760 C.2     1  UNL1        0.0080
      9  C          7.4080   -1.2200   -0.2430 C.2     1  UNL1        0.0540
     10  C          7.9400   -1.5990   -2.9090 C.2     1  UNL1        0.0510
     11  C          8.0710   -2.3600   -0.6550 C.2     1  UNL1        0.1660
     12  C          8.3400   -2.5540   -1.9890 C.2     1  UNL1        0.1650
     13  O          8.5640   -3.4420    0.0530 O.2     1  UNL1       -0.4540
     14  O          9.0080   -3.7750   -2.0920 O.2     1  UNL1       -0.4540
     15  C          8.8800   -4.4850   -0.8820 C.3     1  UNL1        0.4680
@<TRIPOS>BOND
     1    10     8    1
     2    10    12    2
     3     8     7    2
     4    14    12    1
     5    14    15    1
     6    12    11    1
     7     7     6    1
     8     7     9    1
     9    15    13    1
    10     6     1    1
    11    11     9    2
    12    11    13    1
    13     1     2    1
    14     3     2    2
    15     2     4    1
    16     5     4    1
