MODEL 1
REMARK VINA RESULT:      -7.7      0.000      0.000
REMARK SMILES O=C(O)CCc1ccc2c(c1)OCO2
REMARK SMILES IDX 4 1 2 2 1 3 3 4 5 6 6 7 7 8 11 9 8 10 10 11 9 12 12 13 14 14
REMARK SMILES IDX 13 15
REMARK H PARENT 3 5
REMARK Flexibility Score: inf
ROOT
ATOM      1  C   UNL     1       5.415   2.868   0.126  1.00  0.00     0.127 C 
ENDROOT
BRANCH   1   2
ATOM      2  C   UNL     1       6.243   3.851   0.807  1.00  0.00     0.303 C 
ATOM      3  O   UNL     1       6.885   4.750   0.261  1.00  0.00    -0.252 OA
BRANCH   2   4
ATOM      4  O   UNL     1       6.318   3.772   2.207  1.00  0.00    -0.481 OA
ATOM      5  H   UNL     1       7.244   3.706   2.600  1.00  0.00     0.296 HD
ENDBRANCH   2   4
ENDBRANCH   1   2
BRANCH   1   6
ATOM      6  C   UNL     1       5.349   1.560   0.813  1.00  0.00     0.047 C 
BRANCH   6   7
ATOM      7  C   UNL     1       6.130   0.458   0.248  1.00  0.00    -0.043 A 
ATOM      8  C   UNL     1       6.585  -0.587   1.037  1.00  0.00     0.008 A 
ATOM      9  C   UNL     1       6.469   0.448  -1.079  1.00  0.00     0.054 A 
ATOM     10  C   UNL     1       7.351  -1.606   0.513  1.00  0.00     0.051 A 
ATOM     11  C   UNL     1       7.235  -0.563  -1.626  1.00  0.00     0.166 A 
ATOM     12  C   UNL     1       7.678  -1.594  -0.833  1.00  0.00     0.165 A 
ATOM     13  O   UNL     1       7.690  -0.777  -2.916  1.00  0.00    -0.454 OA
ATOM     14  O   UNL     1       8.416  -2.447  -1.655  1.00  0.00    -0.454 OA
ATOM     15  C   UNL     1       8.697  -1.799  -2.874  1.00  0.00     0.468 C 
ENDBRANCH   6   7
ENDBRANCH   1   6
TORSDOF 4
ENDMDL
MODEL 2
REMARK VINA RESULT:      -7.6      2.121      2.507
REMARK SMILES O=C(O)CCc1ccc2c(c1)OCO2
REMARK SMILES IDX 4 1 2 2 1 3 3 4 5 6 6 7 7 8 11 9 8 10 10 11 9 12 12 13 14 14
REMARK SMILES IDX 13 15
REMARK H PARENT 3 5
REMARK Flexibility Score: inf
ROOT
ATOM      1  C   UNL     1       4.745   1.905   0.699  1.00  0.00     0.127 C 
ENDROOT
BRANCH   1   2
ATOM      2  C   UNL     1       4.438   1.167   1.915  1.00  0.00     0.303 C 
ATOM      3  O   UNL     1       5.171   0.336   2.453  1.00  0.00    -0.252 OA
BRANCH   2   4
ATOM      4  O   UNL     1       3.202   1.423   2.529  1.00  0.00    -0.481 OA
ATOM      5  H   UNL     1       2.628   2.130   2.096  1.00  0.00     0.296 HD
ENDBRANCH   2   4
ENDBRANCH   1   2
BRANCH   1   6
ATOM      6  C   UNL     1       6.176   2.245   0.548  1.00  0.00     0.047 C 
BRANCH   6   7
ATOM      7  C   UNL     1       7.012   1.327  -0.228  1.00  0.00    -0.043 A 
ATOM      8  C   UNL     1       8.375   1.533  -0.371  1.00  0.00     0.008 A 
ATOM      9  C   UNL     1       6.460   0.251  -0.872  1.00  0.00     0.054 A 
ATOM     10  C   UNL     1       9.157   0.691  -1.131  1.00  0.00     0.051 A 
ATOM     11  C   UNL     1       7.224  -0.607  -1.639  1.00  0.00     0.166 A 
ATOM     12  C   UNL     1       8.574  -0.391  -1.771  1.00  0.00     0.165 A 
ATOM     13  O   UNL     1       6.888  -1.736  -2.366  1.00  0.00    -0.454 OA
ATOM     14  O   UNL     1       9.067  -1.406  -2.593  1.00  0.00    -0.454 OA
ATOM     15  C   UNL     1       7.992  -2.065  -3.222  1.00  0.00     0.468 C 
ENDBRANCH   6   7
ENDBRANCH   1   6
TORSDOF 4
ENDMDL
MODEL 3
REMARK VINA RESULT:      -7.5      1.799      5.263
REMARK SMILES O=C(O)CCc1ccc2c(c1)OCO2
REMARK SMILES IDX 4 1 2 2 1 3 3 4 5 6 6 7 7 8 11 9 8 10 10 11 9 12 12 13 14 14
REMARK SMILES IDX 13 15
REMARK H PARENT 3 5
REMARK Flexibility Score: inf
ROOT
ATOM      1  C   UNL     1       8.256  -0.205  -2.840  1.00  0.00     0.127 C 
ENDROOT
BRANCH   1   2
ATOM      2  C   UNL     1       8.492  -1.625  -3.048  1.00  0.00     0.303 C 
ATOM      3  O   UNL     1       9.579  -2.195  -2.939  1.00  0.00    -0.252 OA
BRANCH   2   4
ATOM      4  O   UNL     1       7.388  -2.417  -3.403  1.00  0.00    -0.481 OA
ATOM      5  H   UNL     1       7.043  -3.044  -2.693  1.00  0.00     0.296 HD
ENDBRANCH   2   4
ENDBRANCH   1   2
BRANCH   1   6
ATOM      6  C   UNL     1       8.704   0.291  -1.521  1.00  0.00     0.047 C 
BRANCH   6   7
ATOM      7  C   UNL     1       7.746   0.232  -0.414  1.00  0.00    -0.043 A 
ATOM      8  C   UNL     1       7.759  -0.810   0.501  1.00  0.00     0.008 A 
ATOM      9  C   UNL     1       6.778   1.190  -0.274  1.00  0.00     0.054 A 
ATOM     10  C   UNL     1       6.837  -0.886   1.520  1.00  0.00     0.051 A 
ATOM     11  C   UNL     1       5.842   1.135   0.741  1.00  0.00     0.166 A 
ATOM     12  C   UNL     1       5.868   0.098   1.642  1.00  0.00     0.165 A 
ATOM     13  O   UNL     1       4.794   1.976   1.071  1.00  0.00    -0.454 OA
ATOM     14  O   UNL     1       4.817   0.313   2.534  1.00  0.00    -0.454 OA
ATOM     15  C   UNL     1       3.952   1.296   2.014  1.00  0.00     0.468 C 
ENDBRANCH   6   7
ENDBRANCH   1   6
TORSDOF 4
ENDMDL
MODEL 4
REMARK VINA RESULT:      -7.5      0.946      2.112
REMARK SMILES O=C(O)CCc1ccc2c(c1)OCO2
REMARK SMILES IDX 4 1 2 2 1 3 3 4 5 6 6 7 7 8 11 9 8 10 10 11 9 12 12 13 14 14
REMARK SMILES IDX 13 15
REMARK H PARENT 3 5
REMARK Flexibility Score: inf
ROOT
ATOM      1  C   UNL     1       5.402   2.825   0.064  1.00  0.00     0.127 C 
ENDROOT
BRANCH   1   2
ATOM      2  C   UNL     1       6.113   3.831   0.836  1.00  0.00     0.303 C 
ATOM      3  O   UNL     1       6.110   3.928   2.065  1.00  0.00    -0.252 OA
BRANCH   2   4
ATOM      4  O   UNL     1       6.870   4.775   0.123  1.00  0.00    -0.481 OA
ATOM      5  H   UNL     1       6.690   4.833  -0.867  1.00  0.00     0.296 HD
ENDBRANCH   2   4
ENDBRANCH   1   2
BRANCH   1   6
ATOM      6  C   UNL     1       5.379   1.488   0.696  1.00  0.00     0.047 C 
BRANCH   6   7
ATOM      7  C   UNL     1       6.226   0.447   0.110  1.00  0.00    -0.043 A 
ATOM      8  C   UNL     1       6.526   0.434  -1.244  1.00  0.00     0.008 A 
ATOM      9  C   UNL     1       6.718  -0.572   0.881  1.00  0.00     0.054 A 
ATOM     10  C   UNL     1       7.292  -0.565  -1.803  1.00  0.00     0.051 A 
ATOM     11  C   UNL     1       7.489  -1.584   0.342  1.00  0.00     0.166 A 
ATOM     12  C   UNL     1       7.779  -1.584  -1.001  1.00  0.00     0.165 A 
ATOM     13  O   UNL     1       8.082  -2.694   0.919  1.00  0.00    -0.454 OA
ATOM     14  O   UNL     1       8.562  -2.714  -1.244  1.00  0.00    -0.454 OA
ATOM     15  C   UNL     1       8.499  -3.578  -0.133  1.00  0.00     0.468 C 
ENDBRANCH   6   7
ENDBRANCH   1   6
TORSDOF 4
ENDMDL
MODEL 5
REMARK VINA RESULT:      -7.4      1.958      2.856
REMARK SMILES O=C(O)CCc1ccc2c(c1)OCO2
REMARK SMILES IDX 4 1 2 2 1 3 3 4 5 6 6 7 7 8 11 9 8 10 10 11 9 12 12 13 14 14
REMARK SMILES IDX 13 15
REMARK H PARENT 3 5
REMARK Flexibility Score: inf
ROOT
ATOM      1  C   UNL     1       6.428   1.323   0.736  1.00  0.00     0.127 C 
ENDROOT
BRANCH   1   2
ATOM      2  C   UNL     1       5.187   1.316   1.494  1.00  0.00     0.303 C 
ATOM      3  O   UNL     1       4.261   2.118   1.362  1.00  0.00    -0.252 OA
BRANCH   2   4
ATOM      4  O   UNL     1       5.029   0.310   2.461  1.00  0.00    -0.481 OA
ATOM      5  H   UNL     1       5.484  -0.569   2.268  1.00  0.00     0.296 HD
ENDBRANCH   2   4
ENDBRANCH   1   2
BRANCH   1   6
ATOM      6  C   UNL     1       6.270   0.922  -0.679  1.00  0.00     0.047 C 
BRANCH   6   7
ATOM      7  C   UNL     1       7.004  -0.261  -1.134  1.00  0.00    -0.043 A 
ATOM      8  C   UNL     1       7.281  -0.470  -2.476  1.00  0.00     0.008 A 
ATOM      9  C   UNL     1       7.408  -1.220  -0.243  1.00  0.00     0.054 A 
ATOM     10  C   UNL     1       7.940  -1.599  -2.909  1.00  0.00     0.051 A 
ATOM     11  C   UNL     1       8.071  -2.360  -0.655  1.00  0.00     0.166 A 
ATOM     12  C   UNL     1       8.340  -2.554  -1.989  1.00  0.00     0.165 A 
ATOM     13  O   UNL     1       8.564  -3.442   0.053  1.00  0.00    -0.454 OA
ATOM     14  O   UNL     1       9.008  -3.775  -2.092  1.00  0.00    -0.454 OA
ATOM     15  C   UNL     1       8.880  -4.485  -0.882  1.00  0.00     0.468 C 
ENDBRANCH   6   7
ENDBRANCH   1   6
TORSDOF 4
ENDMDL
