@<TRIPOS>MOLECULE
/home/cewinharhar/GITHUB/reincatalyze/data/processed/docking_pred/2023-May-17-1006_maxeplen10_maxtrainstep1000_seadep16_gamma099_lrac9e-4_lrcr1e-3_sub6/d29de17412cd01c0ee6022e9d720ef028927a1a9_ligand_6.pdbqt
 15 16 0 0 0
SMALL
GASTEIGER

@<TRIPOS>ATOM
      1  C          4.7450    1.9050    0.6990 C.3     1  UNL1        0.1270
      2  C          4.4380    1.1670    1.9150 C.2     1  UNL1        0.3030
      3  O          5.1710    0.3360    2.4530 O.2     1  UNL1       -0.2520
      4  O          3.2020    1.4230    2.5290 O.3     1  UNL1       -0.4810
      5  H          2.6280    2.1300    2.0960 H       1  UNL1        0.2960
      6  C          6.1760    2.2450    0.5480 C.3     1  UNL1        0.0470
      7  C          7.0120    1.3270   -0.2280 C.2     1  UNL1       -0.0430
      8  C          8.3750    1.5330   -0.3710 C.2     1  UNL1        0.0080
      9  C          6.4600    0.2510   -0.8720 C.2     1  UNL1        0.0540
     10  C          9.1570    0.6910   -1.1310 C.2     1  UNL1        0.0510
     11  C          7.2240   -0.6070   -1.6390 C.2     1  UNL1        0.1660
     12  C          8.5740   -0.3910   -1.7710 C.2     1  UNL1        0.1650
     13  O          6.8880   -1.7360   -2.3660 O.2     1  UNL1       -0.4540
     14  O          9.0670   -1.4060   -2.5930 O.2     1  UNL1       -0.4540
     15  C          7.9920   -2.0650   -3.2220 C.3     1  UNL1        0.4680
@<TRIPOS>BOND
     1    15    14    1
     2    15    13    1
     3    14    12    1
     4    13    11    1
     5    12    11    2
     6    12    10    1
     7    11     9    1
     8    10     8    2
     9     9     7    2
    10     8     7    1
    11     7     6    1
    12     6     1    1
    13     1     2    1
    14     2     3    2
    15     2     4    1
    16     5     4    1
