@<TRIPOS>MOLECULE
/home/cewinharhar/GITHUB/reincatalyze/data/processed/docking_pred/2023-May-17-1006_maxeplen10_maxtrainstep1000_seadep16_gamma099_lrac9e-4_lrcr1e-3_sub6/d29de17412cd01c0ee6022e9d720ef028927a1a9_ligand_6.pdbqt
 15 16 0 0 0
SMALL
GASTEIGER

@<TRIPOS>ATOM
      1  C          5.4020    2.8250    0.0640 C.3     1  UNL1        0.1270
      2  C          6.1130    3.8310    0.8360 C.2     1  UNL1        0.3030
      3  O          6.1100    3.9280    2.0650 O.2     1  UNL1       -0.2520
      4  O          6.8700    4.7750    0.1230 O.3     1  UNL1       -0.4810
      5  H          6.6900    4.8330   -0.8670 H       1  UNL1        0.2960
      6  C          5.3790    1.4880    0.6960 C.3     1  UNL1        0.0470
      7  C          6.2260    0.4470    0.1100 C.2     1  UNL1       -0.0430
      8  C          6.5260    0.4340   -1.2440 C.2     1  UNL1        0.0080
      9  C          6.7180   -0.5720    0.8810 C.2     1  UNL1        0.0540
     10  C          7.2920   -0.5650   -1.8030 C.2     1  UNL1        0.0510
     11  C          7.4890   -1.5840    0.3420 C.2     1  UNL1        0.1660
     12  C          7.7790   -1.5840   -1.0010 C.2     1  UNL1        0.1650
     13  O          8.0820   -2.6940    0.9190 O.2     1  UNL1       -0.4540
     14  O          8.5620   -2.7140   -1.2440 O.2     1  UNL1       -0.4540
     15  C          8.4990   -3.5780   -0.1330 C.3     1  UNL1        0.4680
@<TRIPOS>BOND
     1    10     8    1
     2    10    12    2
     3     8     7    2
     4    14    12    1
     5    14    15    1
     6    12    11    1
     7     5     4    1
     8    15    13    1
     9     1     6    1
    10     1     2    1
    11     7     6    1
    12     7     9    1
    13     4     2    1
    14    11     9    2
    15    11    13    1
    16     2     3    2
