@<TRIPOS>MOLECULE
/home/cewinharhar/GITHUB/reincatalyze/data/processed/docking_pred/2023-May-17-1006_maxeplen10_maxtrainstep1000_seadep16_gamma099_lrac9e-4_lrcr1e-3_sub6/d29de17412cd01c0ee6022e9d720ef028927a1a9_ligand_6.pdbqt
 15 16 0 0 0
SMALL
GASTEIGER

@<TRIPOS>ATOM
      1  C          8.2560   -0.2050   -2.8400 C.3     1  UNL1        0.1270
      2  C          8.4920   -1.6250   -3.0480 C.2     1  UNL1        0.3030
      3  O          9.5790   -2.1950   -2.9390 O.2     1  UNL1       -0.2520
      4  O          7.3880   -2.4170   -3.4030 O.3     1  UNL1       -0.4810
      5  H          7.0430   -3.0440   -2.6930 H       1  UNL1        0.2960
      6  C          8.7040    0.2910   -1.5210 C.3     1  UNL1        0.0470
      7  C          7.7460    0.2320   -0.4140 C.2     1  UNL1       -0.0430
      8  C          7.7590   -0.8100    0.5010 C.2     1  UNL1        0.0080
      9  C          6.7780    1.1900   -0.2740 C.2     1  UNL1        0.0540
     10  C          6.8370   -0.8860    1.5200 C.2     1  UNL1        0.0510
     11  C          5.8420    1.1350    0.7410 C.2     1  UNL1        0.1660
     12  C          5.8680    0.0980    1.6420 C.2     1  UNL1        0.1650
     13  O          4.7940    1.9760    1.0710 O.2     1  UNL1       -0.4540
     14  O          4.8170    0.3130    2.5340 O.2     1  UNL1       -0.4540
     15  C          3.9520    1.2960    2.0140 C.3     1  UNL1        0.4680
@<TRIPOS>BOND
     1     4     2    1
     2     4     5    1
     3     2     3    2
     4     2     1    1
     5     1     6    1
     6     6     7    1
     7     7     9    2
     8     7     8    1
     9     9    11    1
    10     8    10    2
    11    11    13    1
    12    11    12    2
    13    13    15    1
    14    10    12    1
    15    12    14    1
    16    15    14    1
