@<TRIPOS>MOLECULE
/home/cewinharhar/GITHUB/reincatalyze/data/processed/docking_pred/2023-May-17-1006_maxeplen10_maxtrainstep1000_seadep16_gamma099_lrac9e-4_lrcr1e-3_sub6/d32515ef85c53a65d829162c3cbbbf13c46f52f9_ligand_6.pdbqt
 15 16 0 0 0
SMALL
GASTEIGER

@<TRIPOS>ATOM
      1  C          4.7280    1.8810    0.7070 C.3     1  UNL1        0.1270
      2  C          4.4270    1.1430    1.9250 C.2     1  UNL1        0.3030
      3  O          5.1590    0.3060    2.4560 O.2     1  UNL1       -0.2520
      4  O          3.1980    1.4060    2.5500 O.3     1  UNL1       -0.4810
      5  H          2.5590    2.0000    2.0440 H       1  UNL1        0.2960
      6  C          6.1570    2.2270    0.5530 C.3     1  UNL1        0.0470
      7  C          6.9950    1.3130   -0.2260 C.2     1  UNL1       -0.0430
      8  C          8.3600    1.5180   -0.3590 C.2     1  UNL1        0.0080
      9  C          6.4440    0.2450   -0.8810 C.2     1  UNL1        0.0540
     10  C          9.1430    0.6800   -1.1210 C.2     1  UNL1        0.0510
     11  C          7.2100   -0.6100   -1.6510 C.2     1  UNL1        0.1660
     12  C          8.5620   -0.3960   -1.7740 C.2     1  UNL1        0.1650
     13  O          6.8760   -1.7320   -2.3880 O.2     1  UNL1       -0.4540
     14  O          9.0570   -1.4060   -2.6000 O.2     1  UNL1       -0.4540
     15  C          7.9840   -2.0560   -3.2410 C.3     1  UNL1        0.4680
@<TRIPOS>BOND
     1    15    14    1
     2    15    13    1
     3    14    12    1
     4    13    11    1
     5    12    11    2
     6    12    10    1
     7    11     9    1
     8    10     8    2
     9     9     7    2
    10     8     7    1
    11     7     6    1
    12     6     1    1
    13     1     2    1
    14     2     3    2
    15     2     4    1
    16     5     4    1
