MODEL 1
REMARK VINA RESULT:      -7.7      0.000      0.000
REMARK SMILES O=C(O)CCc1ccc2c(c1)OCO2
REMARK SMILES IDX 4 1 2 2 1 3 3 4 5 6 6 7 7 8 11 9 8 10 10 11 9 12 12 13 14 14
REMARK SMILES IDX 13 15
REMARK H PARENT 3 5
REMARK Flexibility Score: inf
ROOT
ATOM      1  C   UNL     1       5.425   2.872   0.111  1.00  0.00     0.127 C 
ENDROOT
BRANCH   1   2
ATOM      2  C   UNL     1       6.255   3.857   0.787  1.00  0.00     0.303 C 
ATOM      3  O   UNL     1       6.915   4.739   0.234  1.00  0.00    -0.252 OA
BRANCH   2   4
ATOM      4  O   UNL     1       6.312   3.800   2.188  1.00  0.00    -0.481 OA
ATOM      5  H   UNL     1       5.740   3.096   2.629  1.00  0.00     0.296 HD
ENDBRANCH   2   4
ENDBRANCH   1   2
BRANCH   1   6
ATOM      6  C   UNL     1       5.362   1.566   0.801  1.00  0.00     0.047 C 
BRANCH   6   7
ATOM      7  C   UNL     1       6.135   0.461   0.230  1.00  0.00    -0.043 A 
ATOM      8  C   UNL     1       6.573  -0.597   1.011  1.00  0.00     0.008 A 
ATOM      9  C   UNL     1       6.482   0.461  -1.095  1.00  0.00     0.054 A 
ATOM     10  C   UNL     1       7.330  -1.619   0.482  1.00  0.00     0.051 A 
ATOM     11  C   UNL     1       7.241  -0.554  -1.648  1.00  0.00     0.166 A 
ATOM     12  C   UNL     1       7.667  -1.597  -0.861  1.00  0.00     0.165 A 
ATOM     13  O   UNL     1       7.702  -0.759  -2.936  1.00  0.00    -0.454 OA
ATOM     14  O   UNL     1       8.401  -2.450  -1.687  1.00  0.00    -0.454 OA
ATOM     15  C   UNL     1       8.697  -1.793  -2.898  1.00  0.00     0.468 C 
ENDBRANCH   6   7
ENDBRANCH   1   6
TORSDOF 4
ENDMDL
MODEL 2
REMARK VINA RESULT:      -7.6      2.135      2.517
REMARK SMILES O=C(O)CCc1ccc2c(c1)OCO2
REMARK SMILES IDX 4 1 2 2 1 3 3 4 5 6 6 7 7 8 11 9 8 10 10 11 9 12 12 13 14 14
REMARK SMILES IDX 13 15
REMARK H PARENT 3 5
REMARK Flexibility Score: inf
ROOT
ATOM      1  C   UNL     1       4.728   1.881   0.707  1.00  0.00     0.127 C 
ENDROOT
BRANCH   1   2
ATOM      2  C   UNL     1       4.427   1.143   1.925  1.00  0.00     0.303 C 
ATOM      3  O   UNL     1       5.159   0.306   2.456  1.00  0.00    -0.252 OA
BRANCH   2   4
ATOM      4  O   UNL     1       3.198   1.406   2.550  1.00  0.00    -0.481 OA
ATOM      5  H   UNL     1       2.559   2.000   2.044  1.00  0.00     0.296 HD
ENDBRANCH   2   4
ENDBRANCH   1   2
BRANCH   1   6
ATOM      6  C   UNL     1       6.157   2.227   0.553  1.00  0.00     0.047 C 
BRANCH   6   7
ATOM      7  C   UNL     1       6.995   1.313  -0.226  1.00  0.00    -0.043 A 
ATOM      8  C   UNL     1       8.360   1.518  -0.359  1.00  0.00     0.008 A 
ATOM      9  C   UNL     1       6.444   0.245  -0.881  1.00  0.00     0.054 A 
ATOM     10  C   UNL     1       9.143   0.680  -1.121  1.00  0.00     0.051 A 
ATOM     11  C   UNL     1       7.210  -0.610  -1.651  1.00  0.00     0.166 A 
ATOM     12  C   UNL     1       8.562  -0.396  -1.774  1.00  0.00     0.165 A 
ATOM     13  O   UNL     1       6.876  -1.732  -2.388  1.00  0.00    -0.454 OA
ATOM     14  O   UNL     1       9.057  -1.406  -2.600  1.00  0.00    -0.454 OA
ATOM     15  C   UNL     1       7.984  -2.056  -3.241  1.00  0.00     0.468 C 
ENDBRANCH   6   7
ENDBRANCH   1   6
TORSDOF 4
ENDMDL
MODEL 3
REMARK VINA RESULT:      -7.5      0.951      2.116
REMARK SMILES O=C(O)CCc1ccc2c(c1)OCO2
REMARK SMILES IDX 4 1 2 2 1 3 3 4 5 6 6 7 7 8 11 9 8 10 10 11 9 12 12 13 14 14
REMARK SMILES IDX 13 15
REMARK H PARENT 3 5
REMARK Flexibility Score: inf
ROOT
ATOM      1  C   UNL     1       5.413   2.796   0.097  1.00  0.00     0.127 C 
ENDROOT
BRANCH   1   2
ATOM      2  C   UNL     1       6.139   3.773   0.894  1.00  0.00     0.303 C 
ATOM      3  O   UNL     1       6.150   3.829   2.125  1.00  0.00    -0.252 OA
BRANCH   2   4
ATOM      4  O   UNL     1       6.892   4.736   0.204  1.00  0.00    -0.481 OA
ATOM      5  H   UNL     1       7.839   4.480  -0.026  1.00  0.00     0.296 HD
ENDBRANCH   2   4
ENDBRANCH   1   2
BRANCH   1   6
ATOM      6  C   UNL     1       5.364   1.447   0.699  1.00  0.00     0.047 C 
BRANCH   6   7
ATOM      7  C   UNL     1       6.210   0.409   0.105  1.00  0.00    -0.043 A 
ATOM      8  C   UNL     1       6.487   0.390  -1.253  1.00  0.00     0.008 A 
ATOM      9  C   UNL     1       6.722  -0.602   0.874  1.00  0.00     0.054 A 
ATOM     10  C   UNL     1       7.252  -0.605  -1.819  1.00  0.00     0.051 A 
ATOM     11  C   UNL     1       7.492  -1.611   0.328  1.00  0.00     0.166 A 
ATOM     12  C   UNL     1       7.760  -1.616  -1.019  1.00  0.00     0.165 A 
ATOM     13  O   UNL     1       8.103  -2.713   0.901  1.00  0.00    -0.454 OA
ATOM     14  O   UNL     1       8.548  -2.741  -1.269  1.00  0.00    -0.454 OA
ATOM     15  C   UNL     1       8.510  -3.599  -0.152  1.00  0.00     0.468 C 
ENDBRANCH   6   7
ENDBRANCH   1   6
TORSDOF 4
ENDMDL
MODEL 4
REMARK VINA RESULT:      -7.5      1.964      2.892
REMARK SMILES O=C(O)CCc1ccc2c(c1)OCO2
REMARK SMILES IDX 4 1 2 2 1 3 3 4 5 6 6 7 7 8 11 9 8 10 10 11 9 12 12 13 14 14
REMARK SMILES IDX 13 15
REMARK H PARENT 3 5
REMARK Flexibility Score: inf
ROOT
ATOM      1  C   UNL     1       6.395   1.340   0.583  1.00  0.00     0.127 C 
ENDROOT
BRANCH   1   2
ATOM      2  C   UNL     1       5.214   1.319   1.432  1.00  0.00     0.303 C 
ATOM      3  O   UNL     1       4.291   2.135   1.397  1.00  0.00    -0.252 OA
BRANCH   2   4
ATOM      4  O   UNL     1       5.115   0.282   2.372  1.00  0.00    -0.481 OA
ATOM      5  H   UNL     1       5.448   0.490   3.301  1.00  0.00     0.296 HD
ENDBRANCH   2   4
ENDBRANCH   1   2
BRANCH   1   6
ATOM      6  C   UNL     1       6.169   0.794  -0.773  1.00  0.00     0.047 C 
BRANCH   6   7
ATOM      7  C   UNL     1       6.946  -0.384  -1.166  1.00  0.00    -0.043 A 
ATOM      8  C   UNL     1       7.263  -0.633  -2.492  1.00  0.00     0.008 A 
ATOM      9  C   UNL     1       7.351  -1.299  -0.231  1.00  0.00     0.054 A 
ATOM     10  C   UNL     1       7.962  -1.758  -2.867  1.00  0.00     0.051 A 
ATOM     11  C   UNL     1       8.054  -2.435  -0.584  1.00  0.00     0.166 A 
ATOM     12  C   UNL     1       8.362  -2.669  -1.903  1.00  0.00     0.165 A 
ATOM     13  O   UNL     1       8.557  -3.478   0.175  1.00  0.00    -0.454 OA
ATOM     14  O   UNL     1       9.064  -3.875  -1.945  1.00  0.00    -0.454 OA
ATOM     15  C   UNL     1       8.923  -4.545  -0.714  1.00  0.00     0.468 C 
ENDBRANCH   6   7
ENDBRANCH   1   6
TORSDOF 4
ENDMDL
MODEL 5
REMARK VINA RESULT:      -7.5      1.795      5.284
REMARK SMILES O=C(O)CCc1ccc2c(c1)OCO2
REMARK SMILES IDX 4 1 2 2 1 3 3 4 5 6 6 7 7 8 11 9 8 10 10 11 9 12 12 13 14 14
REMARK SMILES IDX 13 15
REMARK H PARENT 3 5
REMARK Flexibility Score: inf
ROOT
ATOM      1  C   UNL     1       8.321  -0.322  -2.842  1.00  0.00     0.127 C 
ENDROOT
BRANCH   1   2
ATOM      2  C   UNL     1       8.478  -1.751  -3.068  1.00  0.00     0.303 C 
ATOM      3  O   UNL     1       9.544  -2.369  -3.041  1.00  0.00    -0.252 OA
BRANCH   2   4
ATOM      4  O   UNL     1       7.317  -2.491  -3.342  1.00  0.00    -0.481 OA
ATOM      5  H   UNL     1       7.241  -2.872  -4.273  1.00  0.00     0.296 HD
ENDBRANCH   2   4
ENDBRANCH   1   2
BRANCH   1   6
ATOM      6  C   UNL     1       8.771   0.127  -1.507  1.00  0.00     0.047 C 
BRANCH   6   7
ATOM      7  C   UNL     1       7.794   0.090  -0.416  1.00  0.00    -0.043 A 
ATOM      8  C   UNL     1       7.730  -0.981   0.463  1.00  0.00     0.008 A 
ATOM      9  C   UNL     1       6.885   1.101  -0.256  1.00  0.00     0.054 A 
ATOM     10  C   UNL     1       6.789  -1.033   1.467  1.00  0.00     0.051 A 
ATOM     11  C   UNL     1       5.933   1.070   0.745  1.00  0.00     0.166 A 
ATOM     12  C   UNL     1       5.881   0.003   1.610  1.00  0.00     0.165 A 
ATOM     13  O   UNL     1       4.933   1.963   1.091  1.00  0.00    -0.454 OA
ATOM     14  O   UNL     1       4.832   0.253   2.495  1.00  0.00    -0.454 OA
ATOM     15  C   UNL     1       4.037   1.304   1.999  1.00  0.00     0.468 C 
ENDBRANCH   6   7
ENDBRANCH   1   6
TORSDOF 4
ENDMDL
