@<TRIPOS>MOLECULE
/home/cewinharhar/GITHUB/reincatalyze/data/processed/docking_pred/2023-May-17-1006_maxeplen10_maxtrainstep1000_seadep16_gamma099_lrac9e-4_lrcr1e-3_sub6/d32515ef85c53a65d829162c3cbbbf13c46f52f9_ligand_6.pdbqt
 15 16 0 0 0
SMALL
GASTEIGER

@<TRIPOS>ATOM
      1  C          8.3210   -0.3220   -2.8420 C.3     1  UNL1        0.1270
      2  C          8.4780   -1.7510   -3.0680 C.2     1  UNL1        0.3030
      3  O          9.5440   -2.3690   -3.0410 O.2     1  UNL1       -0.2520
      4  O          7.3170   -2.4910   -3.3420 O.3     1  UNL1       -0.4810
      5  H          7.2410   -2.8720   -4.2730 H       1  UNL1        0.2960
      6  C          8.7710    0.1270   -1.5070 C.3     1  UNL1        0.0470
      7  C          7.7940    0.0900   -0.4160 C.2     1  UNL1       -0.0430
      8  C          7.7300   -0.9810    0.4630 C.2     1  UNL1        0.0080
      9  C          6.8850    1.1010   -0.2560 C.2     1  UNL1        0.0540
     10  C          6.7890   -1.0330    1.4670 C.2     1  UNL1        0.0510
     11  C          5.9330    1.0700    0.7450 C.2     1  UNL1        0.1660
     12  C          5.8810    0.0030    1.6100 C.2     1  UNL1        0.1650
     13  O          4.9330    1.9630    1.0910 O.2     1  UNL1       -0.4540
     14  O          4.8320    0.2530    2.4950 O.2     1  UNL1       -0.4540
     15  C          4.0370    1.3040    1.9990 C.3     1  UNL1        0.4680
@<TRIPOS>BOND
     1     5     4    1
     2     4     2    1
     3     2     3    2
     4     2     1    1
     5     1     6    1
     6     6     7    1
     7     7     9    2
     8     7     8    1
     9     9    11    1
    10     8    10    2
    11    11    13    1
    12    11    12    2
    13    13    15    1
    14    10    12    1
    15    12    14    1
    16    15    14    1
