@<TRIPOS>MOLECULE
/home/cewinharhar/GITHUB/reincatalyze/data/processed/docking_pred/2023-May-17-1006_maxeplen10_maxtrainstep1000_seadep16_gamma099_lrac9e-4_lrcr1e-3_sub6/d32515ef85c53a65d829162c3cbbbf13c46f52f9_ligand_6.pdbqt
 15 16 0 0 0
SMALL
GASTEIGER

@<TRIPOS>ATOM
      1  C          5.4250    2.8720    0.1110 C.3     1  UNL1        0.1270
      2  C          6.2550    3.8570    0.7870 C.2     1  UNL1        0.3030
      3  O          6.9150    4.7390    0.2340 O.2     1  UNL1       -0.2520
      4  O          6.3120    3.8000    2.1880 O.3     1  UNL1       -0.4810
      5  H          5.7400    3.0960    2.6290 H       1  UNL1        0.2960
      6  C          5.3620    1.5660    0.8010 C.3     1  UNL1        0.0470
      7  C          6.1350    0.4610    0.2300 C.2     1  UNL1       -0.0430
      8  C          6.5730   -0.5970    1.0110 C.2     1  UNL1        0.0080
      9  C          6.4820    0.4610   -1.0950 C.2     1  UNL1        0.0540
     10  C          7.3300   -1.6190    0.4820 C.2     1  UNL1        0.0510
     11  C          7.2410   -0.5540   -1.6480 C.2     1  UNL1        0.1660
     12  C          7.6670   -1.5970   -0.8610 C.2     1  UNL1        0.1650
     13  O          7.7020   -0.7590   -2.9360 O.2     1  UNL1       -0.4540
     14  O          8.4010   -2.4500   -1.6870 O.2     1  UNL1       -0.4540
     15  C          8.6970   -1.7930   -2.8980 C.3     1  UNL1        0.4680
@<TRIPOS>BOND
     1    13    15    1
     2    13    11    1
     3    15    14    1
     4    14    12    1
     5    11     9    1
     6    11    12    2
     7     9     7    2
     8    12    10    1
     9     1     2    1
    10     1     6    1
    11     7     6    1
    12     7     8    1
    13     3     2    2
    14    10     8    2
    15     2     4    1
    16     4     5    1
