@<TRIPOS>MOLECULE
/home/cewinharhar/GITHUB/reincatalyze/data/processed/docking_pred/2023-May-17-1006_maxeplen10_maxtrainstep1000_seadep16_gamma099_lrac9e-4_lrcr1e-3_sub6/d32515ef85c53a65d829162c3cbbbf13c46f52f9_ligand_6.pdbqt
 15 16 0 0 0
SMALL
GASTEIGER

@<TRIPOS>ATOM
      1  C          6.3950    1.3400    0.5830 C.3     1  UNL1        0.1270
      2  C          5.2140    1.3190    1.4320 C.2     1  UNL1        0.3030
      3  O          4.2910    2.1350    1.3970 O.2     1  UNL1       -0.2520
      4  O          5.1150    0.2820    2.3720 O.3     1  UNL1       -0.4810
      5  H          5.4480    0.4900    3.3010 H       1  UNL1        0.2960
      6  C          6.1690    0.7940   -0.7730 C.3     1  UNL1        0.0470
      7  C          6.9460   -0.3840   -1.1660 C.2     1  UNL1       -0.0430
      8  C          7.2630   -0.6330   -2.4920 C.2     1  UNL1        0.0080
      9  C          7.3510   -1.2990   -0.2310 C.2     1  UNL1        0.0540
     10  C          7.9620   -1.7580   -2.8670 C.2     1  UNL1        0.0510
     11  C          8.0540   -2.4350   -0.5840 C.2     1  UNL1        0.1660
     12  C          8.3620   -2.6690   -1.9030 C.2     1  UNL1        0.1650
     13  O          8.5570   -3.4780    0.1750 O.2     1  UNL1       -0.4540
     14  O          9.0640   -3.8750   -1.9450 O.2     1  UNL1       -0.4540
     15  C          8.9230   -4.5450   -0.7140 C.3     1  UNL1        0.4680
@<TRIPOS>BOND
     1    10     8    1
     2    10    12    2
     3     8     7    2
     4    14    12    1
     5    14    15    1
     6    12    11    1
     7     7     6    1
     8     7     9    1
     9     6     1    1
    10    15    13    1
    11    11     9    2
    12    11    13    1
    13     1     2    1
    14     3     2    2
    15     2     4    1
    16     4     5    1
