@<TRIPOS>MOLECULE
/home/cewinharhar/GITHUB/reincatalyze/data/processed/docking_pred/2023-May-17-1006_maxeplen10_maxtrainstep1000_seadep16_gamma099_lrac9e-4_lrcr1e-3_sub6/d32515ef85c53a65d829162c3cbbbf13c46f52f9_ligand_6.pdbqt
 15 16 0 0 0
SMALL
GASTEIGER

@<TRIPOS>ATOM
      1  C          5.4130    2.7960    0.0970 C.3     1  UNL1        0.1270
      2  C          6.1390    3.7730    0.8940 C.2     1  UNL1        0.3030
      3  O          6.1500    3.8290    2.1250 O.2     1  UNL1       -0.2520
      4  O          6.8920    4.7360    0.2040 O.3     1  UNL1       -0.4810
      5  H          7.8390    4.4800   -0.0260 H       1  UNL1        0.2960
      6  C          5.3640    1.4470    0.6990 C.3     1  UNL1        0.0470
      7  C          6.2100    0.4090    0.1050 C.2     1  UNL1       -0.0430
      8  C          6.4870    0.3900   -1.2530 C.2     1  UNL1        0.0080
      9  C          6.7220   -0.6020    0.8740 C.2     1  UNL1        0.0540
     10  C          7.2520   -0.6050   -1.8190 C.2     1  UNL1        0.0510
     11  C          7.4920   -1.6110    0.3280 C.2     1  UNL1        0.1660
     12  C          7.7600   -1.6160   -1.0190 C.2     1  UNL1        0.1650
     13  O          8.1030   -2.7130    0.9010 O.2     1  UNL1       -0.4540
     14  O          8.5480   -2.7410   -1.2690 O.2     1  UNL1       -0.4540
     15  C          8.5100   -3.5990   -0.1520 C.3     1  UNL1        0.4680
@<TRIPOS>BOND
     1    10     8    1
     2    10    12    2
     3    14    12    1
     4    14    15    1
     5     8     7    2
     6    12    11    1
     7    15    13    1
     8     5     4    1
     9     1     6    1
    10     1     2    1
    11     7     6    1
    12     7     9    1
    13     4     2    1
    14    11     9    2
    15    11    13    1
    16     2     3    2
