@<TRIPOS>MOLECULE
/home/cewinharhar/GITHUB/reincatalyze/data/processed/docking_pred/2023-May-17-1006_maxeplen10_maxtrainstep1000_seadep16_gamma099_lrac9e-4_lrcr1e-3_sub6/d3a7bace4d7284fd134c29c8ba069397c7215f06_ligand_6.pdbqt
 15 16 0 0 0
SMALL
GASTEIGER

@<TRIPOS>ATOM
      1  C          5.4190    2.8670    0.1210 C.3     1  UNL1        0.1270
      2  C          6.2520    3.8500    0.7960 C.2     1  UNL1        0.3030
      3  O          6.9110    4.7330    0.2440 O.2     1  UNL1       -0.2520
      4  O          6.3120    3.7900    2.1970 O.3     1  UNL1       -0.4810
      5  H          7.1140    3.3200    2.5890 H       1  UNL1        0.2960
      6  C          5.3600    1.5590    0.8060 C.3     1  UNL1        0.0470
      7  C          6.1350    0.4570    0.2310 C.2     1  UNL1       -0.0430
      8  C          6.5750   -0.6030    1.0080 C.2     1  UNL1        0.0080
      9  C          6.4840    0.4640   -1.0940 C.2     1  UNL1        0.0540
     10  C          7.3350   -1.6210    0.4760 C.2     1  UNL1        0.0510
     11  C          7.2450   -0.5470   -1.6500 C.2     1  UNL1        0.1660
     12  C          7.6720   -1.5930   -0.8680 C.2     1  UNL1        0.1650
     13  O          7.7070   -0.7470   -2.9390 O.2     1  UNL1       -0.4540
     14  O          8.4080   -2.4420   -1.6960 O.2     1  UNL1       -0.4540
     15  C          8.7040   -1.7790   -2.9040 C.3     1  UNL1        0.4680
@<TRIPOS>BOND
     1    13    15    1
     2    13    11    1
     3    15    14    1
     4    14    12    1
     5    11     9    1
     6    11    12    2
     7     9     7    2
     8    12    10    1
     9     1     2    1
    10     1     6    1
    11     7     6    1
    12     7     8    1
    13     3     2    2
    14    10     8    2
    15     2     4    1
    16     4     5    1
