@<TRIPOS>MOLECULE
/home/cewinharhar/GITHUB/reincatalyze/data/processed/docking_pred/2023-May-17-1006_maxeplen10_maxtrainstep1000_seadep16_gamma099_lrac9e-4_lrcr1e-3_sub6/d3a7bace4d7284fd134c29c8ba069397c7215f06_ligand_6.pdbqt
 15 16 0 0 0
SMALL
GASTEIGER

@<TRIPOS>ATOM
      1  C          6.4210    1.2770    0.7360 C.3     1  UNL1        0.1270
      2  C          5.2570    1.1270    1.5950 C.2     1  UNL1        0.3030
      3  O          5.1150    0.2670    2.4660 O.2     1  UNL1       -0.2520
      4  O          4.2050    2.0390    1.4190 O.3     1  UNL1       -0.4810
      5  H          4.4670    3.0060    1.3050 H       1  UNL1        0.2960
      6  C          6.2110    0.8030   -0.6480 C.3     1  UNL1        0.0470
      7  C          6.9650   -0.3750   -1.0830 C.2     1  UNL1       -0.0430
      8  C          7.2450   -0.6030   -2.4210 C.2     1  UNL1        0.0080
      9  C          7.3860   -1.3110   -0.1750 C.2     1  UNL1        0.0540
     10  C          7.9230   -1.7280   -2.8350 C.2     1  UNL1        0.0510
     11  C          8.0690   -2.4470   -0.5670 C.2     1  UNL1        0.1660
     12  C          8.3400   -2.6600   -1.8970 C.2     1  UNL1        0.1650
     13  O          8.5810   -3.5070    0.1600 O.2     1  UNL1       -0.4540
     14  O          9.0280   -3.8710   -1.9790 O.2     1  UNL1       -0.4540
     15  C          8.9140   -4.5610   -0.7570 C.3     1  UNL1        0.4680
@<TRIPOS>BOND
     1    10     8    1
     2    10    12    2
     3     8     7    2
     4    14    12    1
     5    14    15    1
     6    12    11    1
     7     7     6    1
     8     7     9    1
     9    15    13    1
    10     6     1    1
    11    11     9    2
    12    11    13    1
    13     1     2    1
    14     5     4    1
    15     4     2    1
    16     2     3    2
