MODEL 1
REMARK VINA RESULT:      -7.6      0.000      0.000
REMARK SMILES O=C(O)CCc1ccc2c(c1)OCO2
REMARK SMILES IDX 4 1 2 2 1 3 3 4 5 6 6 7 7 8 11 9 8 10 10 11 9 12 12 13 14 14
REMARK SMILES IDX 13 15
REMARK H PARENT 3 5
REMARK Flexibility Score: inf
ROOT
ATOM      1  C   UNL     1       5.419   2.867   0.121  1.00  0.00     0.127 C 
ENDROOT
BRANCH   1   2
ATOM      2  C   UNL     1       6.252   3.850   0.796  1.00  0.00     0.303 C 
ATOM      3  O   UNL     1       6.911   4.733   0.244  1.00  0.00    -0.252 OA
BRANCH   2   4
ATOM      4  O   UNL     1       6.312   3.790   2.197  1.00  0.00    -0.481 OA
ATOM      5  H   UNL     1       7.114   3.320   2.589  1.00  0.00     0.296 HD
ENDBRANCH   2   4
ENDBRANCH   1   2
BRANCH   1   6
ATOM      6  C   UNL     1       5.360   1.559   0.806  1.00  0.00     0.047 C 
BRANCH   6   7
ATOM      7  C   UNL     1       6.135   0.457   0.231  1.00  0.00    -0.043 A 
ATOM      8  C   UNL     1       6.575  -0.603   1.008  1.00  0.00     0.008 A 
ATOM      9  C   UNL     1       6.484   0.464  -1.094  1.00  0.00     0.054 A 
ATOM     10  C   UNL     1       7.335  -1.621   0.476  1.00  0.00     0.051 A 
ATOM     11  C   UNL     1       7.245  -0.547  -1.650  1.00  0.00     0.166 A 
ATOM     12  C   UNL     1       7.672  -1.593  -0.868  1.00  0.00     0.165 A 
ATOM     13  O   UNL     1       7.707  -0.747  -2.939  1.00  0.00    -0.454 OA
ATOM     14  O   UNL     1       8.408  -2.442  -1.696  1.00  0.00    -0.454 OA
ATOM     15  C   UNL     1       8.704  -1.779  -2.904  1.00  0.00     0.468 C 
ENDBRANCH   6   7
ENDBRANCH   1   6
TORSDOF 4
ENDMDL
MODEL 2
REMARK VINA RESULT:      -7.6      2.130      2.526
REMARK SMILES O=C(O)CCc1ccc2c(c1)OCO2
REMARK SMILES IDX 4 1 2 2 1 3 3 4 5 6 6 7 7 8 11 9 8 10 10 11 9 12 12 13 14 14
REMARK SMILES IDX 13 15
REMARK H PARENT 3 5
REMARK Flexibility Score: inf
ROOT
ATOM      1  C   UNL     1       4.712   1.867   0.691  1.00  0.00     0.127 C 
ENDROOT
BRANCH   1   2
ATOM      2  C   UNL     1       4.398   1.155   1.919  1.00  0.00     0.303 C 
ATOM      3  O   UNL     1       5.116   0.315   2.465  1.00  0.00    -0.252 OA
BRANCH   2   4
ATOM      4  O   UNL     1       3.172   1.448   2.539  1.00  0.00    -0.481 OA
ATOM      5  H   UNL     1       2.483   0.712   2.531  1.00  0.00     0.296 HD
ENDBRANCH   2   4
ENDBRANCH   1   2
BRANCH   1   6
ATOM      6  C   UNL     1       6.140   2.227   0.554  1.00  0.00     0.047 C 
BRANCH   6   7
ATOM      7  C   UNL     1       6.992   1.328  -0.227  1.00  0.00    -0.043 A 
ATOM      8  C   UNL     1       8.349   1.569  -0.382  1.00  0.00     0.008 A 
ATOM      9  C   UNL     1       6.463   0.237  -0.862  1.00  0.00     0.054 A 
ATOM     10  C   UNL     1       9.145   0.744  -1.145  1.00  0.00     0.051 A 
ATOM     11  C   UNL     1       7.242  -0.605  -1.633  1.00  0.00     0.166 A 
ATOM     12  C   UNL     1       8.586  -0.355  -1.777  1.00  0.00     0.165 A 
ATOM     13  O   UNL     1       6.929  -1.745  -2.353  1.00  0.00    -0.454 OA
ATOM     14  O   UNL     1       9.097  -1.360  -2.599  1.00  0.00    -0.454 OA
ATOM     15  C   UNL     1       8.035  -2.048  -3.217  1.00  0.00     0.468 C 
ENDBRANCH   6   7
ENDBRANCH   1   6
TORSDOF 4
ENDMDL
MODEL 3
REMARK VINA RESULT:      -7.5      2.008      2.988
REMARK SMILES O=C(O)CCc1ccc2c(c1)OCO2
REMARK SMILES IDX 4 1 2 2 1 3 3 4 5 6 6 7 7 8 11 9 8 10 10 11 9 12 12 13 14 14
REMARK SMILES IDX 13 15
REMARK H PARENT 3 5
REMARK Flexibility Score: inf
ROOT
ATOM      1  C   UNL     1       6.421   1.277   0.736  1.00  0.00     0.127 C 
ENDROOT
BRANCH   1   2
ATOM      2  C   UNL     1       5.257   1.127   1.595  1.00  0.00     0.303 C 
ATOM      3  O   UNL     1       5.115   0.267   2.466  1.00  0.00    -0.252 OA
BRANCH   2   4
ATOM      4  O   UNL     1       4.205   2.039   1.419  1.00  0.00    -0.481 OA
ATOM      5  H   UNL     1       4.467   3.006   1.305  1.00  0.00     0.296 HD
ENDBRANCH   2   4
ENDBRANCH   1   2
BRANCH   1   6
ATOM      6  C   UNL     1       6.211   0.803  -0.648  1.00  0.00     0.047 C 
BRANCH   6   7
ATOM      7  C   UNL     1       6.965  -0.375  -1.083  1.00  0.00    -0.043 A 
ATOM      8  C   UNL     1       7.245  -0.603  -2.421  1.00  0.00     0.008 A 
ATOM      9  C   UNL     1       7.386  -1.311  -0.175  1.00  0.00     0.054 A 
ATOM     10  C   UNL     1       7.923  -1.728  -2.835  1.00  0.00     0.051 A 
ATOM     11  C   UNL     1       8.069  -2.447  -0.567  1.00  0.00     0.166 A 
ATOM     12  C   UNL     1       8.340  -2.660  -1.897  1.00  0.00     0.165 A 
ATOM     13  O   UNL     1       8.581  -3.507   0.160  1.00  0.00    -0.454 OA
ATOM     14  O   UNL     1       9.028  -3.871  -1.979  1.00  0.00    -0.454 OA
ATOM     15  C   UNL     1       8.914  -4.561  -0.757  1.00  0.00     0.468 C 
ENDBRANCH   6   7
ENDBRANCH   1   6
TORSDOF 4
ENDMDL
MODEL 4
REMARK VINA RESULT:      -7.5      1.807      5.284
REMARK SMILES O=C(O)CCc1ccc2c(c1)OCO2
REMARK SMILES IDX 4 1 2 2 1 3 3 4 5 6 6 7 7 8 11 9 8 10 10 11 9 12 12 13 14 14
REMARK SMILES IDX 13 15
REMARK H PARENT 3 5
REMARK Flexibility Score: inf
ROOT
ATOM      1  C   UNL     1       8.310  -0.318  -2.826  1.00  0.00     0.127 C 
ENDROOT
BRANCH   1   2
ATOM      2  C   UNL     1       8.474  -1.744  -3.062  1.00  0.00     0.303 C 
ATOM      3  O   UNL     1       9.543  -2.357  -3.033  1.00  0.00    -0.252 OA
BRANCH   2   4
ATOM      4  O   UNL     1       7.318  -2.487  -3.346  1.00  0.00    -0.481 OA
ATOM      5  H   UNL     1       7.272  -2.907  -4.261  1.00  0.00     0.296 HD
ENDBRANCH   2   4
ENDBRANCH   1   2
BRANCH   1   6
ATOM      6  C   UNL     1       8.767   0.127  -1.492  1.00  0.00     0.047 C 
BRANCH   6   7
ATOM      7  C   UNL     1       7.796   0.089  -0.397  1.00  0.00    -0.043 A 
ATOM      8  C   UNL     1       7.753  -0.970   0.498  1.00  0.00     0.008 A 
ATOM      9  C   UNL     1       6.870   1.087  -0.247  1.00  0.00     0.054 A 
ATOM     10  C   UNL     1       6.817  -1.024   1.506  1.00  0.00     0.051 A 
ATOM     11  C   UNL     1       5.922   1.054   0.759  1.00  0.00     0.166 A 
ATOM     12  C   UNL     1       5.892  -0.001   1.638  1.00  0.00     0.165 A 
ATOM     13  O   UNL     1       4.909   1.935   1.095  1.00  0.00    -0.454 OA
ATOM     14  O   UNL     1       4.842   0.243   2.525  1.00  0.00    -0.454 OA
ATOM     15  C   UNL     1       4.028   1.274   2.016  1.00  0.00     0.468 C 
ENDBRANCH   6   7
ENDBRANCH   1   6
TORSDOF 4
ENDMDL
