@<TRIPOS>MOLECULE
/home/cewinharhar/GITHUB/reincatalyze/data/processed/docking_pred/2023-May-17-1006_maxeplen10_maxtrainstep1000_seadep16_gamma099_lrac9e-4_lrcr1e-3_sub6/d3a7bace4d7284fd134c29c8ba069397c7215f06_ligand_6.pdbqt
 15 16 0 0 0
SMALL
GASTEIGER

@<TRIPOS>ATOM
      1  C          8.3100   -0.3180   -2.8260 C.3     1  UNL1        0.1270
      2  C          8.4740   -1.7440   -3.0620 C.2     1  UNL1        0.3030
      3  O          9.5430   -2.3570   -3.0330 O.2     1  UNL1       -0.2520
      4  O          7.3180   -2.4870   -3.3460 O.3     1  UNL1       -0.4810
      5  H          7.2720   -2.9070   -4.2610 H       1  UNL1        0.2960
      6  C          8.7670    0.1270   -1.4920 C.3     1  UNL1        0.0470
      7  C          7.7960    0.0890   -0.3970 C.2     1  UNL1       -0.0430
      8  C          7.7530   -0.9700    0.4980 C.2     1  UNL1        0.0080
      9  C          6.8700    1.0870   -0.2470 C.2     1  UNL1        0.0540
     10  C          6.8170   -1.0240    1.5060 C.2     1  UNL1        0.0510
     11  C          5.9220    1.0540    0.7590 C.2     1  UNL1        0.1660
     12  C          5.8920   -0.0010    1.6380 C.2     1  UNL1        0.1650
     13  O          4.9090    1.9350    1.0950 O.2     1  UNL1       -0.4540
     14  O          4.8420    0.2430    2.5250 O.2     1  UNL1       -0.4540
     15  C          4.0280    1.2740    2.0160 C.3     1  UNL1        0.4680
@<TRIPOS>BOND
     1     5     4    1
     2     4     2    1
     3     2     3    2
     4     2     1    1
     5     1     6    1
     6     6     7    1
     7     7     9    2
     8     7     8    1
     9     9    11    1
    10     8    10    2
    11    11    13    1
    12    11    12    2
    13    13    15    1
    14    10    12    1
    15    12    14    1
    16    15    14    1
