@<TRIPOS>MOLECULE
/home/cewinharhar/GITHUB/reincatalyze/data/processed/docking_pred/2023-May-17-1006_maxeplen10_maxtrainstep1000_seadep16_gamma099_lrac9e-4_lrcr1e-3_sub6/d4292dbdc665c4d20b6271b363b9823f318ec372_ligand_6.pdbqt
 15 16 0 0 0
SMALL
GASTEIGER

@<TRIPOS>ATOM
      1  C          5.4650    2.8490    0.4090 C.3     1  UNL1        0.1270
      2  C          6.2520    3.9590    0.9220 C.2     1  UNL1        0.3030
      3  O          6.8720    4.7750    0.2370 O.2     1  UNL1       -0.2520
      4  O          6.3100    4.1180    2.3150 O.3     1  UNL1       -0.4810
      5  H          5.5380    4.6060    2.7400 H       1  UNL1        0.2960
      6  C          5.5420    1.6260    1.2370 C.3     1  UNL1        0.0470
      7  C          6.3220    0.5020    0.7140 C.2     1  UNL1       -0.0430
      8  C          7.2570   -0.1570    1.4980 C.2     1  UNL1        0.0080
      9  C          6.1780    0.0930   -0.5850 C.2     1  UNL1        0.0540
     10  C          8.0170   -1.1910    0.9970 C.2     1  UNL1        0.0510
     11  C          6.9290   -0.9420   -1.1080 C.2     1  UNL1        0.1660
     12  C          7.8510   -1.5870   -0.3200 C.2     1  UNL1        0.1650
     13  O          6.9520   -1.5150   -2.3680 O.2     1  UNL1       -0.4540
     14  O          8.4440   -2.5690   -1.1150 O.2     1  UNL1       -0.4540
     15  C          8.1260   -2.3350   -2.4670 C.3     1  UNL1        0.4680
@<TRIPOS>BOND
     1    15    13    1
     2    15    14    1
     3    13    11    1
     4    14    12    1
     5    11     9    1
     6    11    12    2
     7     9     7    2
     8    12    10    1
     9     3     2    2
    10     1     2    1
    11     1     6    1
    12     7     6    1
    13     7     8    1
    14     2     4    1
    15    10     8    2
    16     4     5    1
