@<TRIPOS>MOLECULE
/home/cewinharhar/GITHUB/reincatalyze/data/processed/docking_pred/2023-May-17-1006_maxeplen10_maxtrainstep1000_seadep16_gamma099_lrac9e-4_lrcr1e-3_sub6/d4292dbdc665c4d20b6271b363b9823f318ec372_ligand_6.pdbqt
 15 16 0 0 0
SMALL
GASTEIGER

@<TRIPOS>ATOM
      1  C          8.4900   -0.4450   -3.0070 C.3     1  UNL1        0.1270
      2  C          8.5430   -1.8980   -3.0490 C.2     1  UNL1        0.3030
      3  O          7.5970   -2.6560   -2.8310 O.2     1  UNL1       -0.2520
      4  O          9.7760   -2.4890   -3.3660 O.3     1  UNL1       -0.4810
      5  H         10.5600   -1.8620   -3.4580 H       1  UNL1        0.2960
      6  C          9.0320    0.1400   -1.7620 C.3     1  UNL1        0.0470
      7  C          8.1390    0.2120   -0.6030 C.2     1  UNL1       -0.0430
      8  C          8.3620   -0.5520    0.5320 C.2     1  UNL1        0.0080
      9  C          7.0290    1.0130   -0.6240 C.2     1  UNL1        0.0540
     10  C          7.5040   -0.5130    1.6080 C.2     1  UNL1        0.0510
     11  C          6.1530    1.0690    0.4440 C.2     1  UNL1        0.1660
     12  C          6.3880    0.3070    1.5630 C.2     1  UNL1        0.1650
     13  O          4.9900    1.7920    0.6420 O.2     1  UNL1       -0.4540
     14  O          5.3480    0.5720    2.4560 O.2     1  UNL1       -0.4540
     15  C          4.3110    1.2480    1.7830 C.3     1  UNL1        0.4680
@<TRIPOS>BOND
     1     5     4    1
     2     4     2    1
     3     2     1    1
     4     2     3    2
     5     1     6    1
     6     6     7    1
     7     9     7    2
     8     9    11    1
     9     7     8    1
    10    11    13    1
    11    11    12    2
    12     8    10    2
    13    13    15    1
    14    12    10    1
    15    12    14    1
    16    15    14    1
