@<TRIPOS>MOLECULE
/home/cewinharhar/GITHUB/reincatalyze/data/processed/docking_pred/2023-May-17-1006_maxeplen10_maxtrainstep1000_seadep16_gamma099_lrac9e-4_lrcr1e-3_sub6/d4292dbdc665c4d20b6271b363b9823f318ec372_ligand_6.pdbqt
 15 16 0 0 0
SMALL
GASTEIGER

@<TRIPOS>ATOM
      1  C          6.3490    1.1660    0.7360 C.3     1  UNL1        0.1270
      2  C          5.0900    1.2850    1.4550 C.2     1  UNL1        0.3030
      3  O          4.2330    2.1490    1.2630 O.2     1  UNL1       -0.2520
      4  O          4.8270    0.3360    2.4550 O.3     1  UNL1       -0.4810
      5  H          4.0850   -0.3200    2.2630 H       1  UNL1        0.2960
      6  C          6.1970    0.7350   -0.6700 C.3     1  UNL1        0.0470
      7  C          6.9650   -0.4330   -1.1070 C.2     1  UNL1       -0.0430
      8  C          7.2650   -0.6450   -2.4440 C.2     1  UNL1        0.0080
      9  C          7.3790   -1.3760   -0.2040 C.2     1  UNL1        0.0540
     10  C          7.9560   -1.7610   -2.8600 C.2     1  UNL1        0.0510
     11  C          8.0740   -2.5040   -0.5980 C.2     1  UNL1        0.1660
     12  C          8.3650   -2.7000   -1.9270 C.2     1  UNL1        0.1650
     13  O          8.5830   -3.5690    0.1240 O.2     1  UNL1       -0.4540
     14  O          9.0630   -3.9060   -2.0120 O.2     1  UNL1       -0.4540
     15  C          8.9350   -4.6110   -0.7990 C.3     1  UNL1        0.4680
@<TRIPOS>BOND
     1    10     8    1
     2    10    12    2
     3     8     7    2
     4    14    12    1
     5    14    15    1
     6    12    11    1
     7     7     6    1
     8     7     9    1
     9    15    13    1
    10     6     1    1
    11    11     9    2
    12    11    13    1
    13     1     2    1
    14     3     2    2
    15     2     4    1
    16     5     4    1
