@<TRIPOS>MOLECULE
/home/cewinharhar/GITHUB/reincatalyze/data/processed/docking_pred/2023-May-17-1006_maxeplen10_maxtrainstep1000_seadep16_gamma099_lrac9e-4_lrcr1e-3_sub6/d4292dbdc665c4d20b6271b363b9823f318ec372_ligand_6.pdbqt
 15 16 0 0 0
SMALL
GASTEIGER

@<TRIPOS>ATOM
      1  C          4.6750    1.8350    0.7030 C.3     1  UNL1        0.1270
      2  C          4.2990    1.1860    1.9490 C.2     1  UNL1        0.3030
      3  O          3.2380    1.3540    2.5540 O.2     1  UNL1       -0.2520
      4  O          5.2220    0.2910    2.5130 O.3     1  UNL1       -0.4810
      5  H          5.8740    0.6820    3.1750 H       1  UNL1        0.2960
      6  C          6.1150    2.1550    0.6040 C.3     1  UNL1        0.0470
      7  C          6.9520    1.2640   -0.2020 C.2     1  UNL1       -0.0430
      8  C          8.3040    1.5110   -0.3870 C.2     1  UNL1        0.0080
      9  C          6.4120    0.1750   -0.8320 C.2     1  UNL1        0.0540
     10  C          9.0850    0.6940   -1.1730 C.2     1  UNL1        0.0510
     11  C          7.1760   -0.6590   -1.6250 C.2     1  UNL1        0.1660
     12  C          8.5150   -0.4030   -1.7990 C.2     1  UNL1        0.1650
     13  O          6.8510   -1.7960   -2.3440 O.2     1  UNL1       -0.4540
     14  O          9.0110   -1.4020   -2.6380 O.2     1  UNL1       -0.4540
     15  C          7.9370   -2.0900   -3.2360 C.3     1  UNL1        0.4680
@<TRIPOS>BOND
     1    15    14    1
     2    15    13    1
     3    14    12    1
     4    13    11    1
     5    12    11    2
     6    12    10    1
     7    11     9    1
     8    10     8    2
     9     9     7    2
    10     8     7    1
    11     7     6    1
    12     6     1    1
    13     1     2    1
    14     2     4    1
    15     2     3    2
    16     4     5    1
