MODEL 1
REMARK VINA RESULT:      -7.9      0.000      0.000
REMARK SMILES O=C(O)CCc1ccc2c(c1)OCO2
REMARK SMILES IDX 4 1 2 2 1 3 3 4 5 6 6 7 7 8 11 9 8 10 10 11 9 12 12 13 14 14
REMARK SMILES IDX 13 15
REMARK H PARENT 3 5
REMARK Flexibility Score: inf
ROOT
ATOM      1  C   UNL     1       4.675   1.835   0.703  1.00  0.00     0.127 C 
ENDROOT
BRANCH   1   2
ATOM      2  C   UNL     1       4.299   1.186   1.949  1.00  0.00     0.303 C 
ATOM      3  O   UNL     1       3.238   1.354   2.554  1.00  0.00    -0.252 OA
BRANCH   2   4
ATOM      4  O   UNL     1       5.222   0.291   2.513  1.00  0.00    -0.481 OA
ATOM      5  H   UNL     1       5.874   0.682   3.175  1.00  0.00     0.296 HD
ENDBRANCH   2   4
ENDBRANCH   1   2
BRANCH   1   6
ATOM      6  C   UNL     1       6.115   2.155   0.604  1.00  0.00     0.047 C 
BRANCH   6   7
ATOM      7  C   UNL     1       6.952   1.264  -0.202  1.00  0.00    -0.043 A 
ATOM      8  C   UNL     1       8.304   1.511  -0.387  1.00  0.00     0.008 A 
ATOM      9  C   UNL     1       6.412   0.175  -0.832  1.00  0.00     0.054 A 
ATOM     10  C   UNL     1       9.085   0.694  -1.173  1.00  0.00     0.051 A 
ATOM     11  C   UNL     1       7.176  -0.659  -1.625  1.00  0.00     0.166 A 
ATOM     12  C   UNL     1       8.515  -0.403  -1.799  1.00  0.00     0.165 A 
ATOM     13  O   UNL     1       6.851  -1.796  -2.344  1.00  0.00    -0.454 OA
ATOM     14  O   UNL     1       9.011  -1.402  -2.638  1.00  0.00    -0.454 OA
ATOM     15  C   UNL     1       7.937  -2.090  -3.236  1.00  0.00     0.468 C 
ENDBRANCH   6   7
ENDBRANCH   1   6
TORSDOF 4
ENDMDL
MODEL 2
REMARK VINA RESULT:      -7.8      1.878      2.413
REMARK SMILES O=C(O)CCc1ccc2c(c1)OCO2
REMARK SMILES IDX 4 1 2 2 1 3 3 4 5 6 6 7 7 8 11 9 8 10 10 11 9 12 12 13 14 14
REMARK SMILES IDX 13 15
REMARK H PARENT 3 5
REMARK Flexibility Score: inf
ROOT
ATOM      1  C   UNL     1       6.349   1.166   0.736  1.00  0.00     0.127 C 
ENDROOT
BRANCH   1   2
ATOM      2  C   UNL     1       5.090   1.285   1.455  1.00  0.00     0.303 C 
ATOM      3  O   UNL     1       4.233   2.149   1.263  1.00  0.00    -0.252 OA
BRANCH   2   4
ATOM      4  O   UNL     1       4.827   0.336   2.455  1.00  0.00    -0.481 OA
ATOM      5  H   UNL     1       4.085  -0.320   2.263  1.00  0.00     0.296 HD
ENDBRANCH   2   4
ENDBRANCH   1   2
BRANCH   1   6
ATOM      6  C   UNL     1       6.197   0.735  -0.670  1.00  0.00     0.047 C 
BRANCH   6   7
ATOM      7  C   UNL     1       6.965  -0.433  -1.107  1.00  0.00    -0.043 A 
ATOM      8  C   UNL     1       7.265  -0.645  -2.444  1.00  0.00     0.008 A 
ATOM      9  C   UNL     1       7.379  -1.376  -0.204  1.00  0.00     0.054 A 
ATOM     10  C   UNL     1       7.956  -1.761  -2.860  1.00  0.00     0.051 A 
ATOM     11  C   UNL     1       8.074  -2.504  -0.598  1.00  0.00     0.166 A 
ATOM     12  C   UNL     1       8.365  -2.700  -1.927  1.00  0.00     0.165 A 
ATOM     13  O   UNL     1       8.583  -3.569   0.124  1.00  0.00    -0.454 OA
ATOM     14  O   UNL     1       9.063  -3.906  -2.012  1.00  0.00    -0.454 OA
ATOM     15  C   UNL     1       8.935  -4.611  -0.799  1.00  0.00     0.468 C 
ENDBRANCH   6   7
ENDBRANCH   1   6
TORSDOF 4
ENDMDL
MODEL 3
REMARK VINA RESULT:      -7.7      2.270      2.528
REMARK SMILES O=C(O)CCc1ccc2c(c1)OCO2
REMARK SMILES IDX 4 1 2 2 1 3 3 4 5 6 6 7 7 8 11 9 8 10 10 11 9 12 12 13 14 14
REMARK SMILES IDX 13 15
REMARK H PARENT 3 5
REMARK Flexibility Score: inf
ROOT
ATOM      1  C   UNL     1       5.465   2.849   0.409  1.00  0.00     0.127 C 
ENDROOT
BRANCH   1   2
ATOM      2  C   UNL     1       6.252   3.959   0.922  1.00  0.00     0.303 C 
ATOM      3  O   UNL     1       6.872   4.775   0.237  1.00  0.00    -0.252 OA
BRANCH   2   4
ATOM      4  O   UNL     1       6.310   4.118   2.315  1.00  0.00    -0.481 OA
ATOM      5  H   UNL     1       5.538   4.606   2.740  1.00  0.00     0.296 HD
ENDBRANCH   2   4
ENDBRANCH   1   2
BRANCH   1   6
ATOM      6  C   UNL     1       5.542   1.626   1.237  1.00  0.00     0.047 C 
BRANCH   6   7
ATOM      7  C   UNL     1       6.322   0.502   0.714  1.00  0.00    -0.043 A 
ATOM      8  C   UNL     1       7.257  -0.157   1.498  1.00  0.00     0.008 A 
ATOM      9  C   UNL     1       6.178   0.093  -0.585  1.00  0.00     0.054 A 
ATOM     10  C   UNL     1       8.017  -1.191   0.997  1.00  0.00     0.051 A 
ATOM     11  C   UNL     1       6.929  -0.942  -1.108  1.00  0.00     0.166 A 
ATOM     12  C   UNL     1       7.851  -1.587  -0.320  1.00  0.00     0.165 A 
ATOM     13  O   UNL     1       6.952  -1.515  -2.368  1.00  0.00    -0.454 OA
ATOM     14  O   UNL     1       8.444  -2.569  -1.115  1.00  0.00    -0.454 OA
ATOM     15  C   UNL     1       8.126  -2.335  -2.467  1.00  0.00     0.468 C 
ENDBRANCH   6   7
ENDBRANCH   1   6
TORSDOF 4
ENDMDL
MODEL 4
REMARK VINA RESULT:      -7.3      2.580      2.900
REMARK SMILES O=C(O)CCc1ccc2c(c1)OCO2
REMARK SMILES IDX 4 1 2 2 1 3 3 4 5 6 6 7 7 8 11 9 8 10 10 11 9 12 12 13 14 14
REMARK SMILES IDX 13 15
REMARK H PARENT 3 5
REMARK Flexibility Score: inf
ROOT
ATOM      1  C   UNL     1       5.726   2.545   0.722  1.00  0.00     0.127 C 
ENDROOT
BRANCH   1   2
ATOM      2  C   UNL     1       6.264   3.814   1.186  1.00  0.00     0.303 C 
ATOM      3  O   UNL     1       6.289   4.197   2.357  1.00  0.00    -0.252 OA
BRANCH   2   4
ATOM      4  O   UNL     1       6.802   4.678   0.220  1.00  0.00    -0.481 OA
ATOM      5  H   UNL     1       7.636   4.358  -0.248  1.00  0.00     0.296 HD
ENDBRANCH   2   4
ENDBRANCH   1   2
BRANCH   1   6
ATOM      6  C   UNL     1       6.295   1.365   1.409  1.00  0.00     0.047 C 
BRANCH   6   7
ATOM      7  C   UNL     1       6.799   0.273   0.573  1.00  0.00    -0.043 A 
ATOM      8  C   UNL     1       6.519   0.210  -0.783  1.00  0.00     0.008 A 
ATOM      9  C   UNL     1       7.535  -0.744   1.120  1.00  0.00     0.054 A 
ATOM     10  C   UNL     1       6.963  -0.835  -1.563  1.00  0.00     0.051 A 
ATOM     11  C   UNL     1       7.991  -1.803   0.357  1.00  0.00     0.166 A 
ATOM     12  C   UNL     1       7.707  -1.852  -0.987  1.00  0.00     0.165 A 
ATOM     13  O   UNL     1       8.738  -2.920   0.688  1.00  0.00    -0.454 OA
ATOM     14  O   UNL     1       8.291  -3.020  -1.480  1.00  0.00    -0.454 OA
ATOM     15  C   UNL     1       8.664  -3.849  -0.404  1.00  0.00     0.468 C 
ENDBRANCH   6   7
ENDBRANCH   1   6
TORSDOF 4
ENDMDL
MODEL 5
REMARK VINA RESULT:      -7.3      1.490      5.309
REMARK SMILES O=C(O)CCc1ccc2c(c1)OCO2
REMARK SMILES IDX 4 1 2 2 1 3 3 4 5 6 6 7 7 8 11 9 8 10 10 11 9 12 12 13 14 14
REMARK SMILES IDX 13 15
REMARK H PARENT 3 5
REMARK Flexibility Score: inf
ROOT
ATOM      1  C   UNL     1       8.490  -0.445  -3.007  1.00  0.00     0.127 C 
ENDROOT
BRANCH   1   2
ATOM      2  C   UNL     1       8.543  -1.898  -3.049  1.00  0.00     0.303 C 
ATOM      3  O   UNL     1       7.597  -2.656  -2.831  1.00  0.00    -0.252 OA
BRANCH   2   4
ATOM      4  O   UNL     1       9.776  -2.489  -3.366  1.00  0.00    -0.481 OA
ATOM      5  H   UNL     1      10.560  -1.862  -3.458  1.00  0.00     0.296 HD
ENDBRANCH   2   4
ENDBRANCH   1   2
BRANCH   1   6
ATOM      6  C   UNL     1       9.032   0.140  -1.762  1.00  0.00     0.047 C 
BRANCH   6   7
ATOM      7  C   UNL     1       8.139   0.212  -0.603  1.00  0.00    -0.043 A 
ATOM      8  C   UNL     1       8.362  -0.552   0.532  1.00  0.00     0.008 A 
ATOM      9  C   UNL     1       7.029   1.013  -0.624  1.00  0.00     0.054 A 
ATOM     10  C   UNL     1       7.504  -0.513   1.608  1.00  0.00     0.051 A 
ATOM     11  C   UNL     1       6.153   1.069   0.444  1.00  0.00     0.166 A 
ATOM     12  C   UNL     1       6.388   0.307   1.563  1.00  0.00     0.165 A 
ATOM     13  O   UNL     1       4.990   1.792   0.642  1.00  0.00    -0.454 OA
ATOM     14  O   UNL     1       5.348   0.572   2.456  1.00  0.00    -0.454 OA
ATOM     15  C   UNL     1       4.311   1.248   1.783  1.00  0.00     0.468 C 
ENDBRANCH   6   7
ENDBRANCH   1   6
TORSDOF 4
ENDMDL
