@<TRIPOS>MOLECULE
/home/cewinharhar/GITHUB/reincatalyze/data/processed/docking_pred/2023-May-17-1006_maxeplen10_maxtrainstep1000_seadep16_gamma099_lrac9e-4_lrcr1e-3_sub6/d4292dbdc665c4d20b6271b363b9823f318ec372_ligand_6.pdbqt
 15 16 0 0 0
SMALL
GASTEIGER

@<TRIPOS>ATOM
      1  C          5.7260    2.5450    0.7220 C.3     1  UNL1        0.1270
      2  C          6.2640    3.8140    1.1860 C.2     1  UNL1        0.3030
      3  O          6.2890    4.1970    2.3570 O.2     1  UNL1       -0.2520
      4  O          6.8020    4.6780    0.2200 O.3     1  UNL1       -0.4810
      5  H          7.6360    4.3580   -0.2480 H       1  UNL1        0.2960
      6  C          6.2950    1.3650    1.4090 C.3     1  UNL1        0.0470
      7  C          6.7990    0.2730    0.5730 C.2     1  UNL1       -0.0430
      8  C          6.5190    0.2100   -0.7830 C.2     1  UNL1        0.0080
      9  C          7.5350   -0.7440    1.1200 C.2     1  UNL1        0.0540
     10  C          6.9630   -0.8350   -1.5630 C.2     1  UNL1        0.0510
     11  C          7.9910   -1.8030    0.3570 C.2     1  UNL1        0.1660
     12  C          7.7070   -1.8520   -0.9870 C.2     1  UNL1        0.1650
     13  O          8.7380   -2.9200    0.6880 O.2     1  UNL1       -0.4540
     14  O          8.2910   -3.0200   -1.4800 O.2     1  UNL1       -0.4540
     15  C          8.6640   -3.8490   -0.4040 C.3     1  UNL1        0.4680
@<TRIPOS>BOND
     1    10    12    2
     2    10     8    1
     3    14    12    1
     4    14    15    1
     5    12    11    1
     6     8     7    2
     7    15    13    1
     8     5     4    1
     9     4     2    1
    10    11    13    1
    11    11     9    2
    12     7     9    1
    13     7     6    1
    14     1     2    1
    15     1     6    1
    16     2     3    2
