@<TRIPOS>MOLECULE
/home/cewinharhar/GITHUB/reincatalyze/data/processed/docking_pred/2023-May-17-1006_maxeplen10_maxtrainstep1000_seadep16_gamma099_lrac9e-4_lrcr1e-3_sub6/d475abeaf77d1f7cad9c775310647ad941a1fd31_ligand_6.pdbqt
 15 16 0 0 0
SMALL
GASTEIGER

@<TRIPOS>ATOM
      1  C          6.3770    1.2970    0.5990 C.3     1  UNL1        0.1270
      2  C          5.1780    1.3110    1.4220 C.2     1  UNL1        0.3030
      3  O          4.2670    2.1370    1.3490 O.2     1  UNL1       -0.2520
      4  O          5.0450    0.2970    2.3840 O.3     1  UNL1       -0.4810
      5  H          5.2120    0.5670    3.3410 H       1  UNL1        0.2960
      6  C          6.1610    0.7720   -0.7670 C.3     1  UNL1        0.0470
      7  C          6.9420   -0.3980   -1.1740 C.2     1  UNL1       -0.0430
      8  C          7.2630   -0.6290   -2.5020 C.2     1  UNL1        0.0080
      9  C          7.3480   -1.3250   -0.2500 C.2     1  UNL1        0.0540
     10  C          7.9660   -1.7480   -2.8910 C.2     1  UNL1        0.0510
     11  C          8.0550   -2.4540   -0.6170 C.2     1  UNL1        0.1660
     12  C          8.3670   -2.6700   -1.9370 C.2     1  UNL1        0.1650
     13  O          8.5590   -3.5050    0.1300 O.2     1  UNL1       -0.4540
     14  O          9.0720   -3.8730   -1.9940 O.2     1  UNL1       -0.4540
     15  C          8.9300   -4.5590   -0.7720 C.3     1  UNL1        0.4680
@<TRIPOS>BOND
     1    10     8    1
     2    10    12    2
     3     8     7    2
     4    14    12    1
     5    14    15    1
     6    12    11    1
     7     7     6    1
     8     7     9    1
     9    15    13    1
    10     6     1    1
    11    11     9    2
    12    11    13    1
    13     1     2    1
    14     3     2    2
    15     2     4    1
    16     4     5    1
