@<TRIPOS>MOLECULE
/home/cewinharhar/GITHUB/reincatalyze/data/processed/docking_pred/2023-May-17-1006_maxeplen10_maxtrainstep1000_seadep16_gamma099_lrac9e-4_lrcr1e-3_sub6/d475abeaf77d1f7cad9c775310647ad941a1fd31_ligand_6.pdbqt
 15 16 0 0 0
SMALL
GASTEIGER

@<TRIPOS>ATOM
      1  C          8.3080   -0.3210   -2.8280 C.3     1  UNL1        0.1270
      2  C          8.4740   -1.7480   -3.0610 C.2     1  UNL1        0.3030
      3  O          9.5430   -2.3600   -3.0310 O.2     1  UNL1       -0.2520
      4  O          7.3190   -2.4930   -3.3450 O.3     1  UNL1       -0.4810
      5  H          7.1520   -2.7020   -4.3170 H       1  UNL1        0.2960
      6  C          8.7660    0.1260   -1.4950 C.3     1  UNL1        0.0470
      7  C          7.7960    0.0910   -0.3990 C.2     1  UNL1       -0.0430
      8  C          7.7580   -0.9630    0.5010 C.2     1  UNL1        0.0080
      9  C          6.8660    1.0860   -0.2540 C.2     1  UNL1        0.0540
     10  C          6.8230   -1.0150    1.5110 C.2     1  UNL1        0.0510
     11  C          5.9190    1.0550    0.7520 C.2     1  UNL1        0.1660
     12  C          5.8940    0.0050    1.6380 C.2     1  UNL1        0.1650
     13  O          4.9020    1.9330    1.0840 O.2     1  UNL1       -0.4540
     14  O          4.8430    0.2490    2.5230 O.2     1  UNL1       -0.4540
     15  C          4.0240    1.2740    2.0100 C.3     1  UNL1        0.4680
@<TRIPOS>BOND
     1     5     4    1
     2     4     2    1
     3     2     3    2
     4     2     1    1
     5     1     6    1
     6     6     7    1
     7     7     9    2
     8     7     8    1
     9     9    11    1
    10     8    10    2
    11    11    13    1
    12    11    12    2
    13    13    15    1
    14    10    12    1
    15    12    14    1
    16    15    14    1
