MODEL 1
REMARK VINA RESULT:      -7.7      0.000      0.000
REMARK SMILES O=C(O)CCc1ccc2c(c1)OCO2
REMARK SMILES IDX 4 1 2 2 1 3 3 4 5 6 6 7 7 8 11 9 8 10 10 11 9 12 12 13 14 14
REMARK SMILES IDX 13 15
REMARK H PARENT 3 5
REMARK Flexibility Score: inf
ROOT
ATOM      1  C   UNL     1       5.417   2.866   0.129  1.00  0.00     0.127 C 
ENDROOT
BRANCH   1   2
ATOM      2  C   UNL     1       6.246   3.845   0.816  1.00  0.00     0.303 C 
ATOM      3  O   UNL     1       6.885   4.749   0.274  1.00  0.00    -0.252 OA
BRANCH   2   4
ATOM      4  O   UNL     1       6.325   3.755   2.214  1.00  0.00    -0.481 OA
ATOM      5  H   UNL     1       6.763   4.531   2.686  1.00  0.00     0.296 HD
ENDBRANCH   2   4
ENDBRANCH   1   2
BRANCH   1   6
ATOM      6  C   UNL     1       5.339   1.559   0.816  1.00  0.00     0.047 C 
BRANCH   6   7
ATOM      7  C   UNL     1       6.123   0.454   0.259  1.00  0.00    -0.043 A 
ATOM      8  C   UNL     1       6.574  -0.587   1.055  1.00  0.00     0.008 A 
ATOM      9  C   UNL     1       6.468   0.439  -1.066  1.00  0.00     0.054 A 
ATOM     10  C   UNL     1       7.342  -1.608   0.540  1.00  0.00     0.051 A 
ATOM     11  C   UNL     1       7.237  -0.575  -1.605  1.00  0.00     0.166 A 
ATOM     12  C   UNL     1       7.676  -1.602  -0.804  1.00  0.00     0.165 A 
ATOM     13  O   UNL     1       7.699  -0.795  -2.891  1.00  0.00    -0.454 OA
ATOM     14  O   UNL     1       8.418  -2.459  -1.618  1.00  0.00    -0.454 OA
ATOM     15  C   UNL     1       8.705  -1.817  -2.839  1.00  0.00     0.468 C 
ENDBRANCH   6   7
ENDBRANCH   1   6
TORSDOF 4
ENDMDL
MODEL 2
REMARK VINA RESULT:      -7.6      2.141      2.521
REMARK SMILES O=C(O)CCc1ccc2c(c1)OCO2
REMARK SMILES IDX 4 1 2 2 1 3 3 4 5 6 6 7 7 8 11 9 8 10 10 11 9 12 12 13 14 14
REMARK SMILES IDX 13 15
REMARK H PARENT 3 5
REMARK Flexibility Score: inf
ROOT
ATOM      1  C   UNL     1       4.693   1.851   0.692  1.00  0.00     0.127 C 
ENDROOT
BRANCH   1   2
ATOM      2  C   UNL     1       4.377   1.149   1.926  1.00  0.00     0.303 C 
ATOM      3  O   UNL     1       5.092   0.309   2.475  1.00  0.00    -0.252 OA
BRANCH   2   4
ATOM      4  O   UNL     1       3.155   1.453   2.546  1.00  0.00    -0.481 OA
ATOM      5  H   UNL     1       2.425   0.764   2.451  1.00  0.00     0.296 HD
ENDBRANCH   2   4
ENDBRANCH   1   2
BRANCH   1   6
ATOM      6  C   UNL     1       6.120   2.212   0.554  1.00  0.00     0.047 C 
BRANCH   6   7
ATOM      7  C   UNL     1       6.975   1.309  -0.219  1.00  0.00    -0.043 A 
ATOM      8  C   UNL     1       8.337   1.533  -0.347  1.00  0.00     0.008 A 
ATOM      9  C   UNL     1       6.442   0.231  -0.876  1.00  0.00     0.054 A 
ATOM     10  C   UNL     1       9.136   0.705  -1.103  1.00  0.00     0.051 A 
ATOM     11  C   UNL     1       7.225  -0.613  -1.640  1.00  0.00     0.166 A 
ATOM     12  C   UNL     1       8.574  -0.380  -1.756  1.00  0.00     0.165 A 
ATOM     13  O   UNL     1       6.910  -1.742  -2.377  1.00  0.00    -0.454 OA
ATOM     14  O   UNL     1       9.087  -1.384  -2.579  1.00  0.00    -0.454 OA
ATOM     15  C   UNL     1       8.027  -2.051  -3.224  1.00  0.00     0.468 C 
ENDBRANCH   6   7
ENDBRANCH   1   6
TORSDOF 4
ENDMDL
MODEL 3
REMARK VINA RESULT:      -7.5      1.962      2.888
REMARK SMILES O=C(O)CCc1ccc2c(c1)OCO2
REMARK SMILES IDX 4 1 2 2 1 3 3 4 5 6 6 7 7 8 11 9 8 10 10 11 9 12 12 13 14 14
REMARK SMILES IDX 13 15
REMARK H PARENT 3 5
REMARK Flexibility Score: inf
ROOT
ATOM      1  C   UNL     1       6.377   1.297   0.599  1.00  0.00     0.127 C 
ENDROOT
BRANCH   1   2
ATOM      2  C   UNL     1       5.178   1.311   1.422  1.00  0.00     0.303 C 
ATOM      3  O   UNL     1       4.267   2.137   1.349  1.00  0.00    -0.252 OA
BRANCH   2   4
ATOM      4  O   UNL     1       5.045   0.297   2.384  1.00  0.00    -0.481 OA
ATOM      5  H   UNL     1       5.212   0.567   3.341  1.00  0.00     0.296 HD
ENDBRANCH   2   4
ENDBRANCH   1   2
BRANCH   1   6
ATOM      6  C   UNL     1       6.161   0.772  -0.767  1.00  0.00     0.047 C 
BRANCH   6   7
ATOM      7  C   UNL     1       6.942  -0.398  -1.174  1.00  0.00    -0.043 A 
ATOM      8  C   UNL     1       7.263  -0.629  -2.502  1.00  0.00     0.008 A 
ATOM      9  C   UNL     1       7.348  -1.325  -0.250  1.00  0.00     0.054 A 
ATOM     10  C   UNL     1       7.966  -1.748  -2.891  1.00  0.00     0.051 A 
ATOM     11  C   UNL     1       8.055  -2.454  -0.617  1.00  0.00     0.166 A 
ATOM     12  C   UNL     1       8.367  -2.670  -1.937  1.00  0.00     0.165 A 
ATOM     13  O   UNL     1       8.559  -3.505   0.130  1.00  0.00    -0.454 OA
ATOM     14  O   UNL     1       9.072  -3.873  -1.994  1.00  0.00    -0.454 OA
ATOM     15  C   UNL     1       8.930  -4.559  -0.772  1.00  0.00     0.468 C 
ENDBRANCH   6   7
ENDBRANCH   1   6
TORSDOF 4
ENDMDL
MODEL 4
REMARK VINA RESULT:      -7.5      0.972      2.118
REMARK SMILES O=C(O)CCc1ccc2c(c1)OCO2
REMARK SMILES IDX 4 1 2 2 1 3 3 4 5 6 6 7 7 8 11 9 8 10 10 11 9 12 12 13 14 14
REMARK SMILES IDX 13 15
REMARK H PARENT 3 5
REMARK Flexibility Score: inf
ROOT
ATOM      1  C   UNL     1       5.495   2.658   0.089  1.00  0.00     0.127 C 
ENDROOT
BRANCH   1   2
ATOM      2  C   UNL     1       6.188   3.651   0.896  1.00  0.00     0.303 C 
ATOM      3  O   UNL     1       6.267   3.646   2.126  1.00  0.00    -0.252 OA
BRANCH   2   4
ATOM      4  O   UNL     1       6.821   4.704   0.219  1.00  0.00    -0.481 OA
ATOM      5  H   UNL     1       6.449   5.627   0.383  1.00  0.00     0.296 HD
ENDBRANCH   2   4
ENDBRANCH   1   2
BRANCH   1   6
ATOM      6  C   UNL     1       5.457   1.311   0.697  1.00  0.00     0.047 C 
BRANCH   6   7
ATOM      7  C   UNL     1       6.285   0.269   0.086  1.00  0.00    -0.043 A 
ATOM      8  C   UNL     1       6.514   0.233  -1.281  1.00  0.00     0.008 A 
ATOM      9  C   UNL     1       6.830  -0.729   0.850  1.00  0.00     0.054 A 
ATOM     10  C   UNL     1       7.263  -0.767  -1.860  1.00  0.00     0.051 A 
ATOM     11  C   UNL     1       7.586  -1.742   0.290  1.00  0.00     0.166 A 
ATOM     12  C   UNL     1       7.805  -1.764  -1.066  1.00  0.00     0.165 A 
ATOM     13  O   UNL     1       8.223  -2.833   0.855  1.00  0.00    -0.454 OA
ATOM     14  O   UNL     1       8.589  -2.889  -1.329  1.00  0.00    -0.454 OA
ATOM     15  C   UNL     1       8.596  -3.731  -0.200  1.00  0.00     0.468 C 
ENDBRANCH   6   7
ENDBRANCH   1   6
TORSDOF 4
ENDMDL
MODEL 5
REMARK VINA RESULT:      -7.5      1.801      5.279
REMARK SMILES O=C(O)CCc1ccc2c(c1)OCO2
REMARK SMILES IDX 4 1 2 2 1 3 3 4 5 6 6 7 7 8 11 9 8 10 10 11 9 12 12 13 14 14
REMARK SMILES IDX 13 15
REMARK H PARENT 3 5
REMARK Flexibility Score: inf
ROOT
ATOM      1  C   UNL     1       8.308  -0.321  -2.828  1.00  0.00     0.127 C 
ENDROOT
BRANCH   1   2
ATOM      2  C   UNL     1       8.474  -1.748  -3.061  1.00  0.00     0.303 C 
ATOM      3  O   UNL     1       9.543  -2.360  -3.031  1.00  0.00    -0.252 OA
BRANCH   2   4
ATOM      4  O   UNL     1       7.319  -2.493  -3.345  1.00  0.00    -0.481 OA
ATOM      5  H   UNL     1       7.152  -2.702  -4.317  1.00  0.00     0.296 HD
ENDBRANCH   2   4
ENDBRANCH   1   2
BRANCH   1   6
ATOM      6  C   UNL     1       8.766   0.126  -1.495  1.00  0.00     0.047 C 
BRANCH   6   7
ATOM      7  C   UNL     1       7.796   0.091  -0.399  1.00  0.00    -0.043 A 
ATOM      8  C   UNL     1       7.758  -0.963   0.501  1.00  0.00     0.008 A 
ATOM      9  C   UNL     1       6.866   1.086  -0.254  1.00  0.00     0.054 A 
ATOM     10  C   UNL     1       6.823  -1.015   1.511  1.00  0.00     0.051 A 
ATOM     11  C   UNL     1       5.919   1.055   0.752  1.00  0.00     0.166 A 
ATOM     12  C   UNL     1       5.894   0.005   1.638  1.00  0.00     0.165 A 
ATOM     13  O   UNL     1       4.902   1.933   1.084  1.00  0.00    -0.454 OA
ATOM     14  O   UNL     1       4.843   0.249   2.523  1.00  0.00    -0.454 OA
ATOM     15  C   UNL     1       4.024   1.274   2.010  1.00  0.00     0.468 C 
ENDBRANCH   6   7
ENDBRANCH   1   6
TORSDOF 4
ENDMDL
