@<TRIPOS>MOLECULE
/home/cewinharhar/GITHUB/reincatalyze/data/processed/docking_pred/2023-May-17-1006_maxeplen10_maxtrainstep1000_seadep16_gamma099_lrac9e-4_lrcr1e-3_sub6/d475abeaf77d1f7cad9c775310647ad941a1fd31_ligand_6.pdbqt
 15 16 0 0 0
SMALL
GASTEIGER

@<TRIPOS>ATOM
      1  C          5.4950    2.6580    0.0890 C.3     1  UNL1        0.1270
      2  C          6.1880    3.6510    0.8960 C.2     1  UNL1        0.3030
      3  O          6.2670    3.6460    2.1260 O.2     1  UNL1       -0.2520
      4  O          6.8210    4.7040    0.2190 O.3     1  UNL1       -0.4810
      5  H          6.4490    5.6270    0.3830 H       1  UNL1        0.2960
      6  C          5.4570    1.3110    0.6970 C.3     1  UNL1        0.0470
      7  C          6.2850    0.2690    0.0860 C.2     1  UNL1       -0.0430
      8  C          6.5140    0.2330   -1.2810 C.2     1  UNL1        0.0080
      9  C          6.8300   -0.7290    0.8500 C.2     1  UNL1        0.0540
     10  C          7.2630   -0.7670   -1.8600 C.2     1  UNL1        0.0510
     11  C          7.5860   -1.7420    0.2900 C.2     1  UNL1        0.1660
     12  C          7.8050   -1.7640   -1.0660 C.2     1  UNL1        0.1650
     13  O          8.2230   -2.8330    0.8550 O.2     1  UNL1       -0.4540
     14  O          8.5890   -2.8890   -1.3290 O.2     1  UNL1       -0.4540
     15  C          8.5960   -3.7310   -0.2000 C.3     1  UNL1        0.4680
@<TRIPOS>BOND
     1    10     8    1
     2    10    12    2
     3    14    12    1
     4    14    15    1
     5     8     7    2
     6    12    11    1
     7    15    13    1
     8     7     6    1
     9     7     9    1
    10     1     6    1
    11     1     2    1
    12     4     5    1
    13     4     2    1
    14    11     9    2
    15    11    13    1
    16     2     3    2
