@<TRIPOS>MOLECULE
/home/cewinharhar/GITHUB/reincatalyze/data/processed/docking_pred/2023-May-17-1006_maxeplen10_maxtrainstep1000_seadep16_gamma099_lrac9e-4_lrcr1e-3_sub6/d475abeaf77d1f7cad9c775310647ad941a1fd31_ligand_6.pdbqt
 15 16 0 0 0
SMALL
GASTEIGER

@<TRIPOS>ATOM
      1  C          5.4170    2.8660    0.1290 C.3     1  UNL1        0.1270
      2  C          6.2460    3.8450    0.8160 C.2     1  UNL1        0.3030
      3  O          6.8850    4.7490    0.2740 O.2     1  UNL1       -0.2520
      4  O          6.3250    3.7550    2.2140 O.3     1  UNL1       -0.4810
      5  H          6.7630    4.5310    2.6860 H       1  UNL1        0.2960
      6  C          5.3390    1.5590    0.8160 C.3     1  UNL1        0.0470
      7  C          6.1230    0.4540    0.2590 C.2     1  UNL1       -0.0430
      8  C          6.5740   -0.5870    1.0550 C.2     1  UNL1        0.0080
      9  C          6.4680    0.4390   -1.0660 C.2     1  UNL1        0.0540
     10  C          7.3420   -1.6080    0.5400 C.2     1  UNL1        0.0510
     11  C          7.2370   -0.5750   -1.6050 C.2     1  UNL1        0.1660
     12  C          7.6760   -1.6020   -0.8040 C.2     1  UNL1        0.1650
     13  O          7.6990   -0.7950   -2.8910 O.2     1  UNL1       -0.4540
     14  O          8.4180   -2.4590   -1.6180 O.2     1  UNL1       -0.4540
     15  C          8.7050   -1.8170   -2.8390 C.3     1  UNL1        0.4680
@<TRIPOS>BOND
     1    13    15    1
     2    13    11    1
     3    15    14    1
     4    14    12    1
     5    11     9    1
     6    11    12    2
     7     9     7    2
     8    12    10    1
     9     1     2    1
    10     1     6    1
    11     7     6    1
    12     7     8    1
    13     3     2    2
    14    10     8    2
    15     2     4    1
    16     4     5    1
