MODEL 1
REMARK VINA RESULT:      -7.7      0.000      0.000
REMARK SMILES O=C(O)CCc1ccc2c(c1)OCO2
REMARK SMILES IDX 4 1 2 2 1 3 3 4 5 6 6 7 7 8 11 9 8 10 10 11 9 12 12 13 14 14
REMARK SMILES IDX 13 15
REMARK H PARENT 3 5
REMARK Flexibility Score: inf
ROOT
ATOM      1  C   UNL     1       5.411   2.880   0.122  1.00  0.00     0.127 C 
ENDROOT
BRANCH   1   2
ATOM      2  C   UNL     1       6.240   3.852   0.817  1.00  0.00     0.303 C 
ATOM      3  O   UNL     1       6.862   4.775   0.287  1.00  0.00    -0.252 OA
BRANCH   2   4
ATOM      4  O   UNL     1       6.344   3.730   2.212  1.00  0.00    -0.481 OA
ATOM      5  H   UNL     1       5.596   4.140   2.751  1.00  0.00     0.296 HD
ENDBRANCH   2   4
ENDBRANCH   1   2
BRANCH   1   6
ATOM      6  C   UNL     1       5.317   1.573   0.806  1.00  0.00     0.047 C 
BRANCH   6   7
ATOM      7  C   UNL     1       6.102   0.464   0.260  1.00  0.00    -0.043 A 
ATOM      8  C   UNL     1       6.575  -0.557   1.069  1.00  0.00     0.008 A 
ATOM      9  C   UNL     1       6.425   0.424  -1.071  1.00  0.00     0.054 A 
ATOM     10  C   UNL     1       7.344  -1.581   0.563  1.00  0.00     0.051 A 
ATOM     11  C   UNL     1       7.195  -0.594  -1.601  1.00  0.00     0.166 A 
ATOM     12  C   UNL     1       7.657  -1.600  -0.787  1.00  0.00     0.165 A 
ATOM     13  O   UNL     1       7.637  -0.835  -2.890  1.00  0.00    -0.454 OA
ATOM     14  O   UNL     1       8.393  -2.467  -1.596  1.00  0.00    -0.454 OA
ATOM     15  C   UNL     1       8.654  -1.848  -2.834  1.00  0.00     0.468 C 
ENDBRANCH   6   7
ENDBRANCH   1   6
TORSDOF 4
ENDMDL
MODEL 2
REMARK VINA RESULT:      -7.6      2.132      2.526
REMARK SMILES O=C(O)CCc1ccc2c(c1)OCO2
REMARK SMILES IDX 4 1 2 2 1 3 3 4 5 6 6 7 7 8 11 9 8 10 10 11 9 12 12 13 14 14
REMARK SMILES IDX 13 15
REMARK H PARENT 3 5
REMARK Flexibility Score: inf
ROOT
ATOM      1  C   UNL     1       4.702   1.851   0.689  1.00  0.00     0.127 C 
ENDROOT
BRANCH   1   2
ATOM      2  C   UNL     1       4.402   1.146   1.926  1.00  0.00     0.303 C 
ATOM      3  O   UNL     1       5.132   0.319   2.476  1.00  0.00    -0.252 OA
BRANCH   2   4
ATOM      4  O   UNL     1       3.177   1.431   2.549  1.00  0.00    -0.481 OA
ATOM      5  H   UNL     1       2.513   0.673   2.594  1.00  0.00     0.296 HD
ENDBRANCH   2   4
ENDBRANCH   1   2
BRANCH   1   6
ATOM      6  C   UNL     1       6.126   2.222   0.541  1.00  0.00     0.047 C 
BRANCH   6   7
ATOM      7  C   UNL     1       6.984   1.322  -0.233  1.00  0.00    -0.043 A 
ATOM      8  C   UNL     1       8.341   1.562  -0.379  1.00  0.00     0.008 A 
ATOM      9  C   UNL     1       6.458   0.230  -0.871  1.00  0.00     0.054 A 
ATOM     10  C   UNL     1       9.142   0.737  -1.136  1.00  0.00     0.051 A 
ATOM     11  C   UNL     1       7.242  -0.612  -1.636  1.00  0.00     0.166 A 
ATOM     12  C   UNL     1       8.587  -0.363  -1.771  1.00  0.00     0.165 A 
ATOM     13  O   UNL     1       6.934  -1.753  -2.357  1.00  0.00    -0.454 OA
ATOM     14  O   UNL     1       9.103  -1.369  -2.588  1.00  0.00    -0.454 OA
ATOM     15  C   UNL     1       8.045  -2.057  -3.213  1.00  0.00     0.468 C 
ENDBRANCH   6   7
ENDBRANCH   1   6
TORSDOF 4
ENDMDL
MODEL 3
REMARK VINA RESULT:      -7.5      1.953      2.870
REMARK SMILES O=C(O)CCc1ccc2c(c1)OCO2
REMARK SMILES IDX 4 1 2 2 1 3 3 4 5 6 6 7 7 8 11 9 8 10 10 11 9 12 12 13 14 14
REMARK SMILES IDX 13 15
REMARK H PARENT 3 5
REMARK Flexibility Score: inf
ROOT
ATOM      1  C   UNL     1       6.415   1.335   0.615  1.00  0.00     0.127 C 
ENDROOT
BRANCH   1   2
ATOM      2  C   UNL     1       5.210   1.355   1.428  1.00  0.00     0.303 C 
ATOM      3  O   UNL     1       4.282   2.159   1.316  1.00  0.00    -0.252 OA
BRANCH   2   4
ATOM      4  O   UNL     1       5.090   0.377   2.428  1.00  0.00    -0.481 OA
ATOM      5  H   UNL     1       4.157   0.194   2.763  1.00  0.00     0.296 HD
ENDBRANCH   2   4
ENDBRANCH   1   2
BRANCH   1   6
ATOM      6  C   UNL     1       6.205   0.824  -0.757  1.00  0.00     0.047 C 
BRANCH   6   7
ATOM      7  C   UNL     1       6.957  -0.367  -1.158  1.00  0.00    -0.043 A 
ATOM      8  C   UNL     1       7.243  -0.629  -2.489  1.00  0.00     0.008 A 
ATOM      9  C   UNL     1       7.370  -1.282  -0.226  1.00  0.00     0.054 A 
ATOM     10  C   UNL     1       7.919  -1.767  -2.871  1.00  0.00     0.051 A 
ATOM     11  C   UNL     1       8.050  -2.430  -0.586  1.00  0.00     0.166 A 
ATOM     12  C   UNL     1       8.327  -2.676  -1.909  1.00  0.00     0.165 A 
ATOM     13  O   UNL     1       8.554  -3.474   0.170  1.00  0.00    -0.454 OA
ATOM     14  O   UNL     1       9.012  -3.892  -1.957  1.00  0.00    -0.454 OA
ATOM     15  C   UNL     1       8.887  -4.552  -0.719  1.00  0.00     0.468 C 
ENDBRANCH   6   7
ENDBRANCH   1   6
TORSDOF 4
ENDMDL
MODEL 4
REMARK VINA RESULT:      -7.5      0.966      2.117
REMARK SMILES O=C(O)CCc1ccc2c(c1)OCO2
REMARK SMILES IDX 4 1 2 2 1 3 3 4 5 6 6 7 7 8 11 9 8 10 10 11 9 12 12 13 14 14
REMARK SMILES IDX 13 15
REMARK H PARENT 3 5
REMARK Flexibility Score: inf
ROOT
ATOM      1  C   UNL     1       5.500   2.767  -0.011  1.00  0.00     0.127 C 
ENDROOT
BRANCH   1   2
ATOM      2  C   UNL     1       6.208   3.669   0.885  1.00  0.00     0.303 C 
ATOM      3  O   UNL     1       6.292   3.545   2.108  1.00  0.00    -0.252 OA
BRANCH   2   4
ATOM      4  O   UNL     1       6.852   4.775   0.308  1.00  0.00    -0.481 OA
ATOM      5  H   UNL     1       6.640   4.959  -0.660  1.00  0.00     0.296 HD
ENDBRANCH   2   4
ENDBRANCH   1   2
BRANCH   1   6
ATOM      6  C   UNL     1       5.333   1.399   0.524  1.00  0.00     0.047 C 
BRANCH   6   7
ATOM      7  C   UNL     1       6.199   0.349  -0.017  1.00  0.00    -0.043 A 
ATOM      8  C   UNL     1       6.515   0.295  -1.366  1.00  0.00     0.008 A 
ATOM      9  C   UNL     1       6.693  -0.638   0.794  1.00  0.00     0.054 A 
ATOM     10  C   UNL     1       7.300  -0.713  -1.882  1.00  0.00     0.051 A 
ATOM     11  C   UNL     1       7.483  -1.658   0.298  1.00  0.00     0.166 A 
ATOM     12  C   UNL     1       7.789  -1.699  -1.041  1.00  0.00     0.165 A 
ATOM     13  O   UNL     1       8.082  -2.740   0.918  1.00  0.00    -0.454 OA
ATOM     14  O   UNL     1       8.588  -2.826  -1.237  1.00  0.00    -0.454 OA
ATOM     15  C   UNL     1       8.522  -3.653  -0.099  1.00  0.00     0.468 C 
ENDBRANCH   6   7
ENDBRANCH   1   6
TORSDOF 4
ENDMDL
MODEL 5
REMARK VINA RESULT:      -7.4      1.787      5.278
REMARK SMILES O=C(O)CCc1ccc2c(c1)OCO2
REMARK SMILES IDX 4 1 2 2 1 3 3 4 5 6 6 7 7 8 11 9 8 10 10 11 9 12 12 13 14 14
REMARK SMILES IDX 13 15
REMARK H PARENT 3 5
REMARK Flexibility Score: inf
ROOT
ATOM      1  C   UNL     1       8.314  -0.325  -2.853  1.00  0.00     0.127 C 
ENDROOT
BRANCH   1   2
ATOM      2  C   UNL     1       8.474  -1.754  -3.073  1.00  0.00     0.303 C 
ATOM      3  O   UNL     1       9.541  -2.370  -3.038  1.00  0.00    -0.252 OA
BRANCH   2   4
ATOM      4  O   UNL     1       7.315  -2.497  -3.350  1.00  0.00    -0.481 OA
ATOM      5  H   UNL     1       6.495  -1.966  -3.600  1.00  0.00     0.296 HD
ENDBRANCH   2   4
ENDBRANCH   1   2
BRANCH   1   6
ATOM      6  C   UNL     1       8.765   0.130  -1.520  1.00  0.00     0.047 C 
BRANCH   6   7
ATOM      7  C   UNL     1       7.791   0.092  -0.426  1.00  0.00    -0.043 A 
ATOM      8  C   UNL     1       7.732  -0.977   0.454  1.00  0.00     0.008 A 
ATOM      9  C   UNL     1       6.880   1.102  -0.265  1.00  0.00     0.054 A 
ATOM     10  C   UNL     1       6.794  -1.031   1.461  1.00  0.00     0.051 A 
ATOM     11  C   UNL     1       5.930   1.070   0.738  1.00  0.00     0.166 A 
ATOM     12  C   UNL     1       5.884   0.004   1.605  1.00  0.00     0.165 A 
ATOM     13  O   UNL     1       4.929   1.960   1.085  1.00  0.00    -0.454 OA
ATOM     14  O   UNL     1       4.836   0.252   2.493  1.00  0.00    -0.454 OA
ATOM     15  C   UNL     1       4.037   1.301   1.996  1.00  0.00     0.468 C 
ENDBRANCH   6   7
ENDBRANCH   1   6
TORSDOF 4
ENDMDL
