@<TRIPOS>MOLECULE
/home/cewinharhar/GITHUB/reincatalyze/data/processed/docking_pred/2023-May-17-1006_maxeplen10_maxtrainstep1000_seadep16_gamma099_lrac9e-4_lrcr1e-3_sub6/d4c602a3745b48528a2ec664cc6a2c0711254731_ligand_6.pdbqt
 15 16 0 0 0
SMALL
GASTEIGER

@<TRIPOS>ATOM
      1  C          5.5000    2.7670   -0.0110 C.3     1  UNL1        0.1270
      2  C          6.2080    3.6690    0.8850 C.2     1  UNL1        0.3030
      3  O          6.2920    3.5450    2.1080 O.2     1  UNL1       -0.2520
      4  O          6.8520    4.7750    0.3080 O.3     1  UNL1       -0.4810
      5  H          6.6400    4.9590   -0.6600 H       1  UNL1        0.2960
      6  C          5.3330    1.3990    0.5240 C.3     1  UNL1        0.0470
      7  C          6.1990    0.3490   -0.0170 C.2     1  UNL1       -0.0430
      8  C          6.5150    0.2950   -1.3660 C.2     1  UNL1        0.0080
      9  C          6.6930   -0.6380    0.7940 C.2     1  UNL1        0.0540
     10  C          7.3000   -0.7130   -1.8820 C.2     1  UNL1        0.0510
     11  C          7.4830   -1.6580    0.2980 C.2     1  UNL1        0.1660
     12  C          7.7890   -1.6990   -1.0410 C.2     1  UNL1        0.1650
     13  O          8.0820   -2.7400    0.9180 O.2     1  UNL1       -0.4540
     14  O          8.5880   -2.8260   -1.2370 O.2     1  UNL1       -0.4540
     15  C          8.5220   -3.6530   -0.0990 C.3     1  UNL1        0.4680
@<TRIPOS>BOND
     1    10     8    1
     2    10    12    2
     3     8     7    2
     4    14    12    1
     5    14    15    1
     6    12    11    1
     7     5     4    1
     8    15    13    1
     9     7     6    1
    10     7     9    1
    11     1     6    1
    12     1     2    1
    13    11     9    2
    14    11    13    1
    15     4     2    1
    16     2     3    2
