@<TRIPOS>MOLECULE
/home/cewinharhar/GITHUB/reincatalyze/data/processed/docking_pred/2023-May-17-1006_maxeplen10_maxtrainstep1000_seadep16_gamma099_lrac9e-4_lrcr1e-3_sub6/d4c602a3745b48528a2ec664cc6a2c0711254731_ligand_6.pdbqt
 15 16 0 0 0
SMALL
GASTEIGER

@<TRIPOS>ATOM
      1  C          6.4150    1.3350    0.6150 C.3     1  UNL1        0.1270
      2  C          5.2100    1.3550    1.4280 C.2     1  UNL1        0.3030
      3  O          4.2820    2.1590    1.3160 O.2     1  UNL1       -0.2520
      4  O          5.0900    0.3770    2.4280 O.3     1  UNL1       -0.4810
      5  H          4.1570    0.1940    2.7630 H       1  UNL1        0.2960
      6  C          6.2050    0.8240   -0.7570 C.3     1  UNL1        0.0470
      7  C          6.9570   -0.3670   -1.1580 C.2     1  UNL1       -0.0430
      8  C          7.2430   -0.6290   -2.4890 C.2     1  UNL1        0.0080
      9  C          7.3700   -1.2820   -0.2260 C.2     1  UNL1        0.0540
     10  C          7.9190   -1.7670   -2.8710 C.2     1  UNL1        0.0510
     11  C          8.0500   -2.4300   -0.5860 C.2     1  UNL1        0.1660
     12  C          8.3270   -2.6760   -1.9090 C.2     1  UNL1        0.1650
     13  O          8.5540   -3.4740    0.1700 O.2     1  UNL1       -0.4540
     14  O          9.0120   -3.8920   -1.9570 O.2     1  UNL1       -0.4540
     15  C          8.8870   -4.5520   -0.7190 C.3     1  UNL1        0.4680
@<TRIPOS>BOND
     1    10     8    1
     2    10    12    2
     3     8     7    2
     4    14    12    1
     5    14    15    1
     6    12    11    1
     7     7     6    1
     8     7     9    1
     9     6     1    1
    10    15    13    1
    11    11     9    2
    12    11    13    1
    13     1     2    1
    14     3     2    2
    15     2     4    1
    16     4     5    1
