@<TRIPOS>MOLECULE
/home/cewinharhar/GITHUB/reincatalyze/data/processed/docking_pred/2023-May-17-1006_maxeplen10_maxtrainstep1000_seadep16_gamma099_lrac9e-4_lrcr1e-3_sub6/d4c602a3745b48528a2ec664cc6a2c0711254731_ligand_6.pdbqt
 15 16 0 0 0
SMALL
GASTEIGER

@<TRIPOS>ATOM
      1  C          4.7020    1.8510    0.6890 C.3     1  UNL1        0.1270
      2  C          4.4020    1.1460    1.9260 C.2     1  UNL1        0.3030
      3  O          5.1320    0.3190    2.4760 O.2     1  UNL1       -0.2520
      4  O          3.1770    1.4310    2.5490 O.3     1  UNL1       -0.4810
      5  H          2.5130    0.6730    2.5940 H       1  UNL1        0.2960
      6  C          6.1260    2.2220    0.5410 C.3     1  UNL1        0.0470
      7  C          6.9840    1.3220   -0.2330 C.2     1  UNL1       -0.0430
      8  C          8.3410    1.5620   -0.3790 C.2     1  UNL1        0.0080
      9  C          6.4580    0.2300   -0.8710 C.2     1  UNL1        0.0540
     10  C          9.1420    0.7370   -1.1360 C.2     1  UNL1        0.0510
     11  C          7.2420   -0.6120   -1.6360 C.2     1  UNL1        0.1660
     12  C          8.5870   -0.3630   -1.7710 C.2     1  UNL1        0.1650
     13  O          6.9340   -1.7530   -2.3570 O.2     1  UNL1       -0.4540
     14  O          9.1030   -1.3690   -2.5880 O.2     1  UNL1       -0.4540
     15  C          8.0450   -2.0570   -3.2130 C.3     1  UNL1        0.4680
@<TRIPOS>BOND
     1    15    14    1
     2    15    13    1
     3    14    12    1
     4    13    11    1
     5    12    11    2
     6    12    10    1
     7    11     9    1
     8    10     8    2
     9     9     7    2
    10     8     7    1
    11     7     6    1
    12     6     1    1
    13     1     2    1
    14     2     3    2
    15     2     4    1
    16     4     5    1
