@<TRIPOS>MOLECULE
/home/cewinharhar/GITHUB/reincatalyze/data/processed/docking_pred/2023-May-17-1006_maxeplen10_maxtrainstep1000_seadep16_gamma099_lrac9e-4_lrcr1e-3_sub6/d4c602a3745b48528a2ec664cc6a2c0711254731_ligand_6.pdbqt
 15 16 0 0 0
SMALL
GASTEIGER

@<TRIPOS>ATOM
      1  C          5.4110    2.8800    0.1220 C.3     1  UNL1        0.1270
      2  C          6.2400    3.8520    0.8170 C.2     1  UNL1        0.3030
      3  O          6.8620    4.7750    0.2870 O.2     1  UNL1       -0.2520
      4  O          6.3440    3.7300    2.2120 O.3     1  UNL1       -0.4810
      5  H          5.5960    4.1400    2.7510 H       1  UNL1        0.2960
      6  C          5.3170    1.5730    0.8060 C.3     1  UNL1        0.0470
      7  C          6.1020    0.4640    0.2600 C.2     1  UNL1       -0.0430
      8  C          6.5750   -0.5570    1.0690 C.2     1  UNL1        0.0080
      9  C          6.4250    0.4240   -1.0710 C.2     1  UNL1        0.0540
     10  C          7.3440   -1.5810    0.5630 C.2     1  UNL1        0.0510
     11  C          7.1950   -0.5940   -1.6010 C.2     1  UNL1        0.1660
     12  C          7.6570   -1.6000   -0.7870 C.2     1  UNL1        0.1650
     13  O          7.6370   -0.8350   -2.8900 O.2     1  UNL1       -0.4540
     14  O          8.3930   -2.4670   -1.5960 O.2     1  UNL1       -0.4540
     15  C          8.6540   -1.8480   -2.8340 C.3     1  UNL1        0.4680
@<TRIPOS>BOND
     1    13    15    1
     2    13    11    1
     3    15    14    1
     4    11     9    1
     5    11    12    2
     6    14    12    1
     7     9     7    2
     8    12    10    1
     9     1     6    1
    10     1     2    1
    11     7     6    1
    12     7     8    1
    13     3     2    2
    14    10     8    2
    15     2     4    1
    16     4     5    1
