@<TRIPOS>MOLECULE
/home/cewinharhar/GITHUB/reincatalyze/data/processed/docking_pred/2023-May-17-1006_maxeplen10_maxtrainstep1000_seadep16_gamma099_lrac9e-4_lrcr1e-3_sub6/d4c602a3745b48528a2ec664cc6a2c0711254731_ligand_6.pdbqt
 15 16 0 0 0
SMALL
GASTEIGER

@<TRIPOS>ATOM
      1  C          8.3140   -0.3250   -2.8530 C.3     1  UNL1        0.1270
      2  C          8.4740   -1.7540   -3.0730 C.2     1  UNL1        0.3030
      3  O          9.5410   -2.3700   -3.0380 O.2     1  UNL1       -0.2520
      4  O          7.3150   -2.4970   -3.3500 O.3     1  UNL1       -0.4810
      5  H          6.4950   -1.9660   -3.6000 H       1  UNL1        0.2960
      6  C          8.7650    0.1300   -1.5200 C.3     1  UNL1        0.0470
      7  C          7.7910    0.0920   -0.4260 C.2     1  UNL1       -0.0430
      8  C          7.7320   -0.9770    0.4540 C.2     1  UNL1        0.0080
      9  C          6.8800    1.1020   -0.2650 C.2     1  UNL1        0.0540
     10  C          6.7940   -1.0310    1.4610 C.2     1  UNL1        0.0510
     11  C          5.9300    1.0700    0.7380 C.2     1  UNL1        0.1660
     12  C          5.8840    0.0040    1.6050 C.2     1  UNL1        0.1650
     13  O          4.9290    1.9600    1.0850 O.2     1  UNL1       -0.4540
     14  O          4.8360    0.2520    2.4930 O.2     1  UNL1       -0.4540
     15  C          4.0370    1.3010    1.9960 C.3     1  UNL1        0.4680
@<TRIPOS>BOND
     1     5     4    1
     2     4     2    1
     3     2     3    2
     4     2     1    1
     5     1     6    1
     6     6     7    1
     7     7     9    2
     8     7     8    1
     9     9    11    1
    10     8    10    2
    11    11    13    1
    12    11    12    2
    13    13    15    1
    14    10    12    1
    15    12    14    1
    16    15    14    1
