@<TRIPOS>MOLECULE
/home/cewinharhar/GITHUB/reincatalyze/data/processed/docking_pred/2023-May-17-1006_maxeplen10_maxtrainstep1000_seadep16_gamma099_lrac9e-4_lrcr1e-3_sub6/d68da6ca94917019a71bc3feefe4e6b6d631e6ad_ligand_6.pdbqt
 15 16 0 0 0
SMALL
GASTEIGER

@<TRIPOS>ATOM
      1  C          5.0850    2.7400    0.0620 C.3     1  UNL1        0.1270
      2  C          6.0720    3.6220    0.6650 C.2     1  UNL1        0.3030
      3  O          6.8050    4.4020    0.0540 O.2     1  UNL1       -0.2520
      4  O          6.2040    3.5820    2.0620 O.3     1  UNL1       -0.4810
      5  H          6.9740    3.0380    2.4210 H       1  UNL1        0.2960
      6  C          5.6570    1.5070   -0.5190 C.3     1  UNL1        0.0470
      7  C          6.2770    0.5500    0.3990 C.2     1  UNL1       -0.0430
      8  C          5.6290    0.1230    1.5480 C.2     1  UNL1        0.0080
      9  C          7.5410    0.0750    0.1670 C.2     1  UNL1        0.0540
     10  C          6.2250   -0.7490    2.4310 C.2     1  UNL1        0.0510
     11  C          8.1590   -0.8010    1.0390 C.2     1  UNL1        0.1660
     12  C          7.5040   -1.2160    2.1730 C.2     1  UNL1        0.1650
     13  O          9.4060   -1.4000    1.0090 O.2     1  UNL1       -0.4540
     14  O          8.3690   -2.0830    2.8440 O.2     1  UNL1       -0.4540
     15  C          9.6650   -1.9650    2.3030 C.3     1  UNL1        0.4680
@<TRIPOS>BOND
     1     6     1    1
     2     6     7    1
     3     3     2    2
     4     1     2    1
     5     9     7    2
     6     9    11    1
     7     7     8    1
     8     2     4    1
     9    13    11    1
    10    13    15    1
    11    11    12    2
    12     8    10    2
    13     4     5    1
    14    12    10    1
    15    12    14    1
    16    15    14    1
