@<TRIPOS>MOLECULE
/home/cewinharhar/GITHUB/reincatalyze/data/processed/docking_pred/2023-May-17-1006_maxeplen10_maxtrainstep1000_seadep16_gamma099_lrac9e-4_lrcr1e-3_sub6/d68da6ca94917019a71bc3feefe4e6b6d631e6ad_ligand_6.pdbqt
 15 16 0 0 0
SMALL
GASTEIGER

@<TRIPOS>ATOM
      1  C          5.3690    2.8950    0.0940 C.3     1  UNL1        0.1270
      2  C          6.1770    3.8980    0.7700 C.2     1  UNL1        0.3030
      3  O          6.9020    4.7270    0.2160 O.2     1  UNL1       -0.2520
      4  O          6.1290    3.9270    2.1720 O.3     1  UNL1       -0.4810
      5  H          5.5900    4.6730    2.5840 H       1  UNL1        0.2960
      6  C          5.3270    1.5910    0.7890 C.3     1  UNL1        0.0470
      7  C          6.0810    0.4840    0.1970 C.2     1  UNL1       -0.0430
      8  C          6.4310   -0.6340    0.9400 C.2     1  UNL1        0.0080
      9  C          6.4990    0.5380   -1.1060 C.2     1  UNL1        0.0540
     10  C          7.1720   -1.6590    0.3950 C.2     1  UNL1        0.0510
     11  C          7.2410   -0.4790   -1.6750 C.2     1  UNL1        0.1660
     12  C          7.5800   -1.5810   -0.9270 C.2     1  UNL1        0.1650
     13  O          7.7620   -0.6360   -2.9470 O.2     1  UNL1       -0.4540
     14  O          8.3190   -2.4220   -1.7610 O.2     1  UNL1       -0.4540
     15  C          8.7080   -1.7150   -2.9160 C.3     1  UNL1        0.4680
@<TRIPOS>BOND
     1    13    15    1
     2    13    11    1
     3    15    14    1
     4    14    12    1
     5    11     9    1
     6    11    12    2
     7     9     7    2
     8    12    10    1
     9     1     2    1
    10     1     6    1
    11     7     6    1
    12     7     8    1
    13     3     2    2
    14    10     8    2
    15     2     4    1
    16     4     5    1
