@<TRIPOS>MOLECULE
/home/cewinharhar/GITHUB/reincatalyze/data/processed/docking_pred/2023-May-17-1006_maxeplen10_maxtrainstep1000_seadep16_gamma099_lrac9e-4_lrcr1e-3_sub6/d68da6ca94917019a71bc3feefe4e6b6d631e6ad_ligand_6.pdbqt
 15 16 0 0 0
SMALL
GASTEIGER

@<TRIPOS>ATOM
      1  C          6.3730    0.3260    0.9960 C.3     1  UNL1        0.1270
      2  C          5.2060    0.9480    1.6010 C.2     1  UNL1        0.3030
      3  O          4.4970    0.4440    2.4740 O.2     1  UNL1       -0.2520
      4  O          4.8550    2.2320    1.1540 O.3     1  UNL1       -0.4810
      5  H          4.4530    2.8480    1.8440 H       1  UNL1        0.2960
      6  C          6.5200   -1.1100    1.3130 C.3     1  UNL1        0.0470
      7  C          7.6110   -1.4980    2.2110 C.2     1  UNL1       -0.0430
      8  C          7.5710   -1.2100    3.5660 C.2     1  UNL1        0.0080
      9  C          8.7280   -2.1250    1.7260 C.2     1  UNL1        0.0540
     10  C          8.6110   -1.5420    4.4050 C.2     1  UNL1        0.0510
     11  C          9.7840   -2.4670    2.5490 C.2     1  UNL1        0.1660
     12  C          9.7300   -2.1770    3.8910 C.2     1  UNL1        0.1650
     13  O         10.9890   -3.0940    2.2840 O.2     1  UNL1       -0.4540
     14  O         10.9230   -2.6360    4.4510 O.2     1  UNL1       -0.4540
     15  C         11.8440   -2.9230    3.4240 C.3     1  UNL1        0.4680
@<TRIPOS>BOND
     1     1     6    1
     2     1     2    1
     3     4     2    1
     4     4     5    1
     5     6     7    1
     6     2     3    2
     7     9     7    2
     8     9    11    1
     9     7     8    1
    10    13    11    1
    11    13    15    1
    12    11    12    2
    13    15    14    1
    14     8    10    2
    15    12    10    1
    16    12    14    1
