@<TRIPOS>MOLECULE
/home/cewinharhar/GITHUB/reincatalyze/data/processed/docking_pred/2023-May-17-1006_maxeplen10_maxtrainstep1000_seadep16_gamma099_lrac9e-4_lrcr1e-3_sub6/d68da6ca94917019a71bc3feefe4e6b6d631e6ad_ligand_6.pdbqt
 15 16 0 0 0
SMALL
GASTEIGER

@<TRIPOS>ATOM
      1  C          5.2730    2.1280    1.2080 C.3     1  UNL1        0.1270
      2  C          4.5710    1.1510    2.0250 C.2     1  UNL1        0.3030
      3  O          5.0210    0.0620    2.3860 O.2     1  UNL1       -0.2520
      4  O          3.2690    1.4730    2.4400 O.3     1  UNL1       -0.4810
      5  H          3.1250    2.4180    2.7600 H       1  UNL1        0.2960
      6  C          5.3020    1.7960   -0.2320 C.3     1  UNL1        0.0470
      7  C          6.4660    1.0630   -0.7350 C.2     1  UNL1       -0.0430
      8  C          7.7580    1.5180   -0.5180 C.2     1  UNL1        0.0080
      9  C          6.3090   -0.0800   -1.4730 C.2     1  UNL1        0.0540
     10  C          8.8520    0.8500   -1.0210 C.2     1  UNL1        0.0510
     11  C          7.3930   -0.7670   -1.9870 C.2     1  UNL1        0.1660
     12  C          8.6670   -0.3050   -1.7630 C.2     1  UNL1        0.1650
     13  O          7.4720   -1.9220   -2.7460 O.2     1  UNL1       -0.4540
     14  O          9.5350   -1.1950   -2.3970 O.2     1  UNL1       -0.4540
     15  C          8.8040   -2.0240   -3.2710 C.3     1  UNL1        0.4680
@<TRIPOS>BOND
     1    15    13    1
     2    15    14    1
     3    13    11    1
     4    14    12    1
     5    11    12    2
     6    11     9    1
     7    12    10    1
     8     9     7    2
     9    10     8    2
    10     7     8    1
    11     7     6    1
    12     6     1    1
    13     1     2    1
    14     2     3    2
    15     2     4    1
    16     4     5    1
