MODEL 1
REMARK VINA RESULT:      -7.2      0.000      0.000
REMARK SMILES O=C(O)CCc1ccc2c(c1)OCO2
REMARK SMILES IDX 4 1 2 2 1 3 3 4 5 6 6 7 7 8 11 9 8 10 10 11 9 12 12 13 14 14
REMARK SMILES IDX 13 15
REMARK H PARENT 3 5
REMARK Flexibility Score: inf
ROOT
ATOM      1  C   UNL     1       5.369   2.895   0.094  1.00  0.00     0.127 C 
ENDROOT
BRANCH   1   2
ATOM      2  C   UNL     1       6.177   3.898   0.770  1.00  0.00     0.303 C 
ATOM      3  O   UNL     1       6.902   4.727   0.216  1.00  0.00    -0.252 OA
BRANCH   2   4
ATOM      4  O   UNL     1       6.129   3.927   2.172  1.00  0.00    -0.481 OA
ATOM      5  H   UNL     1       5.590   4.673   2.584  1.00  0.00     0.296 HD
ENDBRANCH   2   4
ENDBRANCH   1   2
BRANCH   1   6
ATOM      6  C   UNL     1       5.327   1.591   0.789  1.00  0.00     0.047 C 
BRANCH   6   7
ATOM      7  C   UNL     1       6.081   0.484   0.197  1.00  0.00    -0.043 A 
ATOM      8  C   UNL     1       6.431  -0.634   0.940  1.00  0.00     0.008 A 
ATOM      9  C   UNL     1       6.499   0.538  -1.106  1.00  0.00     0.054 A 
ATOM     10  C   UNL     1       7.172  -1.659   0.395  1.00  0.00     0.051 A 
ATOM     11  C   UNL     1       7.241  -0.479  -1.675  1.00  0.00     0.166 A 
ATOM     12  C   UNL     1       7.580  -1.581  -0.927  1.00  0.00     0.165 A 
ATOM     13  O   UNL     1       7.762  -0.636  -2.947  1.00  0.00    -0.454 OA
ATOM     14  O   UNL     1       8.319  -2.422  -1.761  1.00  0.00    -0.454 OA
ATOM     15  C   UNL     1       8.708  -1.715  -2.916  1.00  0.00     0.468 C 
ENDBRANCH   6   7
ENDBRANCH   1   6
TORSDOF 4
ENDMDL
MODEL 2
REMARK VINA RESULT:      -7.2      2.218      2.529
REMARK SMILES O=C(O)CCc1ccc2c(c1)OCO2
REMARK SMILES IDX 4 1 2 2 1 3 3 4 5 6 6 7 7 8 11 9 8 10 10 11 9 12 12 13 14 14
REMARK SMILES IDX 13 15
REMARK H PARENT 3 5
REMARK Flexibility Score: inf
ROOT
ATOM      1  C   UNL     1       5.273   2.128   1.208  1.00  0.00     0.127 C 
ENDROOT
BRANCH   1   2
ATOM      2  C   UNL     1       4.571   1.151   2.025  1.00  0.00     0.303 C 
ATOM      3  O   UNL     1       5.021   0.062   2.386  1.00  0.00    -0.252 OA
BRANCH   2   4
ATOM      4  O   UNL     1       3.269   1.473   2.440  1.00  0.00    -0.481 OA
ATOM      5  H   UNL     1       3.125   2.418   2.760  1.00  0.00     0.296 HD
ENDBRANCH   2   4
ENDBRANCH   1   2
BRANCH   1   6
ATOM      6  C   UNL     1       5.302   1.796  -0.232  1.00  0.00     0.047 C 
BRANCH   6   7
ATOM      7  C   UNL     1       6.466   1.063  -0.735  1.00  0.00    -0.043 A 
ATOM      8  C   UNL     1       7.758   1.518  -0.518  1.00  0.00     0.008 A 
ATOM      9  C   UNL     1       6.309  -0.080  -1.473  1.00  0.00     0.054 A 
ATOM     10  C   UNL     1       8.852   0.850  -1.021  1.00  0.00     0.051 A 
ATOM     11  C   UNL     1       7.393  -0.767  -1.987  1.00  0.00     0.166 A 
ATOM     12  C   UNL     1       8.667  -0.305  -1.763  1.00  0.00     0.165 A 
ATOM     13  O   UNL     1       7.472  -1.922  -2.746  1.00  0.00    -0.454 OA
ATOM     14  O   UNL     1       9.535  -1.195  -2.397  1.00  0.00    -0.454 OA
ATOM     15  C   UNL     1       8.804  -2.024  -3.271  1.00  0.00     0.468 C 
ENDBRANCH   6   7
ENDBRANCH   1   6
TORSDOF 4
ENDMDL
MODEL 3
REMARK VINA RESULT:      -7.1      3.682      4.757
REMARK SMILES O=C(O)CCc1ccc2c(c1)OCO2
REMARK SMILES IDX 4 1 2 2 1 3 3 4 5 6 6 7 7 8 11 9 8 10 10 11 9 12 12 13 14 14
REMARK SMILES IDX 13 15
REMARK H PARENT 3 5
REMARK Flexibility Score: inf
ROOT
ATOM      1  C   UNL     1       6.373   0.326   0.996  1.00  0.00     0.127 C 
ENDROOT
BRANCH   1   2
ATOM      2  C   UNL     1       5.206   0.948   1.601  1.00  0.00     0.303 C 
ATOM      3  O   UNL     1       4.497   0.444   2.474  1.00  0.00    -0.252 OA
BRANCH   2   4
ATOM      4  O   UNL     1       4.855   2.232   1.154  1.00  0.00    -0.481 OA
ATOM      5  H   UNL     1       4.453   2.848   1.844  1.00  0.00     0.296 HD
ENDBRANCH   2   4
ENDBRANCH   1   2
BRANCH   1   6
ATOM      6  C   UNL     1       6.520  -1.110   1.313  1.00  0.00     0.047 C 
BRANCH   6   7
ATOM      7  C   UNL     1       7.611  -1.498   2.211  1.00  0.00    -0.043 A 
ATOM      8  C   UNL     1       7.571  -1.210   3.566  1.00  0.00     0.008 A 
ATOM      9  C   UNL     1       8.728  -2.125   1.726  1.00  0.00     0.054 A 
ATOM     10  C   UNL     1       8.611  -1.542   4.405  1.00  0.00     0.051 A 
ATOM     11  C   UNL     1       9.784  -2.467   2.549  1.00  0.00     0.166 A 
ATOM     12  C   UNL     1       9.730  -2.177   3.891  1.00  0.00     0.165 A 
ATOM     13  O   UNL     1      10.989  -3.094   2.284  1.00  0.00    -0.454 OA
ATOM     14  O   UNL     1      10.923  -2.636   4.451  1.00  0.00    -0.454 OA
ATOM     15  C   UNL     1      11.844  -2.923   3.424  1.00  0.00     0.468 C 
ENDBRANCH   6   7
ENDBRANCH   1   6
TORSDOF 4
ENDMDL
MODEL 4
REMARK VINA RESULT:      -7.1      1.987      2.893
REMARK SMILES O=C(O)CCc1ccc2c(c1)OCO2
REMARK SMILES IDX 4 1 2 2 1 3 3 4 5 6 6 7 7 8 11 9 8 10 10 11 9 12 12 13 14 14
REMARK SMILES IDX 13 15
REMARK H PARENT 3 5
REMARK Flexibility Score: inf
ROOT
ATOM      1  C   UNL     1       6.374   1.361   0.655  1.00  0.00     0.127 C 
ENDROOT
BRANCH   1   2
ATOM      2  C   UNL     1       5.193   1.274   1.500  1.00  0.00     0.303 C 
ATOM      3  O   UNL     1       4.217   2.025   1.448  1.00  0.00    -0.252 OA
BRANCH   2   4
ATOM      4  O   UNL     1       5.160   0.249   2.458  1.00  0.00    -0.481 OA
ATOM      5  H   UNL     1       6.005   0.108   2.989  1.00  0.00     0.296 HD
ENDBRANCH   2   4
ENDBRANCH   1   2
BRANCH   1   6
ATOM      6  C   UNL     1       6.159   0.885  -0.728  1.00  0.00     0.047 C 
BRANCH   6   7
ATOM      7  C   UNL     1       6.933  -0.277  -1.171  1.00  0.00    -0.043 A 
ATOM      8  C   UNL     1       7.244  -0.472  -2.508  1.00  0.00     0.008 A 
ATOM      9  C   UNL     1       7.341  -1.230  -0.276  1.00  0.00     0.054 A 
ATOM     10  C   UNL     1       7.941  -1.582  -2.931  1.00  0.00     0.051 A 
ATOM     11  C   UNL     1       8.041  -2.352  -0.678  1.00  0.00     0.166 A 
ATOM     12  C   UNL     1       8.344  -2.532  -2.006  1.00  0.00     0.165 A 
ATOM     13  O   UNL     1       8.546  -3.425   0.036  1.00  0.00    -0.454 OA
ATOM     14  O   UNL     1       9.044  -3.736  -2.100  1.00  0.00    -0.454 OA
ATOM     15  C   UNL     1       8.907  -4.455  -0.897  1.00  0.00     0.468 C 
ENDBRANCH   6   7
ENDBRANCH   1   6
TORSDOF 4
ENDMDL
MODEL 5
REMARK VINA RESULT:      -7.1      2.048      2.663
REMARK SMILES O=C(O)CCc1ccc2c(c1)OCO2
REMARK SMILES IDX 4 1 2 2 1 3 3 4 5 6 6 7 7 8 11 9 8 10 10 11 9 12 12 13 14 14
REMARK SMILES IDX 13 15
REMARK H PARENT 3 5
REMARK Flexibility Score: inf
ROOT
ATOM      1  C   UNL     1       5.085   2.740   0.062  1.00  0.00     0.127 C 
ENDROOT
BRANCH   1   2
ATOM      2  C   UNL     1       6.072   3.622   0.665  1.00  0.00     0.303 C 
ATOM      3  O   UNL     1       6.805   4.402   0.054  1.00  0.00    -0.252 OA
BRANCH   2   4
ATOM      4  O   UNL     1       6.204   3.582   2.062  1.00  0.00    -0.481 OA
ATOM      5  H   UNL     1       6.974   3.038   2.421  1.00  0.00     0.296 HD
ENDBRANCH   2   4
ENDBRANCH   1   2
BRANCH   1   6
ATOM      6  C   UNL     1       5.657   1.507  -0.519  1.00  0.00     0.047 C 
BRANCH   6   7
ATOM      7  C   UNL     1       6.277   0.550   0.399  1.00  0.00    -0.043 A 
ATOM      8  C   UNL     1       5.629   0.123   1.548  1.00  0.00     0.008 A 
ATOM      9  C   UNL     1       7.541   0.075   0.167  1.00  0.00     0.054 A 
ATOM     10  C   UNL     1       6.225  -0.749   2.431  1.00  0.00     0.051 A 
ATOM     11  C   UNL     1       8.159  -0.801   1.039  1.00  0.00     0.166 A 
ATOM     12  C   UNL     1       7.504  -1.216   2.173  1.00  0.00     0.165 A 
ATOM     13  O   UNL     1       9.406  -1.400   1.009  1.00  0.00    -0.454 OA
ATOM     14  O   UNL     1       8.369  -2.083   2.844  1.00  0.00    -0.454 OA
ATOM     15  C   UNL     1       9.665  -1.965   2.303  1.00  0.00     0.468 C 
ENDBRANCH   6   7
ENDBRANCH   1   6
TORSDOF 4
ENDMDL
