@<TRIPOS>MOLECULE
/home/cewinharhar/GITHUB/reincatalyze/data/processed/docking_pred/2023-May-17-1006_maxeplen10_maxtrainstep1000_seadep16_gamma099_lrac9e-4_lrcr1e-3_sub6/d68da6ca94917019a71bc3feefe4e6b6d631e6ad_ligand_6.pdbqt
 15 16 0 0 0
SMALL
GASTEIGER

@<TRIPOS>ATOM
      1  C          6.3740    1.3610    0.6550 C.3     1  UNL1        0.1270
      2  C          5.1930    1.2740    1.5000 C.2     1  UNL1        0.3030
      3  O          4.2170    2.0250    1.4480 O.2     1  UNL1       -0.2520
      4  O          5.1600    0.2490    2.4580 O.3     1  UNL1       -0.4810
      5  H          6.0050    0.1080    2.9890 H       1  UNL1        0.2960
      6  C          6.1590    0.8850   -0.7280 C.3     1  UNL1        0.0470
      7  C          6.9330   -0.2770   -1.1710 C.2     1  UNL1       -0.0430
      8  C          7.2440   -0.4720   -2.5080 C.2     1  UNL1        0.0080
      9  C          7.3410   -1.2300   -0.2760 C.2     1  UNL1        0.0540
     10  C          7.9410   -1.5820   -2.9310 C.2     1  UNL1        0.0510
     11  C          8.0410   -2.3520   -0.6780 C.2     1  UNL1        0.1660
     12  C          8.3440   -2.5320   -2.0060 C.2     1  UNL1        0.1650
     13  O          8.5460   -3.4250    0.0360 O.2     1  UNL1       -0.4540
     14  O          9.0440   -3.7360   -2.1000 O.2     1  UNL1       -0.4540
     15  C          8.9070   -4.4550   -0.8970 C.3     1  UNL1        0.4680
@<TRIPOS>BOND
     1    10     8    1
     2    10    12    2
     3     8     7    2
     4    14    12    1
     5    14    15    1
     6    12    11    1
     7     7     6    1
     8     7     9    1
     9    15    13    1
    10     6     1    1
    11    11     9    2
    12    11    13    1
    13     1     2    1
    14     3     2    2
    15     2     4    1
    16     4     5    1
