@<TRIPOS>MOLECULE
/home/cewinharhar/GITHUB/reincatalyze/data/processed/docking_pred/2023-May-17-1006_maxeplen10_maxtrainstep1000_seadep16_gamma099_lrac9e-4_lrcr1e-3_sub6/d6fa7c89c21ca11aa73af88b15ecc664e93337c3_ligand_6.pdbqt
 15 16 0 0 0
SMALL
GASTEIGER

@<TRIPOS>ATOM
      1  C          5.3850    2.8820    0.1130 C.3     1  UNL1        0.1270
      2  C          6.2070    3.8680    0.7970 C.2     1  UNL1        0.3030
      3  O          6.8440    4.7720    0.2530 O.2     1  UNL1       -0.2520
      4  O          6.2830    3.7860    2.1960 O.3     1  UNL1       -0.4810
      5  H          5.4140    3.6170    2.6800 H       1  UNL1        0.2960
      6  C          5.3150    1.5760    0.8040 C.3     1  UNL1        0.0470
      7  C          6.0970    0.4710    0.2450 C.2     1  UNL1       -0.0430
      8  C          6.5560   -0.5670    1.0410 C.2     1  UNL1        0.0080
      9  C          6.4320    0.4520   -1.0830 C.2     1  UNL1        0.0540
     10  C          7.3220   -1.5880    0.5230 C.2     1  UNL1        0.0510
     11  C          7.1980   -0.5620   -1.6240 C.2     1  UNL1        0.1660
     12  C          7.6460   -1.5850   -0.8240 C.2     1  UNL1        0.1650
     13  O          7.6500   -0.7840   -2.9130 O.2     1  UNL1       -0.4540
     14  O          8.3820   -2.4440   -1.6410 O.2     1  UNL1       -0.4540
     15  C          8.6590   -1.8050   -2.8660 C.3     1  UNL1        0.4680
@<TRIPOS>BOND
     1    13    15    1
     2    13    11    1
     3    15    14    1
     4    14    12    1
     5    11     9    1
     6    11    12    2
     7     9     7    2
     8    12    10    1
     9     1     2    1
    10     1     6    1
    11     7     6    1
    12     7     8    1
    13     3     2    2
    14    10     8    2
    15     2     4    1
    16     4     5    1
