@<TRIPOS>MOLECULE
/home/cewinharhar/GITHUB/reincatalyze/data/processed/docking_pred/2023-May-17-1006_maxeplen10_maxtrainstep1000_seadep16_gamma099_lrac9e-4_lrcr1e-3_sub6/d6fa7c89c21ca11aa73af88b15ecc664e93337c3_ligand_6.pdbqt
 15 16 0 0 0
SMALL
GASTEIGER

@<TRIPOS>ATOM
      1  C          6.4100    1.3260    0.6670 C.3     1  UNL1        0.1270
      2  C          5.2910    1.1260    1.5750 C.2     1  UNL1        0.3030
      3  O          5.2090    0.2400    2.4280 O.2     1  UNL1       -0.2520
      4  O          4.2110    2.0160    1.4720 O.3     1  UNL1       -0.4810
      5  H          3.8330    2.1530    0.5460 H       1  UNL1        0.2960
      6  C          6.1640    0.8350   -0.7060 C.3     1  UNL1        0.0470
      7  C          6.9430   -0.3180   -1.1620 C.2     1  UNL1       -0.0430
      8  C          7.2600   -0.4950   -2.5000 C.2     1  UNL1        0.0080
      9  C          7.3500   -1.2830   -0.2790 C.2     1  UNL1        0.0540
     10  C          7.9610   -1.5970   -2.9360 C.2     1  UNL1        0.0510
     11  C          8.0550   -2.3970   -0.6930 C.2     1  UNL1        0.1660
     12  C          8.3630   -2.5580   -2.0220 C.2     1  UNL1        0.1650
     13  O          8.5590   -3.4780    0.0080 O.2     1  UNL1       -0.4540
     14  O          9.0670   -3.7590   -2.1300 O.2     1  UNL1       -0.4540
     15  C          8.9270   -4.4950   -0.9360 C.3     1  UNL1        0.4680
@<TRIPOS>BOND
     1    10     8    1
     2    10    12    2
     3     8     7    2
     4    14    12    1
     5    14    15    1
     6    12    11    1
     7     7     6    1
     8     7     9    1
     9    15    13    1
    10     6     1    1
    11    11     9    2
    12    11    13    1
    13     5     4    1
    14     1     2    1
    15     4     2    1
    16     2     3    2
