@<TRIPOS>MOLECULE
/home/cewinharhar/GITHUB/reincatalyze/data/processed/docking_pred/2023-May-17-1006_maxeplen10_maxtrainstep1000_seadep16_gamma099_lrac9e-4_lrcr1e-3_sub6/d6fa7c89c21ca11aa73af88b15ecc664e93337c3_ligand_6.pdbqt
 15 16 0 0 0
SMALL
GASTEIGER

@<TRIPOS>ATOM
      1  C          4.6990    1.8430    0.6910 C.3     1  UNL1        0.1270
      2  C          4.3930    1.1400    1.9270 C.2     1  UNL1        0.3030
      3  O          5.1160    0.3060    2.4770 O.2     1  UNL1       -0.2520
      4  O          3.1700    1.4340    2.5500 O.3     1  UNL1       -0.4810
      5  H          2.4210    0.7770    2.3930 H       1  UNL1        0.2960
      6  C          6.1240    2.2100    0.5470 C.3     1  UNL1        0.0470
      7  C          6.9800    1.3100   -0.2300 C.2     1  UNL1       -0.0430
      8  C          8.3380    1.5500   -0.3770 C.2     1  UNL1        0.0080
      9  C          6.4520    0.2200   -0.8690 C.2     1  UNL1        0.0540
     10  C          9.1370    0.7250   -1.1370 C.2     1  UNL1        0.0510
     11  C          7.2350   -0.6220   -1.6360 C.2     1  UNL1        0.1660
     12  C          8.5790   -0.3730   -1.7730 C.2     1  UNL1        0.1650
     13  O          6.9240   -1.7600   -2.3590 O.2     1  UNL1       -0.4540
     14  O          9.0940   -1.3780   -2.5930 O.2     1  UNL1       -0.4540
     15  C          8.0340   -2.0640   -3.2180 C.3     1  UNL1        0.4680
@<TRIPOS>BOND
     1    15    14    1
     2    15    13    1
     3    14    12    1
     4    13    11    1
     5    12    11    2
     6    12    10    1
     7    11     9    1
     8    10     8    2
     9     9     7    2
    10     8     7    1
    11     7     6    1
    12     6     1    1
    13     1     2    1
    14     2     3    2
    15     2     4    1
    16     5     4    1
