@<TRIPOS>MOLECULE
/home/cewinharhar/GITHUB/reincatalyze/data/processed/docking_pred/2023-May-17-1006_maxeplen10_maxtrainstep1000_seadep16_gamma099_lrac9e-4_lrcr1e-3_sub6/d6fa7c89c21ca11aa73af88b15ecc664e93337c3_ligand_6.pdbqt
 15 16 0 0 0
SMALL
GASTEIGER

@<TRIPOS>ATOM
      1  C          5.4470    2.6410    0.1580 C.3     1  UNL1        0.1270
      2  C          6.1260    3.6960    0.8930 C.2     1  UNL1        0.3030
      3  O          6.1640    3.8050    2.1200 O.2     1  UNL1       -0.2520
      4  O          6.7950    4.6760    0.1430 O.3     1  UNL1       -0.4810
      5  H          6.4390    5.6160    0.2190 H       1  UNL1        0.2960
      6  C          5.5780    1.3020    0.7710 C.3     1  UNL1        0.0470
      7  C          6.3530    0.2960    0.0430 C.2     1  UNL1       -0.0430
      8  C          6.4560    0.3210   -1.3400 C.2     1  UNL1        0.0080
      9  C          6.9720   -0.7290    0.7090 C.2     1  UNL1        0.0540
     10  C          7.1550   -0.6450   -2.0290 C.2     1  UNL1        0.0510
     11  C          7.6790   -1.7090    0.0380 C.2     1  UNL1        0.1660
     12  C          7.7730   -1.6710   -1.3320 C.2     1  UNL1        0.1650
     13  O          8.3710   -2.8170    0.4940 O.2     1  UNL1       -0.4540
     14  O          8.5360   -2.7750   -1.7150 O.2     1  UNL1       -0.4540
     15  C          8.6510   -3.6660   -0.6290 C.3     1  UNL1        0.4680
@<TRIPOS>BOND
     1    10     8    1
     2    10    12    2
     3    14    12    1
     4    14    15    1
     5     8     7    2
     6    12    11    1
     7    15    13    1
     8    11    13    1
     9    11     9    2
    10     7     9    1
    11     7     6    1
    12     4     5    1
    13     4     2    1
    14     1     6    1
    15     1     2    1
    16     2     3    2
