@<TRIPOS>MOLECULE
/home/cewinharhar/GITHUB/reincatalyze/data/processed/docking_pred/2023-May-17-1006_maxeplen10_maxtrainstep1000_seadep16_gamma099_lrac9e-4_lrcr1e-3_sub6/d6fa7c89c21ca11aa73af88b15ecc664e93337c3_ligand_6.pdbqt
 15 16 0 0 0
SMALL
GASTEIGER

@<TRIPOS>ATOM
      1  C          8.3040   -0.3260   -2.8500 C.3     1  UNL1        0.1270
      2  C          8.4650   -1.7550   -3.0730 C.2     1  UNL1        0.3030
      3  O          9.5320   -2.3710   -3.0370 O.2     1  UNL1       -0.2520
      4  O          7.3070   -2.4970   -3.3530 O.3     1  UNL1       -0.4810
      5  H          6.4870   -1.9670   -3.6040 H       1  UNL1        0.2960
      6  C          8.7600    0.1290   -1.5200 C.3     1  UNL1        0.0470
      7  C          7.7920    0.0890   -0.4220 C.2     1  UNL1       -0.0430
      8  C          7.7470   -0.9740    0.4670 C.2     1  UNL1        0.0080
      9  C          6.8710    1.0910   -0.2640 C.2     1  UNL1        0.0540
     10  C          6.8130   -1.0300    1.4770 C.2     1  UNL1        0.0510
     11  C          5.9260    1.0560    0.7440 C.2     1  UNL1        0.1660
     12  C          5.8930   -0.0040    1.6180 C.2     1  UNL1        0.1650
     13  O          4.9170    1.9390    1.0880 O.2     1  UNL1       -0.4540
     14  O          4.8470    0.2400    2.5080 O.2     1  UNL1       -0.4540
     15  C          4.0350    1.2780    2.0080 C.3     1  UNL1        0.4680
@<TRIPOS>BOND
     1     5     4    1
     2     4     2    1
     3     2     3    2
     4     2     1    1
     5     1     6    1
     6     6     7    1
     7     7     9    2
     8     7     8    1
     9     9    11    1
    10     8    10    2
    11    11    13    1
    12    11    12    2
    13    13    15    1
    14    10    12    1
    15    12    14    1
    16    15    14    1
