MODEL 1
REMARK VINA RESULT:      -7.7      0.000      0.000
REMARK SMILES O=C(O)CCc1ccc2c(c1)OCO2
REMARK SMILES IDX 4 1 2 2 1 3 3 4 5 6 6 7 7 8 11 9 8 10 10 11 9 12 12 13 14 14
REMARK SMILES IDX 13 15
REMARK H PARENT 3 5
REMARK Flexibility Score: inf
ROOT
ATOM      1  C   UNL     1       5.385   2.882   0.113  1.00  0.00     0.127 C 
ENDROOT
BRANCH   1   2
ATOM      2  C   UNL     1       6.207   3.868   0.797  1.00  0.00     0.303 C 
ATOM      3  O   UNL     1       6.844   4.772   0.253  1.00  0.00    -0.252 OA
BRANCH   2   4
ATOM      4  O   UNL     1       6.283   3.786   2.196  1.00  0.00    -0.481 OA
ATOM      5  H   UNL     1       5.414   3.617   2.680  1.00  0.00     0.296 HD
ENDBRANCH   2   4
ENDBRANCH   1   2
BRANCH   1   6
ATOM      6  C   UNL     1       5.315   1.576   0.804  1.00  0.00     0.047 C 
BRANCH   6   7
ATOM      7  C   UNL     1       6.097   0.471   0.245  1.00  0.00    -0.043 A 
ATOM      8  C   UNL     1       6.556  -0.567   1.041  1.00  0.00     0.008 A 
ATOM      9  C   UNL     1       6.432   0.452  -1.083  1.00  0.00     0.054 A 
ATOM     10  C   UNL     1       7.322  -1.588   0.523  1.00  0.00     0.051 A 
ATOM     11  C   UNL     1       7.198  -0.562  -1.624  1.00  0.00     0.166 A 
ATOM     12  C   UNL     1       7.646  -1.585  -0.824  1.00  0.00     0.165 A 
ATOM     13  O   UNL     1       7.650  -0.784  -2.913  1.00  0.00    -0.454 OA
ATOM     14  O   UNL     1       8.382  -2.444  -1.641  1.00  0.00    -0.454 OA
ATOM     15  C   UNL     1       8.659  -1.805  -2.866  1.00  0.00     0.468 C 
ENDBRANCH   6   7
ENDBRANCH   1   6
TORSDOF 4
ENDMDL
MODEL 2
REMARK VINA RESULT:      -7.6      2.138      2.525
REMARK SMILES O=C(O)CCc1ccc2c(c1)OCO2
REMARK SMILES IDX 4 1 2 2 1 3 3 4 5 6 6 7 7 8 11 9 8 10 10 11 9 12 12 13 14 14
REMARK SMILES IDX 13 15
REMARK H PARENT 3 5
REMARK Flexibility Score: inf
ROOT
ATOM      1  C   UNL     1       4.699   1.843   0.691  1.00  0.00     0.127 C 
ENDROOT
BRANCH   1   2
ATOM      2  C   UNL     1       4.393   1.140   1.927  1.00  0.00     0.303 C 
ATOM      3  O   UNL     1       5.116   0.306   2.477  1.00  0.00    -0.252 OA
BRANCH   2   4
ATOM      4  O   UNL     1       3.170   1.434   2.550  1.00  0.00    -0.481 OA
ATOM      5  H   UNL     1       2.421   0.777   2.393  1.00  0.00     0.296 HD
ENDBRANCH   2   4
ENDBRANCH   1   2
BRANCH   1   6
ATOM      6  C   UNL     1       6.124   2.210   0.547  1.00  0.00     0.047 C 
BRANCH   6   7
ATOM      7  C   UNL     1       6.980   1.310  -0.230  1.00  0.00    -0.043 A 
ATOM      8  C   UNL     1       8.338   1.550  -0.377  1.00  0.00     0.008 A 
ATOM      9  C   UNL     1       6.452   0.220  -0.869  1.00  0.00     0.054 A 
ATOM     10  C   UNL     1       9.137   0.725  -1.137  1.00  0.00     0.051 A 
ATOM     11  C   UNL     1       7.235  -0.622  -1.636  1.00  0.00     0.166 A 
ATOM     12  C   UNL     1       8.579  -0.373  -1.773  1.00  0.00     0.165 A 
ATOM     13  O   UNL     1       6.924  -1.760  -2.359  1.00  0.00    -0.454 OA
ATOM     14  O   UNL     1       9.094  -1.378  -2.593  1.00  0.00    -0.454 OA
ATOM     15  C   UNL     1       8.034  -2.064  -3.218  1.00  0.00     0.468 C 
ENDBRANCH   6   7
ENDBRANCH   1   6
TORSDOF 4
ENDMDL
MODEL 3
REMARK VINA RESULT:      -7.4      1.801      5.285
REMARK SMILES O=C(O)CCc1ccc2c(c1)OCO2
REMARK SMILES IDX 4 1 2 2 1 3 3 4 5 6 6 7 7 8 11 9 8 10 10 11 9 12 12 13 14 14
REMARK SMILES IDX 13 15
REMARK H PARENT 3 5
REMARK Flexibility Score: inf
ROOT
ATOM      1  C   UNL     1       8.304  -0.326  -2.850  1.00  0.00     0.127 C 
ENDROOT
BRANCH   1   2
ATOM      2  C   UNL     1       8.465  -1.755  -3.073  1.00  0.00     0.303 C 
ATOM      3  O   UNL     1       9.532  -2.371  -3.037  1.00  0.00    -0.252 OA
BRANCH   2   4
ATOM      4  O   UNL     1       7.307  -2.497  -3.353  1.00  0.00    -0.481 OA
ATOM      5  H   UNL     1       6.487  -1.967  -3.604  1.00  0.00     0.296 HD
ENDBRANCH   2   4
ENDBRANCH   1   2
BRANCH   1   6
ATOM      6  C   UNL     1       8.760   0.129  -1.520  1.00  0.00     0.047 C 
BRANCH   6   7
ATOM      7  C   UNL     1       7.792   0.089  -0.422  1.00  0.00    -0.043 A 
ATOM      8  C   UNL     1       7.747  -0.974   0.467  1.00  0.00     0.008 A 
ATOM      9  C   UNL     1       6.871   1.091  -0.264  1.00  0.00     0.054 A 
ATOM     10  C   UNL     1       6.813  -1.030   1.477  1.00  0.00     0.051 A 
ATOM     11  C   UNL     1       5.926   1.056   0.744  1.00  0.00     0.166 A 
ATOM     12  C   UNL     1       5.893  -0.004   1.618  1.00  0.00     0.165 A 
ATOM     13  O   UNL     1       4.917   1.939   1.088  1.00  0.00    -0.454 OA
ATOM     14  O   UNL     1       4.847   0.240   2.508  1.00  0.00    -0.454 OA
ATOM     15  C   UNL     1       4.035   1.278   2.008  1.00  0.00     0.468 C 
ENDBRANCH   6   7
ENDBRANCH   1   6
TORSDOF 4
ENDMDL
MODEL 4
REMARK VINA RESULT:      -7.4      1.987      2.968
REMARK SMILES O=C(O)CCc1ccc2c(c1)OCO2
REMARK SMILES IDX 4 1 2 2 1 3 3 4 5 6 6 7 7 8 11 9 8 10 10 11 9 12 12 13 14 14
REMARK SMILES IDX 13 15
REMARK H PARENT 3 5
REMARK Flexibility Score: inf
ROOT
ATOM      1  C   UNL     1       6.410   1.326   0.667  1.00  0.00     0.127 C 
ENDROOT
BRANCH   1   2
ATOM      2  C   UNL     1       5.291   1.126   1.575  1.00  0.00     0.303 C 
ATOM      3  O   UNL     1       5.209   0.240   2.428  1.00  0.00    -0.252 OA
BRANCH   2   4
ATOM      4  O   UNL     1       4.211   2.016   1.472  1.00  0.00    -0.481 OA
ATOM      5  H   UNL     1       3.833   2.153   0.546  1.00  0.00     0.296 HD
ENDBRANCH   2   4
ENDBRANCH   1   2
BRANCH   1   6
ATOM      6  C   UNL     1       6.164   0.835  -0.706  1.00  0.00     0.047 C 
BRANCH   6   7
ATOM      7  C   UNL     1       6.943  -0.318  -1.162  1.00  0.00    -0.043 A 
ATOM      8  C   UNL     1       7.260  -0.495  -2.500  1.00  0.00     0.008 A 
ATOM      9  C   UNL     1       7.350  -1.283  -0.279  1.00  0.00     0.054 A 
ATOM     10  C   UNL     1       7.961  -1.597  -2.936  1.00  0.00     0.051 A 
ATOM     11  C   UNL     1       8.055  -2.397  -0.693  1.00  0.00     0.166 A 
ATOM     12  C   UNL     1       8.363  -2.558  -2.022  1.00  0.00     0.165 A 
ATOM     13  O   UNL     1       8.559  -3.478   0.008  1.00  0.00    -0.454 OA
ATOM     14  O   UNL     1       9.067  -3.759  -2.130  1.00  0.00    -0.454 OA
ATOM     15  C   UNL     1       8.927  -4.495  -0.936  1.00  0.00     0.468 C 
ENDBRANCH   6   7
ENDBRANCH   1   6
TORSDOF 4
ENDMDL
MODEL 5
REMARK VINA RESULT:      -7.4      0.921      2.049
REMARK SMILES O=C(O)CCc1ccc2c(c1)OCO2
REMARK SMILES IDX 4 1 2 2 1 3 3 4 5 6 6 7 7 8 11 9 8 10 10 11 9 12 12 13 14 14
REMARK SMILES IDX 13 15
REMARK H PARENT 3 5
REMARK Flexibility Score: inf
ROOT
ATOM      1  C   UNL     1       5.447   2.641   0.158  1.00  0.00     0.127 C 
ENDROOT
BRANCH   1   2
ATOM      2  C   UNL     1       6.126   3.696   0.893  1.00  0.00     0.303 C 
ATOM      3  O   UNL     1       6.164   3.805   2.120  1.00  0.00    -0.252 OA
BRANCH   2   4
ATOM      4  O   UNL     1       6.795   4.676   0.143  1.00  0.00    -0.481 OA
ATOM      5  H   UNL     1       6.439   5.616   0.219  1.00  0.00     0.296 HD
ENDBRANCH   2   4
ENDBRANCH   1   2
BRANCH   1   6
ATOM      6  C   UNL     1       5.578   1.302   0.771  1.00  0.00     0.047 C 
BRANCH   6   7
ATOM      7  C   UNL     1       6.353   0.296   0.043  1.00  0.00    -0.043 A 
ATOM      8  C   UNL     1       6.456   0.321  -1.340  1.00  0.00     0.008 A 
ATOM      9  C   UNL     1       6.972  -0.729   0.709  1.00  0.00     0.054 A 
ATOM     10  C   UNL     1       7.155  -0.645  -2.029  1.00  0.00     0.051 A 
ATOM     11  C   UNL     1       7.679  -1.709   0.038  1.00  0.00     0.166 A 
ATOM     12  C   UNL     1       7.773  -1.671  -1.332  1.00  0.00     0.165 A 
ATOM     13  O   UNL     1       8.371  -2.817   0.494  1.00  0.00    -0.454 OA
ATOM     14  O   UNL     1       8.536  -2.775  -1.715  1.00  0.00    -0.454 OA
ATOM     15  C   UNL     1       8.651  -3.666  -0.629  1.00  0.00     0.468 C 
ENDBRANCH   6   7
ENDBRANCH   1   6
TORSDOF 4
ENDMDL
