MODEL 1
REMARK VINA RESULT:      -7.7      0.000      0.000
REMARK SMILES O=C(O)CCc1ccc2c(c1)OCO2
REMARK SMILES IDX 4 1 2 2 1 3 3 4 5 6 6 7 7 8 11 9 8 10 10 11 9 12 12 13 14 14
REMARK SMILES IDX 13 15
REMARK H PARENT 3 5
REMARK Flexibility Score: inf
ROOT
ATOM      1  C   UNL     1       5.410   2.878   0.103  1.00  0.00     0.127 C 
ENDROOT
BRANCH   1   2
ATOM      2  C   UNL     1       6.229   3.878   0.770  1.00  0.00     0.303 C 
ATOM      3  O   UNL     1       6.907   4.740   0.209  1.00  0.00    -0.252 OA
BRANCH   2   4
ATOM      4  O   UNL     1       6.249   3.862   2.173  1.00  0.00    -0.481 OA
ATOM      5  H   UNL     1       7.037   3.401   2.602  1.00  0.00     0.296 HD
ENDBRANCH   2   4
ENDBRANCH   1   2
BRANCH   1   6
ATOM      6  C   UNL     1       5.361   1.577   0.803  1.00  0.00     0.047 C 
BRANCH   6   7
ATOM      7  C   UNL     1       6.128   0.469   0.229  1.00  0.00    -0.043 A 
ATOM      8  C   UNL     1       6.552  -0.598   1.006  1.00  0.00     0.008 A 
ATOM      9  C   UNL     1       6.484   0.476  -1.093  1.00  0.00     0.054 A 
ATOM     10  C   UNL     1       7.304  -1.622   0.476  1.00  0.00     0.051 A 
ATOM     11  C   UNL     1       7.237  -0.542  -1.648  1.00  0.00     0.166 A 
ATOM     12  C   UNL     1       7.650  -1.594  -0.866  1.00  0.00     0.165 A 
ATOM     13  O   UNL     1       7.705  -0.742  -2.935  1.00  0.00    -0.454 OA
ATOM     14  O   UNL     1       8.381  -2.448  -1.693  1.00  0.00    -0.454 OA
ATOM     15  C   UNL     1       8.690  -1.786  -2.897  1.00  0.00     0.468 C 
ENDBRANCH   6   7
ENDBRANCH   1   6
TORSDOF 4
ENDMDL
MODEL 2
REMARK VINA RESULT:      -7.6      2.131      2.519
REMARK SMILES O=C(O)CCc1ccc2c(c1)OCO2
REMARK SMILES IDX 4 1 2 2 1 3 3 4 5 6 6 7 7 8 11 9 8 10 10 11 9 12 12 13 14 14
REMARK SMILES IDX 13 15
REMARK H PARENT 3 5
REMARK Flexibility Score: inf
ROOT
ATOM      1  C   UNL     1       4.655   1.850   0.663  1.00  0.00     0.127 C 
ENDROOT
BRANCH   1   2
ATOM      2  C   UNL     1       4.390   1.161   1.916  1.00  0.00     0.303 C 
ATOM      3  O   UNL     1       5.145   0.358   2.468  1.00  0.00    -0.252 OA
BRANCH   2   4
ATOM      4  O   UNL     1       3.169   1.431   2.554  1.00  0.00    -0.481 OA
ATOM      5  H   UNL     1       2.461   0.716   2.483  1.00  0.00     0.296 HD
ENDBRANCH   2   4
ENDBRANCH   1   2
BRANCH   1   6
ATOM      6  C   UNL     1       6.068   2.250   0.486  1.00  0.00     0.047 C 
BRANCH   6   7
ATOM      7  C   UNL     1       6.940   1.343  -0.262  1.00  0.00    -0.043 A 
ATOM      8  C   UNL     1       8.304   1.572  -0.368  1.00  0.00     0.008 A 
ATOM      9  C   UNL     1       6.424   0.255  -0.915  1.00  0.00     0.054 A 
ATOM     10  C   UNL     1       9.120   0.740  -1.101  1.00  0.00     0.051 A 
ATOM     11  C   UNL     1       7.224  -0.594  -1.656  1.00  0.00     0.166 A 
ATOM     12  C   UNL     1       8.574  -0.355  -1.751  1.00  0.00     0.165 A 
ATOM     13  O   UNL     1       6.928  -1.732  -2.385  1.00  0.00    -0.454 OA
ATOM     14  O   UNL     1       9.106  -1.366  -2.553  1.00  0.00    -0.454 OA
ATOM     15  C   UNL     1       8.061  -2.046  -3.209  1.00  0.00     0.468 C 
ENDBRANCH   6   7
ENDBRANCH   1   6
TORSDOF 4
ENDMDL
MODEL 3
REMARK VINA RESULT:      -7.5      1.815      5.269
REMARK SMILES O=C(O)CCc1ccc2c(c1)OCO2
REMARK SMILES IDX 4 1 2 2 1 3 3 4 5 6 6 7 7 8 11 9 8 10 10 11 9 12 12 13 14 14
REMARK SMILES IDX 13 15
REMARK H PARENT 3 5
REMARK Flexibility Score: inf
ROOT
ATOM      1  C   UNL     1       8.232  -0.211  -2.837  1.00  0.00     0.127 C 
ENDROOT
BRANCH   1   2
ATOM      2  C   UNL     1       8.470  -1.631  -3.039  1.00  0.00     0.303 C 
ATOM      3  O   UNL     1       9.556  -2.201  -2.917  1.00  0.00    -0.252 OA
BRANCH   2   4
ATOM      4  O   UNL     1       7.370  -2.423  -3.405  1.00  0.00    -0.481 OA
ATOM      5  H   UNL     1       6.551  -1.927  -3.721  1.00  0.00     0.296 HD
ENDBRANCH   2   4
ENDBRANCH   1   2
BRANCH   1   6
ATOM      6  C   UNL     1       8.690   0.294  -1.524  1.00  0.00     0.047 C 
BRANCH   6   7
ATOM      7  C   UNL     1       7.742   0.239  -0.410  1.00  0.00    -0.043 A 
ATOM      8  C   UNL     1       7.772  -0.790   0.518  1.00  0.00     0.008 A 
ATOM      9  C   UNL     1       6.766   1.191  -0.274  1.00  0.00     0.054 A 
ATOM     10  C   UNL     1       6.858  -0.862   1.546  1.00  0.00     0.051 A 
ATOM     11  C   UNL     1       5.839   1.140   0.750  1.00  0.00     0.166 A 
ATOM     12  C   UNL     1       5.881   0.114   1.663  1.00  0.00     0.165 A 
ATOM     13  O   UNL     1       4.785   1.975   1.078  1.00  0.00    -0.454 OA
ATOM     14  O   UNL     1       4.835   0.330   2.561  1.00  0.00    -0.454 OA
ATOM     15  C   UNL     1       3.957   1.299   2.036  1.00  0.00     0.468 C 
ENDBRANCH   6   7
ENDBRANCH   1   6
TORSDOF 4
ENDMDL
MODEL 4
REMARK VINA RESULT:      -7.5      1.983      2.893
REMARK SMILES O=C(O)CCc1ccc2c(c1)OCO2
REMARK SMILES IDX 4 1 2 2 1 3 3 4 5 6 6 7 7 8 11 9 8 10 10 11 9 12 12 13 14 14
REMARK SMILES IDX 13 15
REMARK H PARENT 3 5
REMARK Flexibility Score: inf
ROOT
ATOM      1  C   UNL     1       6.415   1.300   0.719  1.00  0.00     0.127 C 
ENDROOT
BRANCH   1   2
ATOM      2  C   UNL     1       5.178   1.308   1.484  1.00  0.00     0.303 C 
ATOM      3  O   UNL     1       4.251   2.107   1.340  1.00  0.00    -0.252 OA
BRANCH   2   4
ATOM      4  O   UNL     1       5.024   0.323   2.471  1.00  0.00    -0.481 OA
ATOM      5  H   UNL     1       4.915   0.654   3.418  1.00  0.00     0.296 HD
ENDBRANCH   2   4
ENDBRANCH   1   2
BRANCH   1   6
ATOM      6  C   UNL     1       6.251   0.858  -0.682  1.00  0.00     0.047 C 
BRANCH   6   7
ATOM      7  C   UNL     1       6.996  -0.328  -1.109  1.00  0.00    -0.043 A 
ATOM      8  C   UNL     1       7.292  -0.557  -2.444  1.00  0.00     0.008 A 
ATOM      9  C   UNL     1       7.391  -1.272  -0.199  1.00  0.00     0.054 A 
ATOM     10  C   UNL     1       7.961  -1.690  -2.851  1.00  0.00     0.051 A 
ATOM     11  C   UNL     1       8.064  -2.417  -0.584  1.00  0.00     0.166 A 
ATOM     12  C   UNL     1       8.351  -2.629  -1.911  1.00  0.00     0.165 A 
ATOM     13  O   UNL     1       8.551  -3.486   0.147  1.00  0.00    -0.454 OA
ATOM     14  O   UNL     1       9.025  -3.849  -1.986  1.00  0.00    -0.454 OA
ATOM     15  C   UNL     1       8.883  -4.542  -0.768  1.00  0.00     0.468 C 
ENDBRANCH   6   7
ENDBRANCH   1   6
TORSDOF 4
ENDMDL
MODEL 5
REMARK VINA RESULT:      -7.4      0.936      2.107
REMARK SMILES O=C(O)CCc1ccc2c(c1)OCO2
REMARK SMILES IDX 4 1 2 2 1 3 3 4 5 6 6 7 7 8 11 9 8 10 10 11 9 12 12 13 14 14
REMARK SMILES IDX 13 15
REMARK H PARENT 3 5
REMARK Flexibility Score: inf
ROOT
ATOM      1  C   UNL     1       5.349   2.890   0.149  1.00  0.00     0.127 C 
ENDROOT
BRANCH   1   2
ATOM      2  C   UNL     1       6.120   3.895   0.865  1.00  0.00     0.303 C 
ATOM      3  O   UNL     1       6.146   4.042   2.088  1.00  0.00    -0.252 OA
BRANCH   2   4
ATOM      4  O   UNL     1       6.901   4.775   0.099  1.00  0.00    -0.481 OA
ATOM      5  H   UNL     1       7.831   4.957   0.442  1.00  0.00     0.296 HD
ENDBRANCH   2   4
ENDBRANCH   1   2
BRANCH   1   6
ATOM      6  C   UNL     1       5.357   1.558   0.790  1.00  0.00     0.047 C 
BRANCH   6   7
ATOM      7  C   UNL     1       6.182   0.516   0.176  1.00  0.00    -0.043 A 
ATOM      8  C   UNL     1       6.442   0.506  -1.186  1.00  0.00     0.008 A 
ATOM      9  C   UNL     1       6.692  -0.509   0.929  1.00  0.00     0.054 A 
ATOM     10  C   UNL     1       7.187  -0.494  -1.771  1.00  0.00     0.051 A 
ATOM     11  C   UNL     1       7.442  -1.522   0.363  1.00  0.00     0.166 A 
ATOM     12  C   UNL     1       7.693  -1.518  -0.988  1.00  0.00     0.165 A 
ATOM     13  O   UNL     1       8.047  -2.636   0.918  1.00  0.00    -0.454 OA
ATOM     14  O   UNL     1       8.463  -2.650  -1.258  1.00  0.00    -0.454 OA
ATOM     15  C   UNL     1       8.430  -3.518  -0.148  1.00  0.00     0.468 C 
ENDBRANCH   6   7
ENDBRANCH   1   6
TORSDOF 4
ENDMDL
