@<TRIPOS>MOLECULE
/home/cewinharhar/GITHUB/reincatalyze/data/processed/docking_pred/2023-May-17-1006_maxeplen10_maxtrainstep1000_seadep16_gamma099_lrac9e-4_lrcr1e-3_sub6/d7d9c72b52c2e0a01b4806f6bcc2a503b8c9528b_ligand_6.pdbqt
 15 16 0 0 0
SMALL
GASTEIGER

@<TRIPOS>ATOM
      1  C          4.6550    1.8500    0.6630 C.3     1  UNL1        0.1270
      2  C          4.3900    1.1610    1.9160 C.2     1  UNL1        0.3030
      3  O          5.1450    0.3580    2.4680 O.2     1  UNL1       -0.2520
      4  O          3.1690    1.4310    2.5540 O.3     1  UNL1       -0.4810
      5  H          2.4610    0.7160    2.4830 H       1  UNL1        0.2960
      6  C          6.0680    2.2500    0.4860 C.3     1  UNL1        0.0470
      7  C          6.9400    1.3430   -0.2620 C.2     1  UNL1       -0.0430
      8  C          8.3040    1.5720   -0.3680 C.2     1  UNL1        0.0080
      9  C          6.4240    0.2550   -0.9150 C.2     1  UNL1        0.0540
     10  C          9.1200    0.7400   -1.1010 C.2     1  UNL1        0.0510
     11  C          7.2240   -0.5940   -1.6560 C.2     1  UNL1        0.1660
     12  C          8.5740   -0.3550   -1.7510 C.2     1  UNL1        0.1650
     13  O          6.9280   -1.7320   -2.3850 O.2     1  UNL1       -0.4540
     14  O          9.1060   -1.3660   -2.5530 O.2     1  UNL1       -0.4540
     15  C          8.0610   -2.0460   -3.2090 C.3     1  UNL1        0.4680
@<TRIPOS>BOND
     1    15    14    1
     2    15    13    1
     3    14    12    1
     4    13    11    1
     5    12    11    2
     6    12    10    1
     7    11     9    1
     8    10     8    2
     9     9     7    2
    10     8     7    1
    11     7     6    1
    12     6     1    1
    13     1     2    1
    14     2     3    2
    15     2     4    1
    16     5     4    1
