@<TRIPOS>MOLECULE
/home/cewinharhar/GITHUB/reincatalyze/data/processed/docking_pred/2023-May-17-1006_maxeplen10_maxtrainstep1000_seadep16_gamma099_lrac9e-4_lrcr1e-3_sub6/d7d9c72b52c2e0a01b4806f6bcc2a503b8c9528b_ligand_6.pdbqt
 15 16 0 0 0
SMALL
GASTEIGER

@<TRIPOS>ATOM
      1  C          5.3490    2.8900    0.1490 C.3     1  UNL1        0.1270
      2  C          6.1200    3.8950    0.8650 C.2     1  UNL1        0.3030
      3  O          6.1460    4.0420    2.0880 O.2     1  UNL1       -0.2520
      4  O          6.9010    4.7750    0.0990 O.3     1  UNL1       -0.4810
      5  H          7.8310    4.9570    0.4420 H       1  UNL1        0.2960
      6  C          5.3570    1.5580    0.7900 C.3     1  UNL1        0.0470
      7  C          6.1820    0.5160    0.1760 C.2     1  UNL1       -0.0430
      8  C          6.4420    0.5060   -1.1860 C.2     1  UNL1        0.0080
      9  C          6.6920   -0.5090    0.9290 C.2     1  UNL1        0.0540
     10  C          7.1870   -0.4940   -1.7710 C.2     1  UNL1        0.0510
     11  C          7.4420   -1.5220    0.3630 C.2     1  UNL1        0.1660
     12  C          7.6930   -1.5180   -0.9880 C.2     1  UNL1        0.1650
     13  O          8.0470   -2.6360    0.9180 O.2     1  UNL1       -0.4540
     14  O          8.4630   -2.6500   -1.2580 O.2     1  UNL1       -0.4540
     15  C          8.4300   -3.5180   -0.1480 C.3     1  UNL1        0.4680
@<TRIPOS>BOND
     1    10     8    1
     2    10    12    2
     3    14    12    1
     4    14    15    1
     5     8     7    2
     6    12    11    1
     7    15    13    1
     8     4     5    1
     9     4     2    1
    10     1     6    1
    11     1     2    1
    12     7     6    1
    13     7     9    1
    14    11    13    1
    15    11     9    2
    16     2     3    2
