@<TRIPOS>MOLECULE
/home/cewinharhar/GITHUB/reincatalyze/data/processed/docking_pred/2023-May-17-1006_maxeplen10_maxtrainstep1000_seadep16_gamma099_lrac9e-4_lrcr1e-3_sub6/d7d9c72b52c2e0a01b4806f6bcc2a503b8c9528b_ligand_6.pdbqt
 15 16 0 0 0
SMALL
GASTEIGER

@<TRIPOS>ATOM
      1  C          5.4100    2.8780    0.1030 C.3     1  UNL1        0.1270
      2  C          6.2290    3.8780    0.7700 C.2     1  UNL1        0.3030
      3  O          6.9070    4.7400    0.2090 O.2     1  UNL1       -0.2520
      4  O          6.2490    3.8620    2.1730 O.3     1  UNL1       -0.4810
      5  H          7.0370    3.4010    2.6020 H       1  UNL1        0.2960
      6  C          5.3610    1.5770    0.8030 C.3     1  UNL1        0.0470
      7  C          6.1280    0.4690    0.2290 C.2     1  UNL1       -0.0430
      8  C          6.5520   -0.5980    1.0060 C.2     1  UNL1        0.0080
      9  C          6.4840    0.4760   -1.0930 C.2     1  UNL1        0.0540
     10  C          7.3040   -1.6220    0.4760 C.2     1  UNL1        0.0510
     11  C          7.2370   -0.5420   -1.6480 C.2     1  UNL1        0.1660
     12  C          7.6500   -1.5940   -0.8660 C.2     1  UNL1        0.1650
     13  O          7.7050   -0.7420   -2.9350 O.2     1  UNL1       -0.4540
     14  O          8.3810   -2.4480   -1.6930 O.2     1  UNL1       -0.4540
     15  C          8.6900   -1.7860   -2.8970 C.3     1  UNL1        0.4680
@<TRIPOS>BOND
     1    13    15    1
     2    13    11    1
     3    15    14    1
     4    14    12    1
     5    11     9    1
     6    11    12    2
     7     9     7    2
     8    12    10    1
     9     1     2    1
    10     1     6    1
    11     3     2    2
    12     7     6    1
    13     7     8    1
    14    10     8    2
    15     2     4    1
    16     4     5    1
