@<TRIPOS>MOLECULE
/home/cewinharhar/GITHUB/reincatalyze/data/processed/docking_pred/2023-May-17-1006_maxeplen10_maxtrainstep1000_seadep16_gamma099_lrac9e-4_lrcr1e-3_sub6/d7d9c72b52c2e0a01b4806f6bcc2a503b8c9528b_ligand_6.pdbqt
 15 16 0 0 0
SMALL
GASTEIGER

@<TRIPOS>ATOM
      1  C          6.4150    1.3000    0.7190 C.3     1  UNL1        0.1270
      2  C          5.1780    1.3080    1.4840 C.2     1  UNL1        0.3030
      3  O          4.2510    2.1070    1.3400 O.2     1  UNL1       -0.2520
      4  O          5.0240    0.3230    2.4710 O.3     1  UNL1       -0.4810
      5  H          4.9150    0.6540    3.4180 H       1  UNL1        0.2960
      6  C          6.2510    0.8580   -0.6820 C.3     1  UNL1        0.0470
      7  C          6.9960   -0.3280   -1.1090 C.2     1  UNL1       -0.0430
      8  C          7.2920   -0.5570   -2.4440 C.2     1  UNL1        0.0080
      9  C          7.3910   -1.2720   -0.1990 C.2     1  UNL1        0.0540
     10  C          7.9610   -1.6900   -2.8510 C.2     1  UNL1        0.0510
     11  C          8.0640   -2.4170   -0.5840 C.2     1  UNL1        0.1660
     12  C          8.3510   -2.6290   -1.9110 C.2     1  UNL1        0.1650
     13  O          8.5510   -3.4860    0.1470 O.2     1  UNL1       -0.4540
     14  O          9.0250   -3.8490   -1.9860 O.2     1  UNL1       -0.4540
     15  C          8.8830   -4.5420   -0.7680 C.3     1  UNL1        0.4680
@<TRIPOS>BOND
     1    10     8    1
     2    10    12    2
     3     8     7    2
     4    14    12    1
     5    14    15    1
     6    12    11    1
     7     7     6    1
     8     7     9    1
     9    15    13    1
    10     6     1    1
    11    11     9    2
    12    11    13    1
    13     1     2    1
    14     3     2    2
    15     2     4    1
    16     4     5    1
