@<TRIPOS>MOLECULE
/home/cewinharhar/GITHUB/reincatalyze/data/processed/docking_pred/2023-May-17-1006_maxeplen10_maxtrainstep1000_seadep16_gamma099_lrac9e-4_lrcr1e-3_sub6/d7d9c72b52c2e0a01b4806f6bcc2a503b8c9528b_ligand_6.pdbqt
 15 16 0 0 0
SMALL
GASTEIGER

@<TRIPOS>ATOM
      1  C          8.2320   -0.2110   -2.8370 C.3     1  UNL1        0.1270
      2  C          8.4700   -1.6310   -3.0390 C.2     1  UNL1        0.3030
      3  O          9.5560   -2.2010   -2.9170 O.2     1  UNL1       -0.2520
      4  O          7.3700   -2.4230   -3.4050 O.3     1  UNL1       -0.4810
      5  H          6.5510   -1.9270   -3.7210 H       1  UNL1        0.2960
      6  C          8.6900    0.2940   -1.5240 C.3     1  UNL1        0.0470
      7  C          7.7420    0.2390   -0.4100 C.2     1  UNL1       -0.0430
      8  C          7.7720   -0.7900    0.5180 C.2     1  UNL1        0.0080
      9  C          6.7660    1.1910   -0.2740 C.2     1  UNL1        0.0540
     10  C          6.8580   -0.8620    1.5460 C.2     1  UNL1        0.0510
     11  C          5.8390    1.1400    0.7500 C.2     1  UNL1        0.1660
     12  C          5.8810    0.1140    1.6630 C.2     1  UNL1        0.1650
     13  O          4.7850    1.9750    1.0780 O.2     1  UNL1       -0.4540
     14  O          4.8350    0.3300    2.5610 O.2     1  UNL1       -0.4540
     15  C          3.9570    1.2990    2.0360 C.3     1  UNL1        0.4680
@<TRIPOS>BOND
     1     5     4    1
     2     4     2    1
     3     2     3    2
     4     2     1    1
     5     1     6    1
     6     6     7    1
     7     7     9    2
     8     7     8    1
     9     9    11    1
    10     8    10    2
    11    11    13    1
    12    11    12    2
    13    13    15    1
    14    10    12    1
    15    12    14    1
    16    15    14    1
