@<TRIPOS>MOLECULE
/home/cewinharhar/GITHUB/reincatalyze/data/processed/docking_pred/2023-May-17-1006_maxeplen10_maxtrainstep1000_seadep16_gamma099_lrac9e-4_lrcr1e-3_sub6/d98db6e7330c4682e6208573911aa9edae27e8f4_ligand_6.pdbqt
 15 16 0 0 0
SMALL
GASTEIGER

@<TRIPOS>ATOM
      1  C          5.4200    0.9910    0.5550 C.3     1  UNL1        0.1270
      2  C          5.0940    0.5280    1.8940 C.2     1  UNL1        0.3030
      3  O          5.7810   -0.2340    2.5770 O.2     1  UNL1       -0.2520
      4  O          3.8940    0.9860    2.4600 O.3     1  UNL1       -0.4810
      5  H          3.9740    1.7440    3.1200 H       1  UNL1        0.2960
      6  C          6.8650    0.9550    0.2420 C.3     1  UNL1        0.0470
      7  C          7.3690   -0.2040   -0.4980 C.2     1  UNL1       -0.0430
      8  C          7.3270   -0.2540   -1.8830 C.2     1  UNL1        0.0080
      9  C          7.8630   -1.2970    0.1640 C.2     1  UNL1        0.0540
     10  C          7.7670   -1.3580   -2.5790 C.2     1  UNL1        0.0510
     11  C          8.3110   -2.4150   -0.5130 C.2     1  UNL1        0.1660
     12  C          8.2650   -2.4500   -1.8860 C.2     1  UNL1        0.1650
     13  O          8.8410   -3.6110   -0.0630 O.2     1  UNL1       -0.4540
     14  O          8.7760   -3.6890   -2.2760 O.2     1  UNL1       -0.4540
     15  C          8.8460   -4.5410   -1.1560 C.3     1  UNL1        0.4680
@<TRIPOS>BOND
     1    10    12    2
     2    10     8    1
     3    14    12    1
     4    14    15    1
     5    12    11    1
     6     8     7    2
     7    15    13    1
     8    11    13    1
     9    11     9    2
    10     7     9    1
    11     7     6    1
    12     6     1    1
    13     1     2    1
    14     2     4    1
    15     2     3    2
    16     4     5    1
