@<TRIPOS>MOLECULE
/home/cewinharhar/GITHUB/reincatalyze/data/processed/docking_pred/2023-May-17-1006_maxeplen10_maxtrainstep1000_seadep16_gamma099_lrac9e-4_lrcr1e-3_sub6/d98db6e7330c4682e6208573911aa9edae27e8f4_ligand_6.pdbqt
 15 16 0 0 0
SMALL
GASTEIGER

@<TRIPOS>ATOM
      1  C          8.3910   -0.3170   -3.2090 C.3     1  UNL1        0.1270
      2  C          8.4970   -1.7680   -3.2010 C.2     1  UNL1        0.3030
      3  O          9.5400   -2.4100   -3.0590 O.2     1  UNL1       -0.2520
      4  O          7.3130   -2.5020   -3.3690 O.3     1  UNL1       -0.4810
      5  H          6.7970   -2.7130   -2.5290 H       1  UNL1        0.2960
      6  C          8.9220    0.3300   -1.9910 C.3     1  UNL1        0.0470
      7  C          8.1680    0.1560   -0.7470 C.2     1  UNL1       -0.0430
      8  C          8.6020   -0.7070    0.2480 C.2     1  UNL1        0.0080
      9  C          6.9840    0.8150   -0.5480 C.2     1  UNL1        0.0540
     10  C          7.8750   -0.8990    1.4020 C.2     1  UNL1        0.0510
     11  C          6.2390    0.6380    0.6020 C.2     1  UNL1        0.1660
     12  C          6.6810   -0.2190    1.5810 C.2     1  UNL1        0.1650
     13  O          5.0370    1.1880    1.0120 O.2     1  UNL1       -0.4540
     14  O          5.7310   -0.1890    2.6030 O.2     1  UNL1       -0.4540
     15  C          4.5570    0.4330    2.1350 C.3     1  UNL1        0.4680
@<TRIPOS>BOND
     1     4     2    1
     2     4     5    1
     3     1     2    1
     4     1     6    1
     5     2     3    2
     6     6     7    1
     7     7     9    2
     8     7     8    1
     9     9    11    1
    10     8    10    2
    11    11    13    1
    12    11    12    2
    13    13    15    1
    14    10    12    1
    15    12    14    1
    16    15    14    1
