@<TRIPOS>MOLECULE
/home/cewinharhar/GITHUB/reincatalyze/data/processed/docking_pred/2023-May-17-1006_maxeplen10_maxtrainstep1000_seadep16_gamma099_lrac9e-4_lrcr1e-3_sub6/d98db6e7330c4682e6208573911aa9edae27e8f4_ligand_6.pdbqt
 15 16 0 0 0
SMALL
GASTEIGER

@<TRIPOS>ATOM
      1  C          6.1610    2.5270    0.0090 C.3     1  UNL1        0.1270
      2  C          6.6030    3.7040    0.7410 C.2     1  UNL1        0.3030
      3  O          6.9460    4.7750    0.2370 O.2     1  UNL1       -0.2520
      4  O          6.6440    3.6140    2.1410 O.3     1  UNL1       -0.4810
      5  H          7.0800    4.3850    2.6240 H       1  UNL1        0.2960
      6  C          6.0130    1.3190    0.8480 C.3     1  UNL1        0.0470
      7  C          6.6780    0.0950    0.3970 C.2     1  UNL1       -0.0430
      8  C          7.3330   -0.7450    1.2850 C.2     1  UNL1        0.0080
      9  C          6.7050   -0.2380   -0.9320 C.2     1  UNL1        0.0540
     10  C          7.9890   -1.8770    0.8560 C.2     1  UNL1        0.0510
     11  C          7.3560   -1.3700   -1.3840 C.2     1  UNL1        0.1660
     12  C          8.0000   -2.1930   -0.4920 C.2     1  UNL1        0.1650
     13  O          7.5110   -1.8940   -2.6560 O.2     1  UNL1       -0.4540
     14  O          8.5560   -3.2360   -1.2350 O.2     1  UNL1       -0.4540
     15  C          8.5310   -2.9030   -2.6040 C.3     1  UNL1        0.4680
@<TRIPOS>BOND
     1    13    15    1
     2    13    11    1
     3    15    14    1
     4    11     9    1
     5    11    12    2
     6    14    12    1
     7     9     7    2
     8    12    10    1
     9     1     2    1
    10     1     6    1
    11     3     2    2
    12     7     6    1
    13     7     8    1
    14     2     4    1
    15    10     8    2
    16     4     5    1
