@<TRIPOS>MOLECULE
/home/cewinharhar/GITHUB/reincatalyze/data/processed/docking_pred/2023-May-17-1006_maxeplen10_maxtrainstep1000_seadep16_gamma099_lrac9e-4_lrcr1e-3_sub6/d98db6e7330c4682e6208573911aa9edae27e8f4_ligand_6.pdbqt
 15 16 0 0 0
SMALL
GASTEIGER

@<TRIPOS>ATOM
      1  C          8.7070   -0.5850   -2.8360 C.3     1  UNL1        0.1270
      2  C          8.6530   -2.0110   -3.1190 C.2     1  UNL1        0.3030
      3  O          7.6300   -2.6960   -3.1580 O.2     1  UNL1       -0.2520
      4  O          9.8700   -2.6650   -3.3690 O.3     1  UNL1       -0.4810
      5  H         10.5920   -2.1120   -3.8050 H       1  UNL1        0.2960
      6  C          7.3790    0.0490   -2.6920 C.3     1  UNL1        0.0470
      7  C          6.8060    0.1200   -1.3460 C.2     1  UNL1       -0.0430
      8  C          6.0040    1.1810   -0.9550 C.2     1  UNL1        0.0080
      9  C          7.0790   -0.8480   -0.4160 C.2     1  UNL1        0.0540
     10  C          5.4940    1.2680    0.3210 C.2     1  UNL1        0.0510
     11  C          6.5780   -0.7820    0.8700 C.2     1  UNL1        0.1660
     12  C          5.7830    0.2750    1.2430 C.2     1  UNL1        0.1650
     13  O          6.7190   -1.6290    1.9560 O.2     1  UNL1       -0.4540
     14  O          5.4360    0.0670    2.5790 O.2     1  UNL1       -0.4540
     15  C          6.2570   -0.9380    3.1270 C.3     1  UNL1        0.4680
@<TRIPOS>BOND
     1     5     4    1
     2     4     2    1
     3     3     2    2
     4     2     1    1
     5     1     6    1
     6     6     7    1
     7     7     8    2
     8     7     9    1
     9     8    10    1
    10     9    11    2
    11    10    12    2
    12    11    12    1
    13    11    13    1
    14    12    14    1
    15    13    15    1
    16    14    15    1
