@<TRIPOS>MOLECULE
/home/cewinharhar/GITHUB/reincatalyze/data/processed/docking_pred/2023-May-17-1006_maxeplen10_maxtrainstep1000_seadep16_gamma099_lrac9e-4_lrcr1e-3_sub6/d98db6e7330c4682e6208573911aa9edae27e8f4_ligand_6.pdbqt
 15 16 0 0 0
SMALL
GASTEIGER

@<TRIPOS>ATOM
      1  C          8.3180   -0.3190   -2.8510 C.3     1  UNL1        0.1270
      2  C          8.4770   -1.7480   -3.0710 C.2     1  UNL1        0.3030
      3  O          9.5430   -2.3650   -3.0380 O.2     1  UNL1       -0.2520
      4  O          7.3170   -2.4910   -3.3440 O.3     1  UNL1       -0.4810
      5  H          7.2320   -3.3750   -2.8670 H       1  UNL1        0.2960
      6  C          8.7680    0.1360   -1.5180 C.3     1  UNL1        0.0470
      7  C          7.7940    0.0960   -0.4240 C.2     1  UNL1       -0.0430
      8  C          7.7330   -0.9750    0.4530 C.2     1  UNL1        0.0080
      9  C          6.8840    1.1060   -0.2610 C.2     1  UNL1        0.0540
     10  C          6.7950   -1.0310    1.4590 C.2     1  UNL1        0.0510
     11  C          5.9330    1.0720    0.7420 C.2     1  UNL1        0.1660
     12  C          5.8850    0.0040    1.6050 C.2     1  UNL1        0.1650
     13  O          4.9330    1.9630    1.0910 O.2     1  UNL1       -0.4540
     14  O          4.8370    0.2510    2.4940 O.2     1  UNL1       -0.4540
     15  C          4.0400    1.3020    2.0000 C.3     1  UNL1        0.4680
@<TRIPOS>BOND
     1     4     2    1
     2     4     5    1
     3     2     3    2
     4     2     1    1
     5     1     6    1
     6     6     7    1
     7     7     9    2
     8     7     8    1
     9     9    11    1
    10     8    10    2
    11    11    13    1
    12    11    12    2
    13    13    15    1
    14    10    12    1
    15    12    14    1
    16    15    14    1
