MODEL 1
REMARK VINA RESULT:      -7.3      0.000      0.000
REMARK SMILES O=C(O)CCc1ccc2c(c1)OCO2
REMARK SMILES IDX 4 1 2 2 1 3 3 4 5 6 6 7 7 8 11 9 8 10 10 11 9 12 12 13 14 14
REMARK SMILES IDX 13 15
REMARK H PARENT 3 5
REMARK Flexibility Score: inf
ROOT
ATOM      1  C   UNL     1       5.420   0.991   0.555  1.00  0.00     0.127 C 
ENDROOT
BRANCH   1   2
ATOM      2  C   UNL     1       5.094   0.528   1.894  1.00  0.00     0.303 C 
ATOM      3  O   UNL     1       5.781  -0.234   2.577  1.00  0.00    -0.252 OA
BRANCH   2   4
ATOM      4  O   UNL     1       3.894   0.986   2.460  1.00  0.00    -0.481 OA
ATOM      5  H   UNL     1       3.974   1.744   3.120  1.00  0.00     0.296 HD
ENDBRANCH   2   4
ENDBRANCH   1   2
BRANCH   1   6
ATOM      6  C   UNL     1       6.865   0.955   0.242  1.00  0.00     0.047 C 
BRANCH   6   7
ATOM      7  C   UNL     1       7.369  -0.204  -0.498  1.00  0.00    -0.043 A 
ATOM      8  C   UNL     1       7.327  -0.254  -1.883  1.00  0.00     0.008 A 
ATOM      9  C   UNL     1       7.863  -1.297   0.164  1.00  0.00     0.054 A 
ATOM     10  C   UNL     1       7.767  -1.358  -2.579  1.00  0.00     0.051 A 
ATOM     11  C   UNL     1       8.311  -2.415  -0.513  1.00  0.00     0.166 A 
ATOM     12  C   UNL     1       8.265  -2.450  -1.886  1.00  0.00     0.165 A 
ATOM     13  O   UNL     1       8.841  -3.611  -0.063  1.00  0.00    -0.454 OA
ATOM     14  O   UNL     1       8.776  -3.689  -2.276  1.00  0.00    -0.454 OA
ATOM     15  C   UNL     1       8.846  -4.541  -1.156  1.00  0.00     0.468 C 
ENDBRANCH   6   7
ENDBRANCH   1   6
TORSDOF 4
ENDMDL
MODEL 2
REMARK VINA RESULT:      -7.1      1.728      5.257
REMARK SMILES O=C(O)CCc1ccc2c(c1)OCO2
REMARK SMILES IDX 4 1 2 2 1 3 3 4 5 6 6 7 7 8 11 9 8 10 10 11 9 12 12 13 14 14
REMARK SMILES IDX 13 15
REMARK H PARENT 3 5
REMARK Flexibility Score: inf
ROOT
ATOM      1  C   UNL     1       8.391  -0.317  -3.209  1.00  0.00     0.127 C 
ENDROOT
BRANCH   1   2
ATOM      2  C   UNL     1       8.497  -1.768  -3.201  1.00  0.00     0.303 C 
ATOM      3  O   UNL     1       9.540  -2.410  -3.059  1.00  0.00    -0.252 OA
BRANCH   2   4
ATOM      4  O   UNL     1       7.313  -2.502  -3.369  1.00  0.00    -0.481 OA
ATOM      5  H   UNL     1       6.797  -2.713  -2.529  1.00  0.00     0.296 HD
ENDBRANCH   2   4
ENDBRANCH   1   2
BRANCH   1   6
ATOM      6  C   UNL     1       8.922   0.330  -1.991  1.00  0.00     0.047 C 
BRANCH   6   7
ATOM      7  C   UNL     1       8.168   0.156  -0.747  1.00  0.00    -0.043 A 
ATOM      8  C   UNL     1       8.602  -0.707   0.248  1.00  0.00     0.008 A 
ATOM      9  C   UNL     1       6.984   0.815  -0.548  1.00  0.00     0.054 A 
ATOM     10  C   UNL     1       7.875  -0.899   1.402  1.00  0.00     0.051 A 
ATOM     11  C   UNL     1       6.239   0.638   0.602  1.00  0.00     0.166 A 
ATOM     12  C   UNL     1       6.681  -0.219   1.581  1.00  0.00     0.165 A 
ATOM     13  O   UNL     1       5.037   1.188   1.012  1.00  0.00    -0.454 OA
ATOM     14  O   UNL     1       5.731  -0.189   2.603  1.00  0.00    -0.454 OA
ATOM     15  C   UNL     1       4.557   0.433   2.135  1.00  0.00     0.468 C 
ENDBRANCH   6   7
ENDBRANCH   1   6
TORSDOF 4
ENDMDL
MODEL 3
REMARK VINA RESULT:      -6.8      2.195      2.860
REMARK SMILES O=C(O)CCc1ccc2c(c1)OCO2
REMARK SMILES IDX 4 1 2 2 1 3 3 4 5 6 6 7 7 8 11 9 8 10 10 11 9 12 12 13 14 14
REMARK SMILES IDX 13 15
REMARK H PARENT 3 5
REMARK Flexibility Score: inf
ROOT
ATOM      1  C   UNL     1       6.161   2.527   0.009  1.00  0.00     0.127 C 
ENDROOT
BRANCH   1   2
ATOM      2  C   UNL     1       6.603   3.704   0.741  1.00  0.00     0.303 C 
ATOM      3  O   UNL     1       6.946   4.775   0.237  1.00  0.00    -0.252 OA
BRANCH   2   4
ATOM      4  O   UNL     1       6.644   3.614   2.141  1.00  0.00    -0.481 OA
ATOM      5  H   UNL     1       7.080   4.385   2.624  1.00  0.00     0.296 HD
ENDBRANCH   2   4
ENDBRANCH   1   2
BRANCH   1   6
ATOM      6  C   UNL     1       6.013   1.319   0.848  1.00  0.00     0.047 C 
BRANCH   6   7
ATOM      7  C   UNL     1       6.678   0.095   0.397  1.00  0.00    -0.043 A 
ATOM      8  C   UNL     1       7.333  -0.745   1.285  1.00  0.00     0.008 A 
ATOM      9  C   UNL     1       6.705  -0.238  -0.932  1.00  0.00     0.054 A 
ATOM     10  C   UNL     1       7.989  -1.877   0.856  1.00  0.00     0.051 A 
ATOM     11  C   UNL     1       7.356  -1.370  -1.384  1.00  0.00     0.166 A 
ATOM     12  C   UNL     1       8.000  -2.193  -0.492  1.00  0.00     0.165 A 
ATOM     13  O   UNL     1       7.511  -1.894  -2.656  1.00  0.00    -0.454 OA
ATOM     14  O   UNL     1       8.556  -3.236  -1.235  1.00  0.00    -0.454 OA
ATOM     15  C   UNL     1       8.531  -2.903  -2.604  1.00  0.00     0.468 C 
ENDBRANCH   6   7
ENDBRANCH   1   6
TORSDOF 4
ENDMDL
MODEL 4
REMARK VINA RESULT:      -6.8      1.722      5.084
REMARK SMILES O=C(O)CCc1ccc2c(c1)OCO2
REMARK SMILES IDX 4 1 2 2 1 3 3 4 5 6 6 7 7 8 11 9 8 10 10 11 9 12 12 13 14 14
REMARK SMILES IDX 13 15
REMARK H PARENT 3 5
REMARK Flexibility Score: inf
ROOT
ATOM      1  C   UNL     1       8.707  -0.585  -2.836  1.00  0.00     0.127 C 
ENDROOT
BRANCH   1   2
ATOM      2  C   UNL     1       8.653  -2.011  -3.119  1.00  0.00     0.303 C 
ATOM      3  O   UNL     1       7.630  -2.696  -3.158  1.00  0.00    -0.252 OA
BRANCH   2   4
ATOM      4  O   UNL     1       9.870  -2.665  -3.369  1.00  0.00    -0.481 OA
ATOM      5  H   UNL     1      10.592  -2.112  -3.805  1.00  0.00     0.296 HD
ENDBRANCH   2   4
ENDBRANCH   1   2
BRANCH   1   6
ATOM      6  C   UNL     1       7.379   0.049  -2.692  1.00  0.00     0.047 C 
BRANCH   6   7
ATOM      7  C   UNL     1       6.806   0.120  -1.346  1.00  0.00    -0.043 A 
ATOM      8  C   UNL     1       6.004   1.181  -0.955  1.00  0.00     0.008 A 
ATOM      9  C   UNL     1       7.079  -0.848  -0.416  1.00  0.00     0.054 A 
ATOM     10  C   UNL     1       5.494   1.268   0.321  1.00  0.00     0.051 A 
ATOM     11  C   UNL     1       6.578  -0.782   0.870  1.00  0.00     0.166 A 
ATOM     12  C   UNL     1       5.783   0.275   1.243  1.00  0.00     0.165 A 
ATOM     13  O   UNL     1       6.719  -1.629   1.956  1.00  0.00    -0.454 OA
ATOM     14  O   UNL     1       5.436   0.067   2.579  1.00  0.00    -0.454 OA
ATOM     15  C   UNL     1       6.257  -0.938   3.127  1.00  0.00     0.468 C 
ENDBRANCH   6   7
ENDBRANCH   1   6
TORSDOF 4
ENDMDL
