@<TRIPOS>MOLECULE
/home/cewinharhar/GITHUB/reincatalyze/data/processed/docking_pred/2023-May-17-1006_maxeplen10_maxtrainstep1000_seadep16_gamma099_lrac9e-4_lrcr1e-3_sub6/da55d276f49f8aea3f2b333b6115ea57fe53d1b0_ligand_6.pdbqt
 15 16 0 0 0
SMALL
GASTEIGER

@<TRIPOS>ATOM
      1  C          5.4250    2.8680    0.1210 C.3     1  UNL1        0.1270
      2  C          6.2550    3.8460    0.8060 C.2     1  UNL1        0.3030
      3  O          6.9010    4.7450    0.2640 O.2     1  UNL1       -0.2520
      4  O          6.3280    3.7610    2.2060 O.3     1  UNL1       -0.4810
      5  H          5.5690    4.1830    2.7180 H       1  UNL1        0.2960
      6  C          5.3550    1.5580    0.8010 C.3     1  UNL1        0.0470
      7  C          6.1340    0.4560    0.2310 C.2     1  UNL1       -0.0430
      8  C          6.5830   -0.5960    1.0140 C.2     1  UNL1        0.0080
      9  C          6.4770    0.4540   -1.0950 C.2     1  UNL1        0.0540
     10  C          7.3460   -1.6130    0.4870 C.2     1  UNL1        0.0510
     11  C          7.2410   -0.5570   -1.6460 C.2     1  UNL1        0.1660
     12  C          7.6780   -1.5930   -0.8580 C.2     1  UNL1        0.1650
     13  O          7.7000   -0.7630   -2.9360 O.2     1  UNL1       -0.4540
     14  O          8.4150   -2.4440   -1.6830 O.2     1  UNL1       -0.4540
     15  C          8.7020   -1.7900   -2.8970 C.3     1  UNL1        0.4680
@<TRIPOS>BOND
     1    13    15    1
     2    13    11    1
     3    15    14    1
     4    14    12    1
     5    11     9    1
     6    11    12    2
     7     9     7    2
     8    12    10    1
     9     1     6    1
    10     1     2    1
    11     7     6    1
    12     7     8    1
    13     3     2    2
    14    10     8    2
    15     2     4    1
    16     4     5    1
