@<TRIPOS>MOLECULE
/home/cewinharhar/GITHUB/reincatalyze/data/processed/docking_pred/2023-May-17-1006_maxeplen10_maxtrainstep1000_seadep16_gamma099_lrac9e-4_lrcr1e-3_sub6/da55d276f49f8aea3f2b333b6115ea57fe53d1b0_ligand_6.pdbqt
 15 16 0 0 0
SMALL
GASTEIGER

@<TRIPOS>ATOM
      1  C          5.4830    2.7330    0.0660 C.3     1  UNL1        0.1270
      2  C          6.2020    3.6770    0.9080 C.2     1  UNL1        0.3030
      3  O          6.2970    3.6150    2.1350 O.2     1  UNL1       -0.2520
      4  O          6.8420    4.7510    0.2710 O.3     1  UNL1       -0.4810
      5  H          6.2900    5.2640   -0.4000 H       1  UNL1        0.2960
      6  C          5.3820    1.3740    0.6400 C.3     1  UNL1        0.0470
      7  C          6.2310    0.3300    0.0620 C.2     1  UNL1       -0.0430
      8  C          6.5060    0.2890   -1.2970 C.2     1  UNL1        0.0080
      9  C          6.7500   -0.6650    0.8470 C.2     1  UNL1        0.0540
     10  C          7.2740   -0.7120   -1.8470 C.2     1  UNL1        0.0510
     11  C          7.5240   -1.6800    0.3160 C.2     1  UNL1        0.1660
     12  C          7.7890   -1.7070   -1.0320 C.2     1  UNL1        0.1650
     13  O          8.1420   -2.7680    0.9070 O.2     1  UNL1       -0.4540
     14  O          8.5820   -2.8320   -1.2640 O.2     1  UNL1       -0.4540
     15  C          8.5510   -3.6710   -0.1320 C.3     1  UNL1        0.4680
@<TRIPOS>BOND
     1    10     8    1
     2    10    12    2
     3     8     7    2
     4    14    12    1
     5    14    15    1
     6    12    11    1
     7     5     4    1
     8    15    13    1
     9     7     6    1
    10     7     9    1
    11     1     6    1
    12     1     2    1
    13     4     2    1
    14    11     9    2
    15    11    13    1
    16     2     3    2
