@<TRIPOS>MOLECULE
/home/cewinharhar/GITHUB/reincatalyze/data/processed/docking_pred/2023-May-17-1006_maxeplen10_maxtrainstep1000_seadep16_gamma099_lrac9e-4_lrcr1e-3_sub6/da55d276f49f8aea3f2b333b6115ea57fe53d1b0_ligand_6.pdbqt
 15 16 0 0 0
SMALL
GASTEIGER

@<TRIPOS>ATOM
      1  C          4.7070    1.8880    0.6800 C.3     1  UNL1        0.1270
      2  C          4.3990    1.1740    1.9090 C.2     1  UNL1        0.3030
      3  O          5.1220    0.3370    2.4530 O.2     1  UNL1       -0.2520
      4  O          3.1730    1.4600    2.5310 O.3     1  UNL1       -0.4810
      5  H          2.3770    0.9330    2.2090 H       1  UNL1        0.2960
      6  C          6.1350    2.2420    0.5340 C.3     1  UNL1        0.0470
      7  C          6.9820    1.3330   -0.2420 C.2     1  UNL1       -0.0430
      8  C          8.3450    1.5500   -0.3770 C.2     1  UNL1        0.0080
      9  C          6.4410    0.2560   -0.8930 C.2     1  UNL1        0.0540
     10  C          9.1360    0.7160   -1.1360 C.2     1  UNL1        0.0510
     11  C          7.2150   -0.5940   -1.6590 C.2     1  UNL1        0.1660
     12  C          8.5640   -0.3670   -1.7840 C.2     1  UNL1        0.1650
     13  O          6.8910   -1.7230   -2.3920 O.2     1  UNL1       -0.4540
     14  O          9.0680   -1.3760   -2.6060 O.2     1  UNL1       -0.4540
     15  C          8.0020   -2.0400   -3.2440 C.3     1  UNL1        0.4680
@<TRIPOS>BOND
     1    15    14    1
     2    15    13    1
     3    14    12    1
     4    13    11    1
     5    12    11    2
     6    12    10    1
     7    11     9    1
     8    10     8    2
     9     9     7    2
    10     8     7    1
    11     7     6    1
    12     6     1    1
    13     1     2    1
    14     2     3    2
    15     2     4    1
    16     5     4    1
