@<TRIPOS>MOLECULE
/home/cewinharhar/GITHUB/reincatalyze/data/processed/docking_pred/2023-May-17-1006_maxeplen10_maxtrainstep1000_seadep16_gamma099_lrac9e-4_lrcr1e-3_sub6/da55d276f49f8aea3f2b333b6115ea57fe53d1b0_ligand_6.pdbqt
 15 16 0 0 0
SMALL
GASTEIGER

@<TRIPOS>ATOM
      1  C          6.4300    1.3090    0.7160 C.3     1  UNL1        0.1270
      2  C          5.1840    1.3160    1.4660 C.2     1  UNL1        0.3030
      3  O          4.2670    2.1280    1.3260 O.2     1  UNL1       -0.2520
      4  O          5.0070    0.3120    2.4310 O.3     1  UNL1       -0.4810
      5  H          4.0540    0.1120    2.6960 H       1  UNL1        0.2960
      6  C          6.2770    0.9100   -0.6990 C.3     1  UNL1        0.0470
      7  C          7.0040   -0.2800   -1.1490 C.2     1  UNL1       -0.0430
      8  C          7.2640   -0.5040   -2.4920 C.2     1  UNL1        0.0080
      9  C          7.4160   -1.2300   -0.2530 C.2     1  UNL1        0.0540
     10  C          7.9150   -1.6400   -2.9210 C.2     1  UNL1        0.0510
     11  C          8.0720   -2.3760   -0.6590 C.2     1  UNL1        0.1660
     12  C          8.3240   -2.5850   -1.9940 C.2     1  UNL1        0.1650
     13  O          8.5710   -3.4510    0.0550 O.2     1  UNL1       -0.4540
     14  O          8.9880   -3.8090   -2.0910 O.2     1  UNL1       -0.4540
     15  C          8.8720   -4.5060   -0.8720 C.3     1  UNL1        0.4680
@<TRIPOS>BOND
     1    10     8    1
     2    10    12    2
     3     8     7    2
     4    14    12    1
     5    14    15    1
     6    12    11    1
     7     7     6    1
     8     7     9    1
     9    15    13    1
    10     6     1    1
    11    11     9    2
    12    11    13    1
    13     1     2    1
    14     3     2    2
    15     2     4    1
    16     4     5    1
