@<TRIPOS>MOLECULE
/home/cewinharhar/GITHUB/reincatalyze/data/processed/docking_pred/2023-May-17-1006_maxeplen10_maxtrainstep1000_seadep16_gamma099_lrac9e-4_lrcr1e-3_sub6/da55d276f49f8aea3f2b333b6115ea57fe53d1b0_ligand_6.pdbqt
 15 16 0 0 0
SMALL
GASTEIGER

@<TRIPOS>ATOM
      1  C          8.3080   -0.3180   -2.8500 C.3     1  UNL1        0.1270
      2  C          8.4670   -1.7470   -3.0670 C.2     1  UNL1        0.3030
      3  O          9.5330   -2.3640   -3.0290 O.2     1  UNL1       -0.2520
      4  O          7.3090   -2.4890   -3.3450 O.3     1  UNL1       -0.4810
      5  H          7.2630   -2.9210   -4.2550 H       1  UNL1        0.2960
      6  C          8.7620    0.1410   -1.5200 C.3     1  UNL1        0.0470
      7  C          7.7920    0.1010   -0.4230 C.2     1  UNL1       -0.0430
      8  C          7.7440   -0.9630    0.4640 C.2     1  UNL1        0.0080
      9  C          6.8730    1.1040   -0.2640 C.2     1  UNL1        0.0540
     10  C          6.8100   -1.0200    1.4740 C.2     1  UNL1        0.0510
     11  C          5.9270    1.0700    0.7430 C.2     1  UNL1        0.1660
     12  C          5.8920    0.0080    1.6150 C.2     1  UNL1        0.1650
     13  O          4.9190    1.9540    1.0880 O.2     1  UNL1       -0.4540
     14  O          4.8450    0.2520    2.5050 O.2     1  UNL1       -0.4540
     15  C          4.0360    1.2920    2.0060 C.3     1  UNL1        0.4680
@<TRIPOS>BOND
     1     5     4    1
     2     4     2    1
     3     2     3    2
     4     2     1    1
     5     1     6    1
     6     6     7    1
     7     7     9    2
     8     7     8    1
     9     9    11    1
    10     8    10    2
    11    11    13    1
    12    11    12    2
    13    13    15    1
    14    10    12    1
    15    12    14    1
    16    15    14    1
