MODEL 1
REMARK VINA RESULT:      -7.6      0.000      0.000
REMARK SMILES O=C(O)CCc1ccc2c(c1)OCO2
REMARK SMILES IDX 4 1 2 2 1 3 3 4 5 6 6 7 7 8 11 9 8 10 10 11 9 12 12 13 14 14
REMARK SMILES IDX 13 15
REMARK H PARENT 3 5
REMARK Flexibility Score: inf
ROOT
ATOM      1  C   UNL     1       5.425   2.868   0.121  1.00  0.00     0.127 C 
ENDROOT
BRANCH   1   2
ATOM      2  C   UNL     1       6.255   3.846   0.806  1.00  0.00     0.303 C 
ATOM      3  O   UNL     1       6.901   4.745   0.264  1.00  0.00    -0.252 OA
BRANCH   2   4
ATOM      4  O   UNL     1       6.328   3.761   2.206  1.00  0.00    -0.481 OA
ATOM      5  H   UNL     1       5.569   4.183   2.718  1.00  0.00     0.296 HD
ENDBRANCH   2   4
ENDBRANCH   1   2
BRANCH   1   6
ATOM      6  C   UNL     1       5.355   1.558   0.801  1.00  0.00     0.047 C 
BRANCH   6   7
ATOM      7  C   UNL     1       6.134   0.456   0.231  1.00  0.00    -0.043 A 
ATOM      8  C   UNL     1       6.583  -0.596   1.014  1.00  0.00     0.008 A 
ATOM      9  C   UNL     1       6.477   0.454  -1.095  1.00  0.00     0.054 A 
ATOM     10  C   UNL     1       7.346  -1.613   0.487  1.00  0.00     0.051 A 
ATOM     11  C   UNL     1       7.241  -0.557  -1.646  1.00  0.00     0.166 A 
ATOM     12  C   UNL     1       7.678  -1.593  -0.858  1.00  0.00     0.165 A 
ATOM     13  O   UNL     1       7.700  -0.763  -2.936  1.00  0.00    -0.454 OA
ATOM     14  O   UNL     1       8.415  -2.444  -1.683  1.00  0.00    -0.454 OA
ATOM     15  C   UNL     1       8.702  -1.790  -2.897  1.00  0.00     0.468 C 
ENDBRANCH   6   7
ENDBRANCH   1   6
TORSDOF 4
ENDMDL
MODEL 2
REMARK VINA RESULT:      -7.6      2.126      2.511
REMARK SMILES O=C(O)CCc1ccc2c(c1)OCO2
REMARK SMILES IDX 4 1 2 2 1 3 3 4 5 6 6 7 7 8 11 9 8 10 10 11 9 12 12 13 14 14
REMARK SMILES IDX 13 15
REMARK H PARENT 3 5
REMARK Flexibility Score: inf
ROOT
ATOM      1  C   UNL     1       4.707   1.888   0.680  1.00  0.00     0.127 C 
ENDROOT
BRANCH   1   2
ATOM      2  C   UNL     1       4.399   1.174   1.909  1.00  0.00     0.303 C 
ATOM      3  O   UNL     1       5.122   0.337   2.453  1.00  0.00    -0.252 OA
BRANCH   2   4
ATOM      4  O   UNL     1       3.173   1.460   2.531  1.00  0.00    -0.481 OA
ATOM      5  H   UNL     1       2.377   0.933   2.209  1.00  0.00     0.296 HD
ENDBRANCH   2   4
ENDBRANCH   1   2
BRANCH   1   6
ATOM      6  C   UNL     1       6.135   2.242   0.534  1.00  0.00     0.047 C 
BRANCH   6   7
ATOM      7  C   UNL     1       6.982   1.333  -0.242  1.00  0.00    -0.043 A 
ATOM      8  C   UNL     1       8.345   1.550  -0.377  1.00  0.00     0.008 A 
ATOM      9  C   UNL     1       6.441   0.256  -0.893  1.00  0.00     0.054 A 
ATOM     10  C   UNL     1       9.136   0.716  -1.136  1.00  0.00     0.051 A 
ATOM     11  C   UNL     1       7.215  -0.594  -1.659  1.00  0.00     0.166 A 
ATOM     12  C   UNL     1       8.564  -0.367  -1.784  1.00  0.00     0.165 A 
ATOM     13  O   UNL     1       6.891  -1.723  -2.392  1.00  0.00    -0.454 OA
ATOM     14  O   UNL     1       9.068  -1.376  -2.606  1.00  0.00    -0.454 OA
ATOM     15  C   UNL     1       8.002  -2.040  -3.244  1.00  0.00     0.468 C 
ENDBRANCH   6   7
ENDBRANCH   1   6
TORSDOF 4
ENDMDL
MODEL 3
REMARK VINA RESULT:      -7.5      0.977      2.131
REMARK SMILES O=C(O)CCc1ccc2c(c1)OCO2
REMARK SMILES IDX 4 1 2 2 1 3 3 4 5 6 6 7 7 8 11 9 8 10 10 11 9 12 12 13 14 14
REMARK SMILES IDX 13 15
REMARK H PARENT 3 5
REMARK Flexibility Score: inf
ROOT
ATOM      1  C   UNL     1       5.483   2.733   0.066  1.00  0.00     0.127 C 
ENDROOT
BRANCH   1   2
ATOM      2  C   UNL     1       6.202   3.677   0.908  1.00  0.00     0.303 C 
ATOM      3  O   UNL     1       6.297   3.615   2.135  1.00  0.00    -0.252 OA
BRANCH   2   4
ATOM      4  O   UNL     1       6.842   4.751   0.271  1.00  0.00    -0.481 OA
ATOM      5  H   UNL     1       6.290   5.264  -0.400  1.00  0.00     0.296 HD
ENDBRANCH   2   4
ENDBRANCH   1   2
BRANCH   1   6
ATOM      6  C   UNL     1       5.382   1.374   0.640  1.00  0.00     0.047 C 
BRANCH   6   7
ATOM      7  C   UNL     1       6.231   0.330   0.062  1.00  0.00    -0.043 A 
ATOM      8  C   UNL     1       6.506   0.289  -1.297  1.00  0.00     0.008 A 
ATOM      9  C   UNL     1       6.750  -0.665   0.847  1.00  0.00     0.054 A 
ATOM     10  C   UNL     1       7.274  -0.712  -1.847  1.00  0.00     0.051 A 
ATOM     11  C   UNL     1       7.524  -1.680   0.316  1.00  0.00     0.166 A 
ATOM     12  C   UNL     1       7.789  -1.707  -1.032  1.00  0.00     0.165 A 
ATOM     13  O   UNL     1       8.142  -2.768   0.907  1.00  0.00    -0.454 OA
ATOM     14  O   UNL     1       8.582  -2.832  -1.264  1.00  0.00    -0.454 OA
ATOM     15  C   UNL     1       8.551  -3.671  -0.132  1.00  0.00     0.468 C 
ENDBRANCH   6   7
ENDBRANCH   1   6
TORSDOF 4
ENDMDL
MODEL 4
REMARK VINA RESULT:      -7.4      1.961      2.862
REMARK SMILES O=C(O)CCc1ccc2c(c1)OCO2
REMARK SMILES IDX 4 1 2 2 1 3 3 4 5 6 6 7 7 8 11 9 8 10 10 11 9 12 12 13 14 14
REMARK SMILES IDX 13 15
REMARK H PARENT 3 5
REMARK Flexibility Score: inf
ROOT
ATOM      1  C   UNL     1       6.430   1.309   0.716  1.00  0.00     0.127 C 
ENDROOT
BRANCH   1   2
ATOM      2  C   UNL     1       5.184   1.316   1.466  1.00  0.00     0.303 C 
ATOM      3  O   UNL     1       4.267   2.128   1.326  1.00  0.00    -0.252 OA
BRANCH   2   4
ATOM      4  O   UNL     1       5.007   0.312   2.431  1.00  0.00    -0.481 OA
ATOM      5  H   UNL     1       4.054   0.112   2.696  1.00  0.00     0.296 HD
ENDBRANCH   2   4
ENDBRANCH   1   2
BRANCH   1   6
ATOM      6  C   UNL     1       6.277   0.910  -0.699  1.00  0.00     0.047 C 
BRANCH   6   7
ATOM      7  C   UNL     1       7.004  -0.280  -1.149  1.00  0.00    -0.043 A 
ATOM      8  C   UNL     1       7.264  -0.504  -2.492  1.00  0.00     0.008 A 
ATOM      9  C   UNL     1       7.416  -1.230  -0.253  1.00  0.00     0.054 A 
ATOM     10  C   UNL     1       7.915  -1.640  -2.921  1.00  0.00     0.051 A 
ATOM     11  C   UNL     1       8.072  -2.376  -0.659  1.00  0.00     0.166 A 
ATOM     12  C   UNL     1       8.324  -2.585  -1.994  1.00  0.00     0.165 A 
ATOM     13  O   UNL     1       8.571  -3.451   0.055  1.00  0.00    -0.454 OA
ATOM     14  O   UNL     1       8.988  -3.809  -2.091  1.00  0.00    -0.454 OA
ATOM     15  C   UNL     1       8.872  -4.506  -0.872  1.00  0.00     0.468 C 
ENDBRANCH   6   7
ENDBRANCH   1   6
TORSDOF 4
ENDMDL
MODEL 5
REMARK VINA RESULT:      -7.4      1.792      5.283
REMARK SMILES O=C(O)CCc1ccc2c(c1)OCO2
REMARK SMILES IDX 4 1 2 2 1 3 3 4 5 6 6 7 7 8 11 9 8 10 10 11 9 12 12 13 14 14
REMARK SMILES IDX 13 15
REMARK H PARENT 3 5
REMARK Flexibility Score: inf
ROOT
ATOM      1  C   UNL     1       8.308  -0.318  -2.850  1.00  0.00     0.127 C 
ENDROOT
BRANCH   1   2
ATOM      2  C   UNL     1       8.467  -1.747  -3.067  1.00  0.00     0.303 C 
ATOM      3  O   UNL     1       9.533  -2.364  -3.029  1.00  0.00    -0.252 OA
BRANCH   2   4
ATOM      4  O   UNL     1       7.309  -2.489  -3.345  1.00  0.00    -0.481 OA
ATOM      5  H   UNL     1       7.263  -2.921  -4.255  1.00  0.00     0.296 HD
ENDBRANCH   2   4
ENDBRANCH   1   2
BRANCH   1   6
ATOM      6  C   UNL     1       8.762   0.141  -1.520  1.00  0.00     0.047 C 
BRANCH   6   7
ATOM      7  C   UNL     1       7.792   0.101  -0.423  1.00  0.00    -0.043 A 
ATOM      8  C   UNL     1       7.744  -0.963   0.464  1.00  0.00     0.008 A 
ATOM      9  C   UNL     1       6.873   1.104  -0.264  1.00  0.00     0.054 A 
ATOM     10  C   UNL     1       6.810  -1.020   1.474  1.00  0.00     0.051 A 
ATOM     11  C   UNL     1       5.927   1.070   0.743  1.00  0.00     0.166 A 
ATOM     12  C   UNL     1       5.892   0.008   1.615  1.00  0.00     0.165 A 
ATOM     13  O   UNL     1       4.919   1.954   1.088  1.00  0.00    -0.454 OA
ATOM     14  O   UNL     1       4.845   0.252   2.505  1.00  0.00    -0.454 OA
ATOM     15  C   UNL     1       4.036   1.292   2.006  1.00  0.00     0.468 C 
ENDBRANCH   6   7
ENDBRANCH   1   6
TORSDOF 4
ENDMDL
