MODEL 1
REMARK VINA RESULT:      -7.6      0.000      0.000
REMARK SMILES O=C(O)CCc1ccc2c(c1)OCO2
REMARK SMILES IDX 4 1 2 2 1 3 3 4 5 6 6 7 7 8 11 9 8 10 10 11 9 12 12 13 14 14
REMARK SMILES IDX 13 15
REMARK H PARENT 3 5
REMARK Flexibility Score: inf
ROOT
ATOM      1  C   UNL     1       4.733   1.899   0.714  1.00  0.00     0.127 C 
ENDROOT
BRANCH   1   2
ATOM      2  C   UNL     1       4.386   1.155   1.915  1.00  0.00     0.303 C 
ATOM      3  O   UNL     1       5.074   0.277   2.438  1.00  0.00    -0.252 OA
BRANCH   2   4
ATOM      4  O   UNL     1       3.163   1.462   2.532  1.00  0.00    -0.481 OA
ATOM      5  H   UNL     1       2.345   1.017   2.145  1.00  0.00     0.296 HD
ENDBRANCH   2   4
ENDBRANCH   1   2
BRANCH   1   6
ATOM      6  C   UNL     1       6.171   2.224   0.603  1.00  0.00     0.047 C 
BRANCH   6   7
ATOM      7  C   UNL     1       7.010   1.323  -0.189  1.00  0.00    -0.043 A 
ATOM      8  C   UNL     1       8.367   1.553  -0.354  1.00  0.00     0.008 A 
ATOM      9  C   UNL     1       6.466   0.240  -0.827  1.00  0.00     0.054 A 
ATOM     10  C   UNL     1       9.150   0.726  -1.128  1.00  0.00     0.051 A 
ATOM     11  C   UNL     1       7.232  -0.604  -1.609  1.00  0.00     0.166 A 
ATOM     12  C   UNL     1       8.576  -0.364  -1.762  1.00  0.00     0.165 A 
ATOM     13  O   UNL     1       6.904  -1.737  -2.333  1.00  0.00    -0.454 OA
ATOM     14  O   UNL     1       9.073  -1.369  -2.594  1.00  0.00    -0.454 OA
ATOM     15  C   UNL     1       7.999  -2.044  -3.208  1.00  0.00     0.468 C 
ENDBRANCH   6   7
ENDBRANCH   1   6
TORSDOF 4
ENDMDL
MODEL 2
REMARK VINA RESULT:      -7.5      1.798      2.445
REMARK SMILES O=C(O)CCc1ccc2c(c1)OCO2
REMARK SMILES IDX 4 1 2 2 1 3 3 4 5 6 6 7 7 8 11 9 8 10 10 11 9 12 12 13 14 14
REMARK SMILES IDX 13 15
REMARK H PARENT 3 5
REMARK Flexibility Score: inf
ROOT
ATOM      1  C   UNL     1       6.419   1.323   0.716  1.00  0.00     0.127 C 
ENDROOT
BRANCH   1   2
ATOM      2  C   UNL     1       5.188   1.305   1.491  1.00  0.00     0.303 C 
ATOM      3  O   UNL     1       4.252   2.098   1.369  1.00  0.00    -0.252 OA
BRANCH   2   4
ATOM      4  O   UNL     1       5.052   0.301   2.462  1.00  0.00    -0.481 OA
ATOM      5  H   UNL     1       4.110   0.081   2.747  1.00  0.00     0.296 HD
ENDBRANCH   2   4
ENDBRANCH   1   2
BRANCH   1   6
ATOM      6  C   UNL     1       6.248   0.901  -0.691  1.00  0.00     0.047 C 
BRANCH   6   7
ATOM      7  C   UNL     1       6.992  -0.278  -1.139  1.00  0.00    -0.043 A 
ATOM      8  C   UNL     1       7.283  -0.485  -2.479  1.00  0.00     0.008 A 
ATOM      9  C   UNL     1       7.391  -1.236  -0.245  1.00  0.00     0.054 A 
ATOM     10  C   UNL     1       7.950  -1.611  -2.906  1.00  0.00     0.051 A 
ATOM     11  C   UNL     1       8.063  -2.374  -0.651  1.00  0.00     0.166 A 
ATOM     12  C   UNL     1       8.345  -2.565  -1.982  1.00  0.00     0.165 A 
ATOM     13  O   UNL     1       8.553  -3.455   0.061  1.00  0.00    -0.454 OA
ATOM     14  O   UNL     1       9.019  -3.784  -2.080  1.00  0.00    -0.454 OA
ATOM     15  C   UNL     1       8.882  -4.495  -0.872  1.00  0.00     0.468 C 
ENDBRANCH   6   7
ENDBRANCH   1   6
TORSDOF 4
ENDMDL
MODEL 3
REMARK VINA RESULT:      -7.5      1.437      5.376
REMARK SMILES O=C(O)CCc1ccc2c(c1)OCO2
REMARK SMILES IDX 4 1 2 2 1 3 3 4 5 6 6 7 7 8 11 9 8 10 10 11 9 12 12 13 14 14
REMARK SMILES IDX 13 15
REMARK H PARENT 3 5
REMARK Flexibility Score: inf
ROOT
ATOM      1  C   UNL     1       8.309  -0.313  -2.838  1.00  0.00     0.127 C 
ENDROOT
BRANCH   1   2
ATOM      2  C   UNL     1       8.470  -1.741  -3.063  1.00  0.00     0.303 C 
ATOM      3  O   UNL     1       9.537  -2.357  -3.025  1.00  0.00    -0.252 OA
BRANCH   2   4
ATOM      4  O   UNL     1       7.313  -2.483  -3.347  1.00  0.00    -0.481 OA
ATOM      5  H   UNL     1       7.021  -3.140  -2.640  1.00  0.00     0.296 HD
ENDBRANCH   2   4
ENDBRANCH   1   2
BRANCH   1   6
ATOM      6  C   UNL     1       8.766   0.141  -1.507  1.00  0.00     0.047 C 
BRANCH   6   7
ATOM      7  C   UNL     1       7.796   0.105  -0.410  1.00  0.00    -0.043 A 
ATOM      8  C   UNL     1       7.756  -0.951   0.488  1.00  0.00     0.008 A 
ATOM      9  C   UNL     1       6.870   1.103  -0.261  1.00  0.00     0.054 A 
ATOM     10  C   UNL     1       6.822  -1.003   1.498  1.00  0.00     0.051 A 
ATOM     11  C   UNL     1       5.924   1.072   0.745  1.00  0.00     0.166 A 
ATOM     12  C   UNL     1       5.896   0.019   1.628  1.00  0.00     0.165 A 
ATOM     13  O   UNL     1       4.910   1.952   1.081  1.00  0.00    -0.454 OA
ATOM     14  O   UNL     1       4.847   0.265   2.516  1.00  0.00    -0.454 OA
ATOM     15  C   UNL     1       4.031   1.293   2.006  1.00  0.00     0.468 C 
ENDBRANCH   6   7
ENDBRANCH   1   6
TORSDOF 4
ENDMDL
MODEL 4
REMARK VINA RESULT:      -7.5      2.148      2.512
REMARK SMILES O=C(O)CCc1ccc2c(c1)OCO2
REMARK SMILES IDX 4 1 2 2 1 3 3 4 5 6 6 7 7 8 11 9 8 10 10 11 9 12 12 13 14 14
REMARK SMILES IDX 13 15
REMARK H PARENT 3 5
REMARK Flexibility Score: inf
ROOT
ATOM      1  C   UNL     1       5.361   2.899   0.219  1.00  0.00     0.127 C 
ENDROOT
BRANCH   1   2
ATOM      2  C   UNL     1       6.266   3.841   0.859  1.00  0.00     0.303 C 
ATOM      3  O   UNL     1       7.199   4.427   0.307  1.00  0.00    -0.252 OA
BRANCH   2   4
ATOM      4  O   UNL     1       6.061   4.106   2.222  1.00  0.00    -0.481 OA
ATOM      5  H   UNL     1       5.992   5.078   2.481  1.00  0.00     0.296 HD
ENDBRANCH   2   4
ENDBRANCH   1   2
BRANCH   1   6
ATOM      6  C   UNL     1       5.290   1.584   0.891  1.00  0.00     0.047 C 
BRANCH   6   7
ATOM      7  C   UNL     1       6.072   0.487   0.317  1.00  0.00    -0.043 A 
ATOM      8  C   UNL     1       6.532  -0.562   1.099  1.00  0.00     0.008 A 
ATOM      9  C   UNL     1       6.408   0.485  -1.011  1.00  0.00     0.054 A 
ATOM     10  C   UNL     1       7.298  -1.576   0.568  1.00  0.00     0.051 A 
ATOM     11  C   UNL     1       7.175  -0.521  -1.566  1.00  0.00     0.166 A 
ATOM     12  C   UNL     1       7.623  -1.555  -0.779  1.00  0.00     0.165 A 
ATOM     13  O   UNL     1       7.627  -0.726  -2.858  1.00  0.00    -0.454 OA
ATOM     14  O   UNL     1       8.360  -2.402  -1.608  1.00  0.00    -0.454 OA
ATOM     15  C   UNL     1       8.636  -1.747  -2.824  1.00  0.00     0.468 C 
ENDBRANCH   6   7
ENDBRANCH   1   6
TORSDOF 4
ENDMDL
