@<TRIPOS>MOLECULE
/home/cewinharhar/GITHUB/reincatalyze/data/processed/docking_pred/2023-May-17-1006_maxeplen10_maxtrainstep1000_seadep16_gamma099_lrac9e-4_lrcr1e-3_sub6/db02e8dbba2ca978bde564db4603195d7659b46f_ligand_6.pdbqt
 15 16 0 0 0
SMALL
GASTEIGER

@<TRIPOS>ATOM
      1  C          6.4190    1.3230    0.7160 C.3     1  UNL1        0.1270
      2  C          5.1880    1.3050    1.4910 C.2     1  UNL1        0.3030
      3  O          4.2520    2.0980    1.3690 O.2     1  UNL1       -0.2520
      4  O          5.0520    0.3010    2.4620 O.3     1  UNL1       -0.4810
      5  H          4.1100    0.0810    2.7470 H       1  UNL1        0.2960
      6  C          6.2480    0.9010   -0.6910 C.3     1  UNL1        0.0470
      7  C          6.9920   -0.2780   -1.1390 C.2     1  UNL1       -0.0430
      8  C          7.2830   -0.4850   -2.4790 C.2     1  UNL1        0.0080
      9  C          7.3910   -1.2360   -0.2450 C.2     1  UNL1        0.0540
     10  C          7.9500   -1.6110   -2.9060 C.2     1  UNL1        0.0510
     11  C          8.0630   -2.3740   -0.6510 C.2     1  UNL1        0.1660
     12  C          8.3450   -2.5650   -1.9820 C.2     1  UNL1        0.1650
     13  O          8.5530   -3.4550    0.0610 O.2     1  UNL1       -0.4540
     14  O          9.0190   -3.7840   -2.0800 O.2     1  UNL1       -0.4540
     15  C          8.8820   -4.4950   -0.8720 C.3     1  UNL1        0.4680
@<TRIPOS>BOND
     1    10     8    1
     2    10    12    2
     3     8     7    2
     4    14    12    1
     5    14    15    1
     6    12    11    1
     7     7     6    1
     8     7     9    1
     9    15    13    1
    10     6     1    1
    11    11     9    2
    12    11    13    1
    13     1     2    1
    14     3     2    2
    15     2     4    1
    16     4     5    1
