@<TRIPOS>MOLECULE
/home/cewinharhar/GITHUB/reincatalyze/data/processed/docking_pred/2023-May-17-1006_maxeplen10_maxtrainstep1000_seadep16_gamma099_lrac9e-4_lrcr1e-3_sub6/db02e8dbba2ca978bde564db4603195d7659b46f_ligand_6.pdbqt
 15 16 0 0 0
SMALL
GASTEIGER

@<TRIPOS>ATOM
      1  C          5.3610    2.8990    0.2190 C.3     1  UNL1        0.1270
      2  C          6.2660    3.8410    0.8590 C.2     1  UNL1        0.3030
      3  O          7.1990    4.4270    0.3070 O.2     1  UNL1       -0.2520
      4  O          6.0610    4.1060    2.2220 O.3     1  UNL1       -0.4810
      5  H          5.9920    5.0780    2.4810 H       1  UNL1        0.2960
      6  C          5.2900    1.5840    0.8910 C.3     1  UNL1        0.0470
      7  C          6.0720    0.4870    0.3170 C.2     1  UNL1       -0.0430
      8  C          6.5320   -0.5620    1.0990 C.2     1  UNL1        0.0080
      9  C          6.4080    0.4850   -1.0110 C.2     1  UNL1        0.0540
     10  C          7.2980   -1.5760    0.5680 C.2     1  UNL1        0.0510
     11  C          7.1750   -0.5210   -1.5660 C.2     1  UNL1        0.1660
     12  C          7.6230   -1.5550   -0.7790 C.2     1  UNL1        0.1650
     13  O          7.6270   -0.7260   -2.8580 O.2     1  UNL1       -0.4540
     14  O          8.3600   -2.4020   -1.6080 O.2     1  UNL1       -0.4540
     15  C          8.6360   -1.7470   -2.8240 C.3     1  UNL1        0.4680
@<TRIPOS>BOND
     1    13    15    1
     2    13    11    1
     3    15    14    1
     4    14    12    1
     5    11     9    1
     6    11    12    2
     7     9     7    2
     8    12    10    1
     9     1     2    1
    10     1     6    1
    11     3     2    2
    12     7     6    1
    13     7     8    1
    14    10     8    2
    15     2     4    1
    16     4     5    1
