@<TRIPOS>MOLECULE
/home/cewinharhar/GITHUB/reincatalyze/data/processed/docking_pred/2023-May-17-1006_maxeplen10_maxtrainstep1000_seadep16_gamma099_lrac9e-4_lrcr1e-3_sub6/db02e8dbba2ca978bde564db4603195d7659b46f_ligand_6.pdbqt
 15 16 0 0 0
SMALL
GASTEIGER

@<TRIPOS>ATOM
      1  C          8.3090   -0.3130   -2.8380 C.3     1  UNL1        0.1270
      2  C          8.4700   -1.7410   -3.0630 C.2     1  UNL1        0.3030
      3  O          9.5370   -2.3570   -3.0250 O.2     1  UNL1       -0.2520
      4  O          7.3130   -2.4830   -3.3470 O.3     1  UNL1       -0.4810
      5  H          7.0210   -3.1400   -2.6400 H       1  UNL1        0.2960
      6  C          8.7660    0.1410   -1.5070 C.3     1  UNL1        0.0470
      7  C          7.7960    0.1050   -0.4100 C.2     1  UNL1       -0.0430
      8  C          7.7560   -0.9510    0.4880 C.2     1  UNL1        0.0080
      9  C          6.8700    1.1030   -0.2610 C.2     1  UNL1        0.0540
     10  C          6.8220   -1.0030    1.4980 C.2     1  UNL1        0.0510
     11  C          5.9240    1.0720    0.7450 C.2     1  UNL1        0.1660
     12  C          5.8960    0.0190    1.6280 C.2     1  UNL1        0.1650
     13  O          4.9100    1.9520    1.0810 O.2     1  UNL1       -0.4540
     14  O          4.8470    0.2650    2.5160 O.2     1  UNL1       -0.4540
     15  C          4.0310    1.2930    2.0060 C.3     1  UNL1        0.4680
@<TRIPOS>BOND
     1     4     2    1
     2     4     5    1
     3     2     3    2
     4     2     1    1
     5     1     6    1
     6     6     7    1
     7     7     9    2
     8     7     8    1
     9     9    11    1
    10     8    10    2
    11    11    13    1
    12    11    12    2
    13    13    15    1
    14    10    12    1
    15    12    14    1
    16    15    14    1
