@<TRIPOS>MOLECULE
/home/cewinharhar/GITHUB/reincatalyze/data/processed/docking_pred/2023-May-17-1006_maxeplen10_maxtrainstep1000_seadep16_gamma099_lrac9e-4_lrcr1e-3_sub6/db02e8dbba2ca978bde564db4603195d7659b46f_ligand_6.pdbqt
 15 16 0 0 0
SMALL
GASTEIGER

@<TRIPOS>ATOM
      1  C          4.7330    1.8990    0.7140 C.3     1  UNL1        0.1270
      2  C          4.3860    1.1550    1.9150 C.2     1  UNL1        0.3030
      3  O          5.0740    0.2770    2.4380 O.2     1  UNL1       -0.2520
      4  O          3.1630    1.4620    2.5320 O.3     1  UNL1       -0.4810
      5  H          2.3450    1.0170    2.1450 H       1  UNL1        0.2960
      6  C          6.1710    2.2240    0.6030 C.3     1  UNL1        0.0470
      7  C          7.0100    1.3230   -0.1890 C.2     1  UNL1       -0.0430
      8  C          8.3670    1.5530   -0.3540 C.2     1  UNL1        0.0080
      9  C          6.4660    0.2400   -0.8270 C.2     1  UNL1        0.0540
     10  C          9.1500    0.7260   -1.1280 C.2     1  UNL1        0.0510
     11  C          7.2320   -0.6040   -1.6090 C.2     1  UNL1        0.1660
     12  C          8.5760   -0.3640   -1.7620 C.2     1  UNL1        0.1650
     13  O          6.9040   -1.7370   -2.3330 O.2     1  UNL1       -0.4540
     14  O          9.0730   -1.3690   -2.5940 O.2     1  UNL1       -0.4540
     15  C          7.9990   -2.0440   -3.2080 C.3     1  UNL1        0.4680
@<TRIPOS>BOND
     1    15    14    1
     2    15    13    1
     3    14    12    1
     4    13    11    1
     5    12    11    2
     6    12    10    1
     7    11     9    1
     8    10     8    2
     9     9     7    2
    10     8     7    1
    11     7     6    1
    12     6     1    1
    13     1     2    1
    14     2     3    2
    15     2     4    1
    16     5     4    1
