@<TRIPOS>MOLECULE
/home/cewinharhar/GITHUB/reincatalyze/data/processed/docking_pred/2023-May-17-1006_maxeplen10_maxtrainstep1000_seadep16_gamma099_lrac9e-4_lrcr1e-3_sub6/db57195a81496af8cffcd6b4d9524a1fe0637e4f_ligand_6.pdbqt
 15 16 0 0 0
SMALL
GASTEIGER

@<TRIPOS>ATOM
      1  C          6.1380    2.5070    1.2190 C.3     1  UNL1        0.1270
      2  C          6.3460    3.9460    1.1990 C.2     1  UNL1        0.3030
      3  O          6.7310    4.6020    0.2290 O.2     1  UNL1       -0.2520
      4  O          6.0870    4.6510    2.3850 O.3     1  UNL1       -0.4810
      5  H          5.9960    4.0970    3.2220 H       1  UNL1        0.2960
      6  C          5.7980    1.9310   -0.1000 C.3     1  UNL1        0.0470
      7  C          6.4900    0.7050   -0.5020 C.2     1  UNL1       -0.0430
      8  C          6.5090    0.2830   -1.8220 C.2     1  UNL1        0.0080
      9  C          7.1090   -0.0870    0.4290 C.2     1  UNL1        0.0540
     10  C          7.1280   -0.8890   -2.1960 C.2     1  UNL1        0.0510
     11  C          7.7370   -1.2670    0.0760 C.2     1  UNL1        0.1660
     12  C          7.7490   -1.6720   -1.2370 C.2     1  UNL1        0.1650
     13  O          8.4140   -2.2080    0.8320 O.2     1  UNL1       -0.4540
     14  O          8.4460   -2.8800   -1.2790 O.2     1  UNL1       -0.4540
     15  C          8.5940   -3.3840    0.0280 C.3     1  UNL1        0.4680
@<TRIPOS>BOND
     1    10     8    1
     2    10    12    2
     3     8     7    2
     4    14    12    1
     5    14    15    1
     6    12    11    1
     7     7     6    1
     8     7     9    1
     9     6     1    1
    10    15    13    1
    11    11     9    2
    12    11    13    1
    13     3     2    2
    14     2     1    1
    15     2     4    1
    16     4     5    1
