@<TRIPOS>MOLECULE
/home/cewinharhar/GITHUB/reincatalyze/data/processed/docking_pred/2023-May-17-1006_maxeplen10_maxtrainstep1000_seadep16_gamma099_lrac9e-4_lrcr1e-3_sub6/db57195a81496af8cffcd6b4d9524a1fe0637e4f_ligand_6.pdbqt
 15 16 0 0 0
SMALL
GASTEIGER

@<TRIPOS>ATOM
      1  C          6.4300    1.3040    0.7590 C.3     1  UNL1        0.1270
      2  C          5.1760    1.3150    1.4970 C.2     1  UNL1        0.3030
      3  O          4.2660    2.1330    1.3510 O.2     1  UNL1       -0.2520
      4  O          4.9840    0.3100    2.4570 O.3     1  UNL1       -0.4810
      5  H          5.7220   -0.3730    2.5410 H       1  UNL1        0.2960
      6  C          6.2860    0.9250   -0.6630 C.3     1  UNL1        0.0470
      7  C          7.0170   -0.2570   -1.1260 C.2     1  UNL1       -0.0430
      8  C          7.2770   -0.4670   -2.4710 C.2     1  UNL1        0.0080
      9  C          7.4330   -1.2150   -0.2390 C.2     1  UNL1        0.0540
     10  C          7.9320   -1.5960   -2.9120 C.2     1  UNL1        0.0510
     11  C          8.0930   -2.3550   -0.6580 C.2     1  UNL1        0.1660
     12  C          8.3440   -2.5490   -1.9950 C.2     1  UNL1        0.1650
     13  O          8.5960   -3.4350    0.0450 O.2     1  UNL1       -0.4540
     14  O          9.0120   -3.7700   -2.1060 O.2     1  UNL1       -0.4540
     15  C          8.9010   -4.4790   -0.8930 C.3     1  UNL1        0.4680
@<TRIPOS>BOND
     1    10     8    1
     2    10    12    2
     3     8     7    2
     4    14    12    1
     5    14    15    1
     6    12    11    1
     7     7     6    1
     8     7     9    1
     9    15    13    1
    10     6     1    1
    11    11     9    2
    12    11    13    1
    13     1     2    1
    14     3     2    2
    15     2     4    1
    16     4     5    1
