@<TRIPOS>MOLECULE
/home/cewinharhar/GITHUB/reincatalyze/data/processed/docking_pred/2023-May-17-1006_maxeplen10_maxtrainstep1000_seadep16_gamma099_lrac9e-4_lrcr1e-3_sub6/db57195a81496af8cffcd6b4d9524a1fe0637e4f_ligand_6.pdbqt
 15 16 0 0 0
SMALL
GASTEIGER

@<TRIPOS>ATOM
      1  C          4.6990    1.8550    0.6820 C.3     1  UNL1        0.1270
      2  C          4.3960    1.1550    1.9200 C.2     1  UNL1        0.3030
      3  O          5.1230    0.3270    2.4730 O.2     1  UNL1       -0.2520
      4  O          3.1710    1.4440    2.5410 O.3     1  UNL1       -0.4810
      5  H          3.2220    1.9440    3.4160 H       1  UNL1        0.2960
      6  C          6.1230    2.2250    0.5350 C.3     1  UNL1        0.0470
      7  C          6.9800    1.3230   -0.2390 C.2     1  UNL1       -0.0430
      8  C          8.3390    1.5600   -0.3810 C.2     1  UNL1        0.0080
      9  C          6.4530    0.2340   -0.8800 C.2     1  UNL1        0.0540
     10  C          9.1390    0.7340   -1.1380 C.2     1  UNL1        0.0510
     11  C          7.2370   -0.6090   -1.6440 C.2     1  UNL1        0.1660
     12  C          8.5820   -0.3630   -1.7760 C.2     1  UNL1        0.1650
     13  O          6.9270   -1.7480   -2.3670 O.2     1  UNL1       -0.4540
     14  O          9.0980   -1.3690   -2.5940 O.2     1  UNL1       -0.4540
     15  C          8.0390   -2.0540   -3.2220 C.3     1  UNL1        0.4680
@<TRIPOS>BOND
     1    15    14    1
     2    15    13    1
     3    14    12    1
     4    13    11    1
     5    12    11    2
     6    12    10    1
     7    11     9    1
     8    10     8    2
     9     9     7    2
    10     8     7    1
    11     7     6    1
    12     6     1    1
    13     1     2    1
    14     2     3    2
    15     2     4    1
    16     4     5    1
