@<TRIPOS>MOLECULE
/home/cewinharhar/GITHUB/reincatalyze/data/processed/docking_pred/2023-May-17-1006_maxeplen10_maxtrainstep1000_seadep16_gamma099_lrac9e-4_lrcr1e-3_sub6/db57195a81496af8cffcd6b4d9524a1fe0637e4f_ligand_6.pdbqt
 15 16 0 0 0
SMALL
GASTEIGER

@<TRIPOS>ATOM
      1  C          8.2830   -0.1920   -2.8370 C.3     1  UNL1        0.1270
      2  C          8.5110   -1.6150   -3.0320 C.2     1  UNL1        0.3030
      3  O          9.5990   -2.1860   -2.9430 O.2     1  UNL1       -0.2520
      4  O          7.3970   -2.4080   -3.3490 O.3     1  UNL1       -0.4810
      5  H          7.4080   -2.8500   -4.2560 H       1  UNL1        0.2960
      6  C          8.7200    0.3110   -1.5170 C.3     1  UNL1        0.0470
      7  C          7.7650    0.2270   -0.4100 C.2     1  UNL1       -0.0430
      8  C          7.7790   -0.8350    0.4810 C.2     1  UNL1        0.0080
      9  C          6.7980    1.1830   -0.2470 C.2     1  UNL1        0.0540
     10  C          6.8590   -0.9330    1.5000 C.2     1  UNL1        0.0510
     11  C          5.8640    1.1050    0.7690 C.2     1  UNL1        0.1660
     12  C          5.8910    0.0480    1.6460 C.2     1  UNL1        0.1650
     13  O          4.8170    1.9390    1.1210 O.2     1  UNL1       -0.4540
     14  O          4.8420    0.2430    2.5450 O.2     1  UNL1       -0.4540
     15  C          3.9760    1.2380    2.0500 C.3     1  UNL1        0.4680
@<TRIPOS>BOND
     1     5     4    1
     2     4     2    1
     3     2     3    2
     4     2     1    1
     5     1     6    1
     6     6     7    1
     7     7     9    2
     8     7     8    1
     9     9    11    1
    10     8    10    2
    11    11    13    1
    12    11    12    2
    13    13    15    1
    14    10    12    1
    15    12    14    1
    16    15    14    1
