@<TRIPOS>MOLECULE
/home/cewinharhar/GITHUB/reincatalyze/data/processed/docking_pred/2023-May-17-1006_maxeplen10_maxtrainstep1000_seadep16_gamma099_lrac9e-4_lrcr1e-3_sub6/db57195a81496af8cffcd6b4d9524a1fe0637e4f_ligand_6.pdbqt
 15 16 0 0 0
SMALL
GASTEIGER

@<TRIPOS>ATOM
      1  C          5.3390    2.7940    0.0910 C.3     1  UNL1        0.1270
      2  C          6.1870    3.7610    0.7710 C.2     1  UNL1        0.3030
      3  O          6.7970    4.6860    0.2310 O.2     1  UNL1       -0.2520
      4  O          6.3240    3.6320    2.1620 O.3     1  UNL1       -0.4810
      5  H          6.9860    4.2520    2.6040 H       1  UNL1        0.2960
      6  C          5.3240    1.4590    0.7260 C.3     1  UNL1        0.0470
      7  C          6.1770    0.4220    0.1410 C.2     1  UNL1       -0.0430
      8  C          6.4650    0.3990   -1.2150 C.2     1  UNL1        0.0080
      9  C          6.6880   -0.5840    0.9180 C.2     1  UNL1        0.0540
     10  C          7.2380   -0.5960   -1.7710 C.2     1  UNL1        0.0510
     11  C          7.4660   -1.5930    0.3810 C.2     1  UNL1        0.1660
     12  C          7.7440   -1.6020   -0.9640 C.2     1  UNL1        0.1650
     13  O          8.0770   -2.6900    0.9630 O.2     1  UNL1       -0.4540
     14  O          8.5370   -2.7250   -1.2040 O.2     1  UNL1       -0.4540
     15  C          8.4950   -3.5790   -0.0840 C.3     1  UNL1        0.4680
@<TRIPOS>BOND
     1    10     8    1
     2    10    12    2
     3     8     7    2
     4    14    12    1
     5    14    15    1
     6    12    11    1
     7    15    13    1
     8     1     6    1
     9     1     2    1
    10     7     6    1
    11     7     9    1
    12     3     2    2
    13    11     9    2
    14    11    13    1
    15     2     4    1
    16     4     5    1
