@<TRIPOS>MOLECULE
/home/cewinharhar/GITHUB/reincatalyze/data/processed/docking_pred/2023-May-17-1006_maxeplen10_maxtrainstep1000_seadep16_gamma099_lrac9e-4_lrcr1e-3_sub6/db6d960fae65c9d90f474a1e8ae318b6f28ec3f2_ligand_6.pdbqt
 15 16 0 0 0
SMALL
GASTEIGER

@<TRIPOS>ATOM
      1  C          6.4080    1.3170    0.5990 C.3     1  UNL1        0.1270
      2  C          5.2160    1.3210    1.4310 C.2     1  UNL1        0.3030
      3  O          4.2990    2.1420    1.3680 O.2     1  UNL1       -0.2520
      4  O          5.0960    0.3020    2.3900 O.3     1  UNL1       -0.4810
      5  H          4.7950   -0.5980    2.0490 H       1  UNL1        0.2960
      6  C          6.1880    0.7850   -0.7630 C.3     1  UNL1        0.0470
      7  C          6.9640   -0.3890   -1.1660 C.2     1  UNL1       -0.0430
      8  C          7.2970   -0.6190   -2.4920 C.2     1  UNL1        0.0080
      9  C          7.3540   -1.3220   -0.2410 C.2     1  UNL1        0.0540
     10  C          7.9960   -1.7410   -2.8770 C.2     1  UNL1        0.0510
     11  C          8.0570   -2.4550   -0.6040 C.2     1  UNL1        0.1660
     12  C          8.3800   -2.6690   -1.9220 C.2     1  UNL1        0.1650
     13  O          8.5450   -3.5120    0.1440 O.2     1  UNL1       -0.4540
     14  O          9.0770   -3.8770   -1.9750 O.2     1  UNL1       -0.4540
     15  C          8.9180   -4.5660   -0.7570 C.3     1  UNL1        0.4680
@<TRIPOS>BOND
     1    10     8    1
     2    10    12    2
     3     8     7    2
     4    14    12    1
     5    14    15    1
     6    12    11    1
     7     7     6    1
     8     7     9    1
     9     6     1    1
    10    15    13    1
    11    11     9    2
    12    11    13    1
    13     1     2    1
    14     3     2    2
    15     2     4    1
    16     5     4    1
