@<TRIPOS>MOLECULE
/home/cewinharhar/GITHUB/reincatalyze/data/processed/docking_pred/2023-May-17-1006_maxeplen10_maxtrainstep1000_seadep16_gamma099_lrac9e-4_lrcr1e-3_sub6/db6d960fae65c9d90f474a1e8ae318b6f28ec3f2_ligand_6.pdbqt
 15 16 0 0 0
SMALL
GASTEIGER

@<TRIPOS>ATOM
      1  C          4.7030    1.8500    0.7030 C.3     1  UNL1        0.1270
      2  C          4.4000    1.1340    1.9330 C.2     1  UNL1        0.3030
      3  O          5.1250    0.2970    2.4720 O.2     1  UNL1       -0.2520
      4  O          3.1770    1.4210    2.5600 O.3     1  UNL1       -0.4810
      5  H          2.3560    1.3740    1.9770 H       1  UNL1        0.2960
      6  C          6.1280    2.2140    0.5560 C.3     1  UNL1        0.0470
      7  C          6.9810    1.3130   -0.2220 C.2     1  UNL1       -0.0430
      8  C          8.3410    1.5430   -0.3620 C.2     1  UNL1        0.0080
      9  C          6.4480    0.2300   -0.8700 C.2     1  UNL1        0.0540
     10  C          9.1370    0.7160   -1.1240 C.2     1  UNL1        0.0510
     11  C          7.2270   -0.6130   -1.6390 C.2     1  UNL1        0.1660
     12  C          8.5740   -0.3730   -1.7680 C.2     1  UNL1        0.1650
     13  O          6.9120   -1.7450   -2.3690 O.2     1  UNL1       -0.4540
     14  O          9.0850   -1.3780   -2.5920 O.2     1  UNL1       -0.4540
     15  C          8.0220   -2.0520   -3.2250 C.3     1  UNL1        0.4680
@<TRIPOS>BOND
     1    15    14    1
     2    15    13    1
     3    14    12    1
     4    13    11    1
     5    12    11    2
     6    12    10    1
     7    11     9    1
     8    10     8    2
     9     9     7    2
    10     8     7    1
    11     7     6    1
    12     6     1    1
    13     1     2    1
    14     2     3    2
    15     2     4    1
    16     5     4    1
