@<TRIPOS>MOLECULE
/home/cewinharhar/GITHUB/reincatalyze/data/processed/docking_pred/2023-May-17-1006_maxeplen10_maxtrainstep1000_seadep16_gamma099_lrac9e-4_lrcr1e-3_sub6/db6d960fae65c9d90f474a1e8ae318b6f28ec3f2_ligand_6.pdbqt
 15 16 0 0 0
SMALL
GASTEIGER

@<TRIPOS>ATOM
      1  C          5.5110    2.7750   -0.0640 C.3     1  UNL1        0.1270
      2  C          6.1670    3.7130    0.8330 C.2     1  UNL1        0.3030
      3  O          6.1550    3.6570    2.0640 O.2     1  UNL1       -0.2520
      4  O          6.8760    4.7740    0.2480 O.3     1  UNL1       -0.4810
      5  H          7.8820    4.7230    0.3050 H       1  UNL1        0.2960
      6  C          5.3550    1.4160    0.4980 C.3     1  UNL1        0.0470
      7  C          6.2180    0.3600   -0.0350 C.2     1  UNL1       -0.0430
      8  C          6.5320    0.2920   -1.3840 C.2     1  UNL1        0.0080
      9  C          6.7120   -0.6210    0.7830 C.2     1  UNL1        0.0540
     10  C          7.3140   -0.7210   -1.8930 C.2     1  UNL1        0.0510
     11  C          7.4990   -1.6470    0.2960 C.2     1  UNL1        0.1660
     12  C          7.8030   -1.7010   -1.0430 C.2     1  UNL1        0.1650
     13  O          8.0970   -2.7250    0.9240 O.2     1  UNL1       -0.4540
     14  O          8.5990   -2.8310   -1.2310 O.2     1  UNL1       -0.4540
     15  C          8.5340   -3.6480   -0.0850 C.3     1  UNL1        0.4680
@<TRIPOS>BOND
     1    10     8    1
     2    10    12    2
     3     8     7    2
     4    14    12    1
     5    14    15    1
     6    12    11    1
     7    15    13    1
     8     1     6    1
     9     1     2    1
    10     7     6    1
    11     7     9    1
    12     4     5    1
    13     4     2    1
    14    11     9    2
    15    11    13    1
    16     2     3    2
