@<TRIPOS>MOLECULE
/home/cewinharhar/GITHUB/reincatalyze/data/processed/docking_pred/2023-May-17-1006_maxeplen10_maxtrainstep1000_seadep16_gamma099_lrac9e-4_lrcr1e-3_sub6/db6d960fae65c9d90f474a1e8ae318b6f28ec3f2_ligand_6.pdbqt
 15 16 0 0 0
SMALL
GASTEIGER

@<TRIPOS>ATOM
      1  C          8.3120   -0.3200   -2.8640 C.3     1  UNL1        0.1270
      2  C          8.4740   -1.7500   -3.0770 C.2     1  UNL1        0.3030
      3  O          9.5420   -2.3630   -3.0410 O.2     1  UNL1       -0.2520
      4  O          7.3170   -2.4960   -3.3480 O.3     1  UNL1       -0.4810
      5  H          6.4800   -1.9670   -3.5400 H       1  UNL1        0.2960
      6  C          8.7630    0.1430   -1.5340 C.3     1  UNL1        0.0470
      7  C          7.7940    0.1000   -0.4370 C.2     1  UNL1       -0.0430
      8  C          7.7380   -0.9740    0.4380 C.2     1  UNL1        0.0080
      9  C          6.8830    1.1080   -0.2670 C.2     1  UNL1        0.0540
     10  C          6.8030   -1.0340    1.4480 C.2     1  UNL1        0.0510
     11  C          5.9370    1.0710    0.7400 C.2     1  UNL1        0.1660
     12  C          5.8940    0.0000    1.6000 C.2     1  UNL1        0.1650
     13  O          4.9370    1.9590    1.0950 O.2     1  UNL1       -0.4540
     14  O          4.8490    0.2430    2.4930 O.2     1  UNL1       -0.4540
     15  C          4.0480    1.2950    2.0060 C.3     1  UNL1        0.4680
@<TRIPOS>BOND
     1     5     4    1
     2     4     2    1
     3     2     3    2
     4     2     1    1
     5     1     6    1
     6     6     7    1
     7     7     9    2
     8     7     8    1
     9     9    11    1
    10     8    10    2
    11    11    13    1
    12    11    12    2
    13    13    15    1
    14    10    12    1
    15    12    14    1
    16    15    14    1
