@<TRIPOS>MOLECULE
/home/cewinharhar/GITHUB/reincatalyze/data/processed/docking_pred/2023-May-17-1006_maxeplen10_maxtrainstep1000_seadep16_gamma099_lrac9e-4_lrcr1e-3_sub6/db6d960fae65c9d90f474a1e8ae318b6f28ec3f2_ligand_6.pdbqt
 15 16 0 0 0
SMALL
GASTEIGER

@<TRIPOS>ATOM
      1  C          5.4080    2.8740    0.1180 C.3     1  UNL1        0.1270
      2  C          6.2280    3.8600    0.8060 C.2     1  UNL1        0.3030
      3  O          6.8850    4.7500    0.2630 O.2     1  UNL1       -0.2520
      4  O          6.2760    3.7920    2.2070 O.3     1  UNL1       -0.4810
      5  H          6.0000    4.6260    2.7020 H       1  UNL1        0.2960
      6  C          5.3370    1.5670    0.8060 C.3     1  UNL1        0.0470
      7  C          6.1150    0.4620    0.2410 C.2     1  UNL1       -0.0430
      8  C          6.5540   -0.5920    1.0280 C.2     1  UNL1        0.0080
      9  C          6.4660    0.4570   -1.0830 C.2     1  UNL1        0.0540
     10  C          7.3150   -1.6130    0.5060 C.2     1  UNL1        0.0510
     11  C          7.2290   -0.5580   -1.6280 C.2     1  UNL1        0.1660
     12  C          7.6560   -1.5960   -0.8360 C.2     1  UNL1        0.1650
     13  O          7.6940   -0.7670   -2.9150 O.2     1  UNL1       -0.4540
     14  O          8.3940   -2.4510   -1.6560 O.2     1  UNL1       -0.4540
     15  C          8.6920   -1.7990   -2.8690 C.3     1  UNL1        0.4680
@<TRIPOS>BOND
     1    13    15    1
     2    13    11    1
     3    15    14    1
     4    14    12    1
     5    11     9    1
     6    11    12    2
     7     9     7    2
     8    12    10    1
     9     1     2    1
    10     1     6    1
    11     7     6    1
    12     7     8    1
    13     3     2    2
    14    10     8    2
    15     2     4    1
    16     4     5    1
