MODEL 1
REMARK VINA RESULT:      -7.6      0.000      0.000
REMARK SMILES O=C(O)CCc1ccc2c(c1)OCO2
REMARK SMILES IDX 4 1 2 2 1 3 3 4 5 6 6 7 7 8 11 9 8 10 10 11 9 12 12 13 14 14
REMARK SMILES IDX 13 15
REMARK H PARENT 3 5
REMARK Flexibility Score: inf
ROOT
ATOM      1  C   UNL     1       5.408   2.874   0.118  1.00  0.00     0.127 C 
ENDROOT
BRANCH   1   2
ATOM      2  C   UNL     1       6.228   3.860   0.806  1.00  0.00     0.303 C 
ATOM      3  O   UNL     1       6.885   4.750   0.263  1.00  0.00    -0.252 OA
BRANCH   2   4
ATOM      4  O   UNL     1       6.276   3.792   2.207  1.00  0.00    -0.481 OA
ATOM      5  H   UNL     1       6.000   4.626   2.702  1.00  0.00     0.296 HD
ENDBRANCH   2   4
ENDBRANCH   1   2
BRANCH   1   6
ATOM      6  C   UNL     1       5.337   1.567   0.806  1.00  0.00     0.047 C 
BRANCH   6   7
ATOM      7  C   UNL     1       6.115   0.462   0.241  1.00  0.00    -0.043 A 
ATOM      8  C   UNL     1       6.554  -0.592   1.028  1.00  0.00     0.008 A 
ATOM      9  C   UNL     1       6.466   0.457  -1.083  1.00  0.00     0.054 A 
ATOM     10  C   UNL     1       7.315  -1.613   0.506  1.00  0.00     0.051 A 
ATOM     11  C   UNL     1       7.229  -0.558  -1.628  1.00  0.00     0.166 A 
ATOM     12  C   UNL     1       7.656  -1.596  -0.836  1.00  0.00     0.165 A 
ATOM     13  O   UNL     1       7.694  -0.767  -2.915  1.00  0.00    -0.454 OA
ATOM     14  O   UNL     1       8.394  -2.451  -1.656  1.00  0.00    -0.454 OA
ATOM     15  C   UNL     1       8.692  -1.799  -2.869  1.00  0.00     0.468 C 
ENDBRANCH   6   7
ENDBRANCH   1   6
TORSDOF 4
ENDMDL
MODEL 2
REMARK VINA RESULT:      -7.6      2.139      2.525
REMARK SMILES O=C(O)CCc1ccc2c(c1)OCO2
REMARK SMILES IDX 4 1 2 2 1 3 3 4 5 6 6 7 7 8 11 9 8 10 10 11 9 12 12 13 14 14
REMARK SMILES IDX 13 15
REMARK H PARENT 3 5
REMARK Flexibility Score: inf
ROOT
ATOM      1  C   UNL     1       4.703   1.850   0.703  1.00  0.00     0.127 C 
ENDROOT
BRANCH   1   2
ATOM      2  C   UNL     1       4.400   1.134   1.933  1.00  0.00     0.303 C 
ATOM      3  O   UNL     1       5.125   0.297   2.472  1.00  0.00    -0.252 OA
BRANCH   2   4
ATOM      4  O   UNL     1       3.177   1.421   2.560  1.00  0.00    -0.481 OA
ATOM      5  H   UNL     1       2.356   1.374   1.977  1.00  0.00     0.296 HD
ENDBRANCH   2   4
ENDBRANCH   1   2
BRANCH   1   6
ATOM      6  C   UNL     1       6.128   2.214   0.556  1.00  0.00     0.047 C 
BRANCH   6   7
ATOM      7  C   UNL     1       6.981   1.313  -0.222  1.00  0.00    -0.043 A 
ATOM      8  C   UNL     1       8.341   1.543  -0.362  1.00  0.00     0.008 A 
ATOM      9  C   UNL     1       6.448   0.230  -0.870  1.00  0.00     0.054 A 
ATOM     10  C   UNL     1       9.137   0.716  -1.124  1.00  0.00     0.051 A 
ATOM     11  C   UNL     1       7.227  -0.613  -1.639  1.00  0.00     0.166 A 
ATOM     12  C   UNL     1       8.574  -0.373  -1.768  1.00  0.00     0.165 A 
ATOM     13  O   UNL     1       6.912  -1.745  -2.369  1.00  0.00    -0.454 OA
ATOM     14  O   UNL     1       9.085  -1.378  -2.592  1.00  0.00    -0.454 OA
ATOM     15  C   UNL     1       8.022  -2.052  -3.225  1.00  0.00     0.468 C 
ENDBRANCH   6   7
ENDBRANCH   1   6
TORSDOF 4
ENDMDL
MODEL 3
REMARK VINA RESULT:      -7.5      1.960      2.893
REMARK SMILES O=C(O)CCc1ccc2c(c1)OCO2
REMARK SMILES IDX 4 1 2 2 1 3 3 4 5 6 6 7 7 8 11 9 8 10 10 11 9 12 12 13 14 14
REMARK SMILES IDX 13 15
REMARK H PARENT 3 5
REMARK Flexibility Score: inf
ROOT
ATOM      1  C   UNL     1       6.408   1.317   0.599  1.00  0.00     0.127 C 
ENDROOT
BRANCH   1   2
ATOM      2  C   UNL     1       5.216   1.321   1.431  1.00  0.00     0.303 C 
ATOM      3  O   UNL     1       4.299   2.142   1.368  1.00  0.00    -0.252 OA
BRANCH   2   4
ATOM      4  O   UNL     1       5.096   0.302   2.390  1.00  0.00    -0.481 OA
ATOM      5  H   UNL     1       4.795  -0.598   2.049  1.00  0.00     0.296 HD
ENDBRANCH   2   4
ENDBRANCH   1   2
BRANCH   1   6
ATOM      6  C   UNL     1       6.188   0.785  -0.763  1.00  0.00     0.047 C 
BRANCH   6   7
ATOM      7  C   UNL     1       6.964  -0.389  -1.166  1.00  0.00    -0.043 A 
ATOM      8  C   UNL     1       7.297  -0.619  -2.492  1.00  0.00     0.008 A 
ATOM      9  C   UNL     1       7.354  -1.322  -0.241  1.00  0.00     0.054 A 
ATOM     10  C   UNL     1       7.996  -1.741  -2.877  1.00  0.00     0.051 A 
ATOM     11  C   UNL     1       8.057  -2.455  -0.604  1.00  0.00     0.166 A 
ATOM     12  C   UNL     1       8.380  -2.669  -1.922  1.00  0.00     0.165 A 
ATOM     13  O   UNL     1       8.545  -3.512   0.144  1.00  0.00    -0.454 OA
ATOM     14  O   UNL     1       9.077  -3.877  -1.975  1.00  0.00    -0.454 OA
ATOM     15  C   UNL     1       8.918  -4.566  -0.757  1.00  0.00     0.468 C 
ENDBRANCH   6   7
ENDBRANCH   1   6
TORSDOF 4
ENDMDL
MODEL 4
REMARK VINA RESULT:      -7.5      0.984      2.132
REMARK SMILES O=C(O)CCc1ccc2c(c1)OCO2
REMARK SMILES IDX 4 1 2 2 1 3 3 4 5 6 6 7 7 8 11 9 8 10 10 11 9 12 12 13 14 14
REMARK SMILES IDX 13 15
REMARK H PARENT 3 5
REMARK Flexibility Score: inf
ROOT
ATOM      1  C   UNL     1       5.511   2.775  -0.064  1.00  0.00     0.127 C 
ENDROOT
BRANCH   1   2
ATOM      2  C   UNL     1       6.167   3.713   0.833  1.00  0.00     0.303 C 
ATOM      3  O   UNL     1       6.155   3.657   2.064  1.00  0.00    -0.252 OA
BRANCH   2   4
ATOM      4  O   UNL     1       6.876   4.774   0.248  1.00  0.00    -0.481 OA
ATOM      5  H   UNL     1       7.882   4.723   0.305  1.00  0.00     0.296 HD
ENDBRANCH   2   4
ENDBRANCH   1   2
BRANCH   1   6
ATOM      6  C   UNL     1       5.355   1.416   0.498  1.00  0.00     0.047 C 
BRANCH   6   7
ATOM      7  C   UNL     1       6.218   0.360  -0.035  1.00  0.00    -0.043 A 
ATOM      8  C   UNL     1       6.532   0.292  -1.384  1.00  0.00     0.008 A 
ATOM      9  C   UNL     1       6.712  -0.621   0.783  1.00  0.00     0.054 A 
ATOM     10  C   UNL     1       7.314  -0.721  -1.893  1.00  0.00     0.051 A 
ATOM     11  C   UNL     1       7.499  -1.647   0.296  1.00  0.00     0.166 A 
ATOM     12  C   UNL     1       7.803  -1.701  -1.043  1.00  0.00     0.165 A 
ATOM     13  O   UNL     1       8.097  -2.725   0.924  1.00  0.00    -0.454 OA
ATOM     14  O   UNL     1       8.599  -2.831  -1.231  1.00  0.00    -0.454 OA
ATOM     15  C   UNL     1       8.534  -3.648  -0.085  1.00  0.00     0.468 C 
ENDBRANCH   6   7
ENDBRANCH   1   6
TORSDOF 4
ENDMDL
MODEL 5
REMARK VINA RESULT:      -7.4      1.790      5.285
REMARK SMILES O=C(O)CCc1ccc2c(c1)OCO2
REMARK SMILES IDX 4 1 2 2 1 3 3 4 5 6 6 7 7 8 11 9 8 10 10 11 9 12 12 13 14 14
REMARK SMILES IDX 13 15
REMARK H PARENT 3 5
REMARK Flexibility Score: inf
ROOT
ATOM      1  C   UNL     1       8.312  -0.320  -2.864  1.00  0.00     0.127 C 
ENDROOT
BRANCH   1   2
ATOM      2  C   UNL     1       8.474  -1.750  -3.077  1.00  0.00     0.303 C 
ATOM      3  O   UNL     1       9.542  -2.363  -3.041  1.00  0.00    -0.252 OA
BRANCH   2   4
ATOM      4  O   UNL     1       7.317  -2.496  -3.348  1.00  0.00    -0.481 OA
ATOM      5  H   UNL     1       6.480  -1.967  -3.540  1.00  0.00     0.296 HD
ENDBRANCH   2   4
ENDBRANCH   1   2
BRANCH   1   6
ATOM      6  C   UNL     1       8.763   0.143  -1.534  1.00  0.00     0.047 C 
BRANCH   6   7
ATOM      7  C   UNL     1       7.794   0.100  -0.437  1.00  0.00    -0.043 A 
ATOM      8  C   UNL     1       7.738  -0.974   0.438  1.00  0.00     0.008 A 
ATOM      9  C   UNL     1       6.883   1.108  -0.267  1.00  0.00     0.054 A 
ATOM     10  C   UNL     1       6.803  -1.034   1.448  1.00  0.00     0.051 A 
ATOM     11  C   UNL     1       5.937   1.071   0.740  1.00  0.00     0.166 A 
ATOM     12  C   UNL     1       5.894   0.000   1.600  1.00  0.00     0.165 A 
ATOM     13  O   UNL     1       4.937   1.959   1.095  1.00  0.00    -0.454 OA
ATOM     14  O   UNL     1       4.849   0.243   2.493  1.00  0.00    -0.454 OA
ATOM     15  C   UNL     1       4.048   1.295   2.006  1.00  0.00     0.468 C 
ENDBRANCH   6   7
ENDBRANCH   1   6
TORSDOF 4
ENDMDL
