MODEL 1
REMARK VINA RESULT:      -7.8      0.000      0.000
REMARK SMILES O=C(O)CCc1ccc2c(c1)OCO2
REMARK SMILES IDX 4 1 2 2 1 3 3 4 5 6 6 7 7 8 11 9 8 10 10 11 9 12 12 13 14 14
REMARK SMILES IDX 13 15
REMARK H PARENT 3 5
REMARK Flexibility Score: inf
ROOT
ATOM      1  C   UNL     1       5.414   2.867   0.128  1.00  0.00     0.127 C 
ENDROOT
BRANCH   1   2
ATOM      2  C   UNL     1       6.242   3.849   0.809  1.00  0.00     0.303 C 
ATOM      3  O   UNL     1       6.874   4.756   0.264  1.00  0.00    -0.252 OA
BRANCH   2   4
ATOM      4  O   UNL     1       6.331   3.760   2.207  1.00  0.00    -0.481 OA
ATOM      5  H   UNL     1       7.258   3.649   2.588  1.00  0.00     0.296 HD
ENDBRANCH   2   4
ENDBRANCH   1   2
BRANCH   1   6
ATOM      6  C   UNL     1       5.346   1.560   0.816  1.00  0.00     0.047 C 
BRANCH   6   7
ATOM      7  C   UNL     1       6.131   0.458   0.255  1.00  0.00    -0.043 A 
ATOM      8  C   UNL     1       6.595  -0.579   1.050  1.00  0.00     0.008 A 
ATOM      9  C   UNL     1       6.466   0.441  -1.073  1.00  0.00     0.054 A 
ATOM     10  C   UNL     1       7.364  -1.597   0.531  1.00  0.00     0.051 A 
ATOM     11  C   UNL     1       7.236  -0.570  -1.615  1.00  0.00     0.166 A 
ATOM     12  C   UNL     1       7.687  -1.592  -0.816  1.00  0.00     0.165 A 
ATOM     13  O   UNL     1       7.688  -0.790  -2.905  1.00  0.00    -0.454 OA
ATOM     14  O   UNL     1       8.427  -2.448  -1.634  1.00  0.00    -0.454 OA
ATOM     15  C   UNL     1       8.700  -1.807  -2.859  1.00  0.00     0.468 C 
ENDBRANCH   6   7
ENDBRANCH   1   6
TORSDOF 4
ENDMDL
MODEL 2
REMARK VINA RESULT:      -7.7      2.132      2.509
REMARK SMILES O=C(O)CCc1ccc2c(c1)OCO2
REMARK SMILES IDX 4 1 2 2 1 3 3 4 5 6 6 7 7 8 11 9 8 10 10 11 9 12 12 13 14 14
REMARK SMILES IDX 13 15
REMARK H PARENT 3 5
REMARK Flexibility Score: inf
ROOT
ATOM      1  C   UNL     1       4.708   1.891   0.686  1.00  0.00     0.127 C 
ENDROOT
BRANCH   1   2
ATOM      2  C   UNL     1       4.403   1.170   1.912  1.00  0.00     0.303 C 
ATOM      3  O   UNL     1       5.131   0.335   2.453  1.00  0.00    -0.252 OA
BRANCH   2   4
ATOM      4  O   UNL     1       3.176   1.446   2.535  1.00  0.00    -0.481 OA
ATOM      5  H   UNL     1       2.818   2.382   2.418  1.00  0.00     0.296 HD
ENDBRANCH   2   4
ENDBRANCH   1   2
BRANCH   1   6
ATOM      6  C   UNL     1       6.136   2.244   0.536  1.00  0.00     0.047 C 
BRANCH   6   7
ATOM      7  C   UNL     1       6.981   1.332  -0.238  1.00  0.00    -0.043 A 
ATOM      8  C   UNL     1       8.345   1.540  -0.365  1.00  0.00     0.008 A 
ATOM      9  C   UNL     1       6.436   0.260  -0.895  1.00  0.00     0.054 A 
ATOM     10  C   UNL     1       9.135   0.704  -1.122  1.00  0.00     0.051 A 
ATOM     11  C   UNL     1       7.209  -0.592  -1.659  1.00  0.00     0.166 A 
ATOM     12  C   UNL     1       8.561  -0.374  -1.776  1.00  0.00     0.165 A 
ATOM     13  O   UNL     1       6.882  -1.717  -2.397  1.00  0.00    -0.454 OA
ATOM     14  O   UNL     1       9.063  -1.384  -2.599  1.00  0.00    -0.454 OA
ATOM     15  C   UNL     1       7.995  -2.039  -3.244  1.00  0.00     0.468 C 
ENDBRANCH   6   7
ENDBRANCH   1   6
TORSDOF 4
ENDMDL
MODEL 3
REMARK VINA RESULT:      -7.6      0.940      2.110
REMARK SMILES O=C(O)CCc1ccc2c(c1)OCO2
REMARK SMILES IDX 4 1 2 2 1 3 3 4 5 6 6 7 7 8 11 9 8 10 10 11 9 12 12 13 14 14
REMARK SMILES IDX 13 15
REMARK H PARENT 3 5
REMARK Flexibility Score: inf
ROOT
ATOM      1  C   UNL     1       5.382   2.847   0.124  1.00  0.00     0.127 C 
ENDROOT
BRANCH   1   2
ATOM      2  C   UNL     1       6.163   3.771   0.932  1.00  0.00     0.303 C 
ATOM      3  O   UNL     1       6.242   3.759   2.161  1.00  0.00    -0.252 OA
BRANCH   2   4
ATOM      4  O   UNL     1       6.890   4.763   0.254  1.00  0.00    -0.481 OA
ATOM      5  H   UNL     1       7.868   4.836   0.488  1.00  0.00     0.296 HD
ENDBRANCH   2   4
ENDBRANCH   1   2
BRANCH   1   6
ATOM      6  C   UNL     1       5.292   1.484   0.690  1.00  0.00     0.047 C 
BRANCH   6   7
ATOM      7  C   UNL     1       6.162   0.455   0.117  1.00  0.00    -0.043 A 
ATOM      8  C   UNL     1       6.479   0.442  -1.232  1.00  0.00     0.008 A 
ATOM      9  C   UNL     1       6.659  -0.555   0.898  1.00  0.00     0.054 A 
ATOM     10  C   UNL     1       7.268  -0.546  -1.779  1.00  0.00     0.051 A 
ATOM     11  C   UNL     1       7.452  -1.557   0.371  1.00  0.00     0.166 A 
ATOM     12  C   UNL     1       7.760  -1.556  -0.968  1.00  0.00     0.165 A 
ATOM     13  O   UNL     1       8.054  -2.656   0.958  1.00  0.00    -0.454 OA
ATOM     14  O   UNL     1       8.563  -2.674  -1.198  1.00  0.00    -0.454 OA
ATOM     15  C   UNL     1       8.498  -3.536  -0.085  1.00  0.00     0.468 C 
ENDBRANCH   6   7
ENDBRANCH   1   6
TORSDOF 4
ENDMDL
MODEL 4
REMARK VINA RESULT:      -7.6      1.781      5.282
REMARK SMILES O=C(O)CCc1ccc2c(c1)OCO2
REMARK SMILES IDX 4 1 2 2 1 3 3 4 5 6 6 7 7 8 11 9 8 10 10 11 9 12 12 13 14 14
REMARK SMILES IDX 13 15
REMARK H PARENT 3 5
REMARK Flexibility Score: inf
ROOT
ATOM      1  C   UNL     1       8.309  -0.323  -2.867  1.00  0.00     0.127 C 
ENDROOT
BRANCH   1   2
ATOM      2  C   UNL     1       8.473  -1.753  -3.076  1.00  0.00     0.303 C 
ATOM      3  O   UNL     1       9.542  -2.366  -3.034  1.00  0.00    -0.252 OA
BRANCH   2   4
ATOM      4  O   UNL     1       7.317  -2.501  -3.349  1.00  0.00    -0.481 OA
ATOM      5  H   UNL     1       6.678  -2.630  -2.579  1.00  0.00     0.296 HD
ENDBRANCH   2   4
ENDBRANCH   1   2
BRANCH   1   6
ATOM      6  C   UNL     1       8.760   0.145  -1.539  1.00  0.00     0.047 C 
BRANCH   6   7
ATOM      7  C   UNL     1       7.792   0.103  -0.441  1.00  0.00    -0.043 A 
ATOM      8  C   UNL     1       7.737  -0.968   0.437  1.00  0.00     0.008 A 
ATOM      9  C   UNL     1       6.880   1.111  -0.274  1.00  0.00     0.054 A 
ATOM     10  C   UNL     1       6.803  -1.025   1.447  1.00  0.00     0.051 A 
ATOM     11  C   UNL     1       5.934   1.076   0.733  1.00  0.00     0.166 A 
ATOM     12  C   UNL     1       5.892   0.008   1.597  1.00  0.00     0.165 A 
ATOM     13  O   UNL     1       4.933   1.964   1.086  1.00  0.00    -0.454 OA
ATOM     14  O   UNL     1       4.848   0.253   2.490  1.00  0.00    -0.454 OA
ATOM     15  C   UNL     1       4.046   1.302   1.999  1.00  0.00     0.468 C 
ENDBRANCH   6   7
ENDBRANCH   1   6
TORSDOF 4
ENDMDL
MODEL 5
REMARK VINA RESULT:      -7.4      1.955      2.756
REMARK SMILES O=C(O)CCc1ccc2c(c1)OCO2
REMARK SMILES IDX 4 1 2 2 1 3 3 4 5 6 6 7 7 8 11 9 8 10 10 11 9 12 12 13 14 14
REMARK SMILES IDX 13 15
REMARK H PARENT 3 5
REMARK Flexibility Score: inf
ROOT
ATOM      1  C   UNL     1       5.074   0.165   2.009  1.00  0.00     0.127 C 
ENDROOT
BRANCH   1   2
ATOM      2  C   UNL     1       4.216   1.334   1.897  1.00  0.00     0.303 C 
ATOM      3  O   UNL     1       4.410   2.297   1.153  1.00  0.00    -0.252 OA
BRANCH   2   4
ATOM      4  O   UNL     1       3.068   1.370   2.703  1.00  0.00    -0.481 OA
ATOM      5  H   UNL     1       2.239   1.761   2.282  1.00  0.00     0.296 HD
ENDBRANCH   2   4
ENDBRANCH   1   2
BRANCH   1   6
ATOM      6  C   UNL     1       6.467   0.399   1.571  1.00  0.00     0.047 C 
BRANCH   6   7
ATOM      7  C   UNL     1       6.978  -0.420   0.470  1.00  0.00    -0.043 A 
ATOM      8  C   UNL     1       6.742  -0.082  -0.854  1.00  0.00     0.008 A 
ATOM      9  C   UNL     1       7.675  -1.572   0.719  1.00  0.00     0.054 A 
ATOM     10  C   UNL     1       7.191  -0.870  -1.890  1.00  0.00     0.051 A 
ATOM     11  C   UNL     1       8.135  -2.378  -0.305  1.00  0.00     0.166 A 
ATOM     12  C   UNL     1       7.895  -2.030  -1.613  1.00  0.00     0.165 A 
ATOM     13  O   UNL     1       8.848  -3.565  -0.291  1.00  0.00    -0.454 OA
ATOM     14  O   UNL     1       8.472  -3.023  -2.406  1.00  0.00    -0.454 OA
ATOM     15  C   UNL     1       8.793  -4.138  -1.606  1.00  0.00     0.468 C 
ENDBRANCH   6   7
ENDBRANCH   1   6
TORSDOF 4
ENDMDL
