@<TRIPOS>MOLECULE
/home/cewinharhar/GITHUB/reincatalyze/data/processed/docking_pred/2023-May-17-1006_maxeplen10_maxtrainstep1000_seadep16_gamma099_lrac9e-4_lrcr1e-3_sub6/dba3942d2f0306a5a819952336ad453bb769fd78_ligand_6.pdbqt
 15 16 0 0 0
SMALL
GASTEIGER

@<TRIPOS>ATOM
      1  C          5.3820    2.8470    0.1240 C.3     1  UNL1        0.1270
      2  C          6.1630    3.7710    0.9320 C.2     1  UNL1        0.3030
      3  O          6.2420    3.7590    2.1610 O.2     1  UNL1       -0.2520
      4  O          6.8900    4.7630    0.2540 O.3     1  UNL1       -0.4810
      5  H          7.8680    4.8360    0.4880 H       1  UNL1        0.2960
      6  C          5.2920    1.4840    0.6900 C.3     1  UNL1        0.0470
      7  C          6.1620    0.4550    0.1170 C.2     1  UNL1       -0.0430
      8  C          6.4790    0.4420   -1.2320 C.2     1  UNL1        0.0080
      9  C          6.6590   -0.5550    0.8980 C.2     1  UNL1        0.0540
     10  C          7.2680   -0.5460   -1.7790 C.2     1  UNL1        0.0510
     11  C          7.4520   -1.5570    0.3710 C.2     1  UNL1        0.1660
     12  C          7.7600   -1.5560   -0.9680 C.2     1  UNL1        0.1650
     13  O          8.0540   -2.6560    0.9580 O.2     1  UNL1       -0.4540
     14  O          8.5630   -2.6740   -1.1980 O.2     1  UNL1       -0.4540
     15  C          8.4980   -3.5360   -0.0850 C.3     1  UNL1        0.4680
@<TRIPOS>BOND
     1    10     8    1
     2    10    12    2
     3     8     7    2
     4    14    12    1
     5    14    15    1
     6    12    11    1
     7    15    13    1
     8     7     6    1
     9     7     9    1
    10     1     6    1
    11     1     2    1
    12     4     5    1
    13     4     2    1
    14    11     9    2
    15    11    13    1
    16     2     3    2
