@<TRIPOS>MOLECULE
/home/cewinharhar/GITHUB/reincatalyze/data/processed/docking_pred/2023-May-17-1006_maxeplen10_maxtrainstep1000_seadep16_gamma099_lrac9e-4_lrcr1e-3_sub6/dba3942d2f0306a5a819952336ad453bb769fd78_ligand_6.pdbqt
 15 16 0 0 0
SMALL
GASTEIGER

@<TRIPOS>ATOM
      1  C          8.3090   -0.3230   -2.8670 C.3     1  UNL1        0.1270
      2  C          8.4730   -1.7530   -3.0760 C.2     1  UNL1        0.3030
      3  O          9.5420   -2.3660   -3.0340 O.2     1  UNL1       -0.2520
      4  O          7.3170   -2.5010   -3.3490 O.3     1  UNL1       -0.4810
      5  H          6.6780   -2.6300   -2.5790 H       1  UNL1        0.2960
      6  C          8.7600    0.1450   -1.5390 C.3     1  UNL1        0.0470
      7  C          7.7920    0.1030   -0.4410 C.2     1  UNL1       -0.0430
      8  C          7.7370   -0.9680    0.4370 C.2     1  UNL1        0.0080
      9  C          6.8800    1.1110   -0.2740 C.2     1  UNL1        0.0540
     10  C          6.8030   -1.0250    1.4470 C.2     1  UNL1        0.0510
     11  C          5.9340    1.0760    0.7330 C.2     1  UNL1        0.1660
     12  C          5.8920    0.0080    1.5970 C.2     1  UNL1        0.1650
     13  O          4.9330    1.9640    1.0860 O.2     1  UNL1       -0.4540
     14  O          4.8480    0.2530    2.4900 O.2     1  UNL1       -0.4540
     15  C          4.0460    1.3020    1.9990 C.3     1  UNL1        0.4680
@<TRIPOS>BOND
     1     4     2    1
     2     4     5    1
     3     2     3    2
     4     2     1    1
     5     1     6    1
     6     6     7    1
     7     7     9    2
     8     7     8    1
     9     9    11    1
    10     8    10    2
    11    11    13    1
    12    11    12    2
    13    13    15    1
    14    10    12    1
    15    12    14    1
    16    15    14    1
