@<TRIPOS>MOLECULE
/home/cewinharhar/GITHUB/reincatalyze/data/processed/docking_pred/2023-May-17-1006_maxeplen10_maxtrainstep1000_seadep16_gamma099_lrac9e-4_lrcr1e-3_sub6/dba3942d2f0306a5a819952336ad453bb769fd78_ligand_6.pdbqt
 15 16 0 0 0
SMALL
GASTEIGER

@<TRIPOS>ATOM
      1  C          4.7080    1.8910    0.6860 C.3     1  UNL1        0.1270
      2  C          4.4030    1.1700    1.9120 C.2     1  UNL1        0.3030
      3  O          5.1310    0.3350    2.4530 O.2     1  UNL1       -0.2520
      4  O          3.1760    1.4460    2.5350 O.3     1  UNL1       -0.4810
      5  H          2.8180    2.3820    2.4180 H       1  UNL1        0.2960
      6  C          6.1360    2.2440    0.5360 C.3     1  UNL1        0.0470
      7  C          6.9810    1.3320   -0.2380 C.2     1  UNL1       -0.0430
      8  C          8.3450    1.5400   -0.3650 C.2     1  UNL1        0.0080
      9  C          6.4360    0.2600   -0.8950 C.2     1  UNL1        0.0540
     10  C          9.1350    0.7040   -1.1220 C.2     1  UNL1        0.0510
     11  C          7.2090   -0.5920   -1.6590 C.2     1  UNL1        0.1660
     12  C          8.5610   -0.3740   -1.7760 C.2     1  UNL1        0.1650
     13  O          6.8820   -1.7170   -2.3970 O.2     1  UNL1       -0.4540
     14  O          9.0630   -1.3840   -2.5990 O.2     1  UNL1       -0.4540
     15  C          7.9950   -2.0390   -3.2440 C.3     1  UNL1        0.4680
@<TRIPOS>BOND
     1    15    14    1
     2    15    13    1
     3    14    12    1
     4    13    11    1
     5    12    11    2
     6    12    10    1
     7    11     9    1
     8    10     8    2
     9     9     7    2
    10     8     7    1
    11     7     6    1
    12     6     1    1
    13     1     2    1
    14     2     3    2
    15     2     4    1
    16     5     4    1
