@<TRIPOS>MOLECULE
/home/cewinharhar/GITHUB/reincatalyze/data/processed/docking_pred/2023-May-17-1006_maxeplen10_maxtrainstep1000_seadep16_gamma099_lrac9e-4_lrcr1e-3_sub6/dba3942d2f0306a5a819952336ad453bb769fd78_ligand_6.pdbqt
 15 16 0 0 0
SMALL
GASTEIGER

@<TRIPOS>ATOM
      1  C          5.0740    0.1650    2.0090 C.3     1  UNL1        0.1270
      2  C          4.2160    1.3340    1.8970 C.2     1  UNL1        0.3030
      3  O          4.4100    2.2970    1.1530 O.2     1  UNL1       -0.2520
      4  O          3.0680    1.3700    2.7030 O.3     1  UNL1       -0.4810
      5  H          2.2390    1.7610    2.2820 H       1  UNL1        0.2960
      6  C          6.4670    0.3990    1.5710 C.3     1  UNL1        0.0470
      7  C          6.9780   -0.4200    0.4700 C.2     1  UNL1       -0.0430
      8  C          6.7420   -0.0820   -0.8540 C.2     1  UNL1        0.0080
      9  C          7.6750   -1.5720    0.7190 C.2     1  UNL1        0.0540
     10  C          7.1910   -0.8700   -1.8900 C.2     1  UNL1        0.0510
     11  C          8.1350   -2.3780   -0.3050 C.2     1  UNL1        0.1660
     12  C          7.8950   -2.0300   -1.6130 C.2     1  UNL1        0.1650
     13  O          8.8480   -3.5650   -0.2910 O.2     1  UNL1       -0.4540
     14  O          8.4720   -3.0230   -2.4060 O.2     1  UNL1       -0.4540
     15  C          8.7930   -4.1380   -1.6060 C.3     1  UNL1        0.4680
@<TRIPOS>BOND
     1    14    12    1
     2    14    15    1
     3    10    12    2
     4    10     8    1
     5    12    11    1
     6    15    13    1
     7     8     7    2
     8    11    13    1
     9    11     9    2
    10     7     9    1
    11     7     6    1
    12     3     2    2
    13     6     1    1
    14     2     1    1
    15     2     4    1
    16     5     4    1
