@<TRIPOS>MOLECULE
/home/cewinharhar/GITHUB/reincatalyze/data/processed/docking_pred/2023-May-17-1006_maxeplen10_maxtrainstep1000_seadep16_gamma099_lrac9e-4_lrcr1e-3_sub6/dba3942d2f0306a5a819952336ad453bb769fd78_ligand_6.pdbqt
 15 16 0 0 0
SMALL
GASTEIGER

@<TRIPOS>ATOM
      1  C          5.4140    2.8670    0.1280 C.3     1  UNL1        0.1270
      2  C          6.2420    3.8490    0.8090 C.2     1  UNL1        0.3030
      3  O          6.8740    4.7560    0.2640 O.2     1  UNL1       -0.2520
      4  O          6.3310    3.7600    2.2070 O.3     1  UNL1       -0.4810
      5  H          7.2580    3.6490    2.5880 H       1  UNL1        0.2960
      6  C          5.3460    1.5600    0.8160 C.3     1  UNL1        0.0470
      7  C          6.1310    0.4580    0.2550 C.2     1  UNL1       -0.0430
      8  C          6.5950   -0.5790    1.0500 C.2     1  UNL1        0.0080
      9  C          6.4660    0.4410   -1.0730 C.2     1  UNL1        0.0540
     10  C          7.3640   -1.5970    0.5310 C.2     1  UNL1        0.0510
     11  C          7.2360   -0.5700   -1.6150 C.2     1  UNL1        0.1660
     12  C          7.6870   -1.5920   -0.8160 C.2     1  UNL1        0.1650
     13  O          7.6880   -0.7900   -2.9050 O.2     1  UNL1       -0.4540
     14  O          8.4270   -2.4480   -1.6340 O.2     1  UNL1       -0.4540
     15  C          8.7000   -1.8070   -2.8590 C.3     1  UNL1        0.4680
@<TRIPOS>BOND
     1    13    15    1
     2    13    11    1
     3    15    14    1
     4    14    12    1
     5    11     9    1
     6    11    12    2
     7     9     7    2
     8    12    10    1
     9     1     2    1
    10     1     6    1
    11     7     6    1
    12     7     8    1
    13     3     2    2
    14    10     8    2
    15     2     4    1
    16     4     5    1
