@<TRIPOS>MOLECULE
/home/cewinharhar/GITHUB/reincatalyze/data/processed/docking_pred/2023-May-17-1006_maxeplen10_maxtrainstep1000_seadep16_gamma099_lrac9e-4_lrcr1e-3_sub6/dca47ac415302ce9f1313af6aebf6be1e2794cfe_ligand_6.pdbqt
 15 16 0 0 0
SMALL
GASTEIGER

@<TRIPOS>ATOM
      1  C          4.7020    1.8780    0.6800 C.3     1  UNL1        0.1270
      2  C          4.3910    1.1760    1.9160 C.2     1  UNL1        0.3030
      3  O          5.1130    0.3440    2.4690 O.2     1  UNL1       -0.2520
      4  O          3.1640    1.4680    2.5320 O.3     1  UNL1       -0.4810
      5  H          2.4960    0.7140    2.5740 H       1  UNL1        0.2960
      6  C          6.1280    2.2410    0.5390 C.3     1  UNL1        0.0470
      7  C          6.9830    1.3390   -0.2360 C.2     1  UNL1       -0.0430
      8  C          8.3410    1.5740   -0.3810 C.2     1  UNL1        0.0080
      9  C          6.4530    0.2510   -0.8770 C.2     1  UNL1        0.0540
     10  C          9.1400    0.7470   -1.1390 C.2     1  UNL1        0.0510
     11  C          7.2350   -0.5930   -1.6420 C.2     1  UNL1        0.1660
     12  C          8.5800   -0.3490   -1.7760 C.2     1  UNL1        0.1650
     13  O          6.9220   -1.7310   -2.3660 O.2     1  UNL1       -0.4540
     14  O          9.0930   -1.3560   -2.5950 O.2     1  UNL1       -0.4540
     15  C          8.0330   -2.0380   -3.2220 C.3     1  UNL1        0.4680
@<TRIPOS>BOND
     1    15    14    1
     2    15    13    1
     3    14    12    1
     4    13    11    1
     5    12    11    2
     6    12    10    1
     7    11     9    1
     8    10     8    2
     9     9     7    2
    10     8     7    1
    11     7     6    1
    12     6     1    1
    13     1     2    1
    14     2     3    2
    15     2     4    1
    16     4     5    1
