@<TRIPOS>MOLECULE
/home/cewinharhar/GITHUB/reincatalyze/data/processed/docking_pred/2023-May-17-1006_maxeplen10_maxtrainstep1000_seadep16_gamma099_lrac9e-4_lrcr1e-3_sub6/dca47ac415302ce9f1313af6aebf6be1e2794cfe_ligand_6.pdbqt
 15 16 0 0 0
SMALL
GASTEIGER

@<TRIPOS>ATOM
      1  C          6.4430    1.3390    0.7310 C.3     1  UNL1        0.1270
      2  C          5.1880    1.3460    1.4660 C.2     1  UNL1        0.3030
      3  O          4.2660    2.1490    1.3040 O.2     1  UNL1       -0.2520
      4  O          5.0080    0.3560    2.4440 O.3     1  UNL1       -0.4810
      5  H          4.3310   -0.3620    2.2320 H       1  UNL1        0.2960
      6  C          6.3050    0.9490   -0.6890 C.3     1  UNL1        0.0470
      7  C          7.0260   -0.2440   -1.1370 C.2     1  UNL1       -0.0430
      8  C          7.2900   -0.4700   -2.4790 C.2     1  UNL1        0.0080
      9  C          7.4300   -1.1960   -0.2390 C.2     1  UNL1        0.0540
     10  C          7.9360   -1.6090   -2.9050 C.2     1  UNL1        0.0510
     11  C          8.0800   -2.3460   -0.6430 C.2     1  UNL1        0.1660
     12  C          8.3360   -2.5570   -1.9770 C.2     1  UNL1        0.1650
     13  O          8.5710   -3.4250    0.0730 O.2     1  UNL1       -0.4540
     14  O          8.9930   -3.7850   -2.0720 O.2     1  UNL1       -0.4540
     15  C          8.8700   -4.4800   -0.8530 C.3     1  UNL1        0.4680
@<TRIPOS>BOND
     1    10     8    1
     2    10    12    2
     3     8     7    2
     4    14    12    1
     5    14    15    1
     6    12    11    1
     7     7     6    1
     8     7     9    1
     9    15    13    1
    10     6     1    1
    11    11     9    2
    12    11    13    1
    13     1     2    1
    14     3     2    2
    15     2     4    1
    16     5     4    1
