@<TRIPOS>MOLECULE
/home/cewinharhar/GITHUB/reincatalyze/data/processed/docking_pred/2023-May-17-1006_maxeplen10_maxtrainstep1000_seadep16_gamma099_lrac9e-4_lrcr1e-3_sub6/dca47ac415302ce9f1313af6aebf6be1e2794cfe_ligand_6.pdbqt
 15 16 0 0 0
SMALL
GASTEIGER

@<TRIPOS>ATOM
      1  C          5.4160    2.8670    0.1260 C.3     1  UNL1        0.1270
      2  C          6.2430    3.8500    0.8080 C.2     1  UNL1        0.3030
      3  O          6.8850    4.7500    0.2630 O.2     1  UNL1       -0.2520
      4  O          6.3190    3.7680    2.2080 O.3     1  UNL1       -0.4810
      5  H          5.7610    3.0500    2.6430 H       1  UNL1        0.2960
      6  C          5.3500    1.5590    0.8110 C.3     1  UNL1        0.0470
      7  C          6.1320    0.4580    0.2450 C.2     1  UNL1       -0.0430
      8  C          6.5880   -0.5880    1.0330 C.2     1  UNL1        0.0080
      9  C          6.4720    0.4500   -1.0820 C.2     1  UNL1        0.0540
     10  C          7.3540   -1.6050    0.5090 C.2     1  UNL1        0.0510
     11  C          7.2390   -0.5610   -1.6300 C.2     1  UNL1        0.1660
     12  C          7.6830   -1.5910   -0.8370 C.2     1  UNL1        0.1650
     13  O          7.6950   -0.7720   -2.9200 O.2     1  UNL1       -0.4540
     14  O          8.4210   -2.4430   -1.6600 O.2     1  UNL1       -0.4540
     15  C          8.7020   -1.7940   -2.8780 C.3     1  UNL1        0.4680
@<TRIPOS>BOND
     1    13    15    1
     2    13    11    1
     3    15    14    1
     4    14    12    1
     5    11     9    1
     6    11    12    2
     7     9     7    2
     8    12    10    1
     9     1     2    1
    10     1     6    1
    11     7     6    1
    12     7     8    1
    13     3     2    2
    14    10     8    2
    15     2     4    1
    16     4     5    1
