@<TRIPOS>MOLECULE
/home/cewinharhar/GITHUB/reincatalyze/data/processed/docking_pred/2023-May-17-1006_maxeplen10_maxtrainstep1000_seadep16_gamma099_lrac9e-4_lrcr1e-3_sub6/dca47ac415302ce9f1313af6aebf6be1e2794cfe_ligand_6.pdbqt
 15 16 0 0 0
SMALL
GASTEIGER

@<TRIPOS>ATOM
      1  C          6.4030    1.3090    0.6710 C.3     1  UNL1        0.1270
      2  C          5.1710    1.3110    1.4430 C.2     1  UNL1        0.3030
      3  O          4.2480    2.1190    1.3200 O.2     1  UNL1       -0.2520
      4  O          5.0160    0.3070    2.4120 O.3     1  UNL1       -0.4810
      5  H          4.0710    0.1180    2.7100 H       1  UNL1        0.2960
      6  C          6.2340    0.8680   -0.7300 C.3     1  UNL1        0.0470
      7  C          6.9770   -0.3180   -1.1610 C.2     1  UNL1       -0.0430
      8  C          7.2950   -0.5300   -2.4930 C.2     1  UNL1        0.0080
      9  C          7.3490   -1.2780   -0.2570 C.2     1  UNL1        0.0540
     10  C          7.9620   -1.6630   -2.9050 C.2     1  UNL1        0.0510
     11  C          8.0200   -2.4220   -0.6460 C.2     1  UNL1        0.1660
     12  C          8.3290   -2.6180   -1.9710 C.2     1  UNL1        0.1650
     13  O          8.4860   -3.5050    0.0780 O.2     1  UNL1       -0.4540
     14  O          8.9940   -3.8420   -2.0520 O.2     1  UNL1       -0.4540
     15  C          8.8260   -4.5510   -0.8460 C.3     1  UNL1        0.4680
@<TRIPOS>BOND
     1    10     8    1
     2    10    12    2
     3     8     7    2
     4    14    12    1
     5    14    15    1
     6    12    11    1
     7     7     6    1
     8     7     9    1
     9    15    13    1
    10     6     1    1
    11    11     9    2
    12    11    13    1
    13     1     2    1
    14     3     2    2
    15     2     4    1
    16     4     5    1
