MODEL 1
REMARK VINA RESULT:      -7.6      0.000      0.000
REMARK SMILES O=C(O)CCc1ccc2c(c1)OCO2
REMARK SMILES IDX 4 1 2 2 1 3 3 4 5 6 6 7 7 8 11 9 8 10 10 11 9 12 12 13 14 14
REMARK SMILES IDX 13 15
REMARK H PARENT 3 5
REMARK Flexibility Score: inf
ROOT
ATOM      1  C   UNL     1       5.416   2.867   0.126  1.00  0.00     0.127 C 
ENDROOT
BRANCH   1   2
ATOM      2  C   UNL     1       6.243   3.850   0.808  1.00  0.00     0.303 C 
ATOM      3  O   UNL     1       6.885   4.750   0.263  1.00  0.00    -0.252 OA
BRANCH   2   4
ATOM      4  O   UNL     1       6.319   3.768   2.208  1.00  0.00    -0.481 OA
ATOM      5  H   UNL     1       5.761   3.050   2.643  1.00  0.00     0.296 HD
ENDBRANCH   2   4
ENDBRANCH   1   2
BRANCH   1   6
ATOM      6  C   UNL     1       5.350   1.559   0.811  1.00  0.00     0.047 C 
BRANCH   6   7
ATOM      7  C   UNL     1       6.132   0.458   0.245  1.00  0.00    -0.043 A 
ATOM      8  C   UNL     1       6.588  -0.588   1.033  1.00  0.00     0.008 A 
ATOM      9  C   UNL     1       6.472   0.450  -1.082  1.00  0.00     0.054 A 
ATOM     10  C   UNL     1       7.354  -1.605   0.509  1.00  0.00     0.051 A 
ATOM     11  C   UNL     1       7.239  -0.561  -1.630  1.00  0.00     0.166 A 
ATOM     12  C   UNL     1       7.683  -1.591  -0.837  1.00  0.00     0.165 A 
ATOM     13  O   UNL     1       7.695  -0.772  -2.920  1.00  0.00    -0.454 OA
ATOM     14  O   UNL     1       8.421  -2.443  -1.660  1.00  0.00    -0.454 OA
ATOM     15  C   UNL     1       8.702  -1.794  -2.878  1.00  0.00     0.468 C 
ENDBRANCH   6   7
ENDBRANCH   1   6
TORSDOF 4
ENDMDL
MODEL 2
REMARK VINA RESULT:      -7.6      2.126      2.517
REMARK SMILES O=C(O)CCc1ccc2c(c1)OCO2
REMARK SMILES IDX 4 1 2 2 1 3 3 4 5 6 6 7 7 8 11 9 8 10 10 11 9 12 12 13 14 14
REMARK SMILES IDX 13 15
REMARK H PARENT 3 5
REMARK Flexibility Score: inf
ROOT
ATOM      1  C   UNL     1       4.702   1.878   0.680  1.00  0.00     0.127 C 
ENDROOT
BRANCH   1   2
ATOM      2  C   UNL     1       4.391   1.176   1.916  1.00  0.00     0.303 C 
ATOM      3  O   UNL     1       5.113   0.344   2.469  1.00  0.00    -0.252 OA
BRANCH   2   4
ATOM      4  O   UNL     1       3.164   1.468   2.532  1.00  0.00    -0.481 OA
ATOM      5  H   UNL     1       2.496   0.714   2.574  1.00  0.00     0.296 HD
ENDBRANCH   2   4
ENDBRANCH   1   2
BRANCH   1   6
ATOM      6  C   UNL     1       6.128   2.241   0.539  1.00  0.00     0.047 C 
BRANCH   6   7
ATOM      7  C   UNL     1       6.983   1.339  -0.236  1.00  0.00    -0.043 A 
ATOM      8  C   UNL     1       8.341   1.574  -0.381  1.00  0.00     0.008 A 
ATOM      9  C   UNL     1       6.453   0.251  -0.877  1.00  0.00     0.054 A 
ATOM     10  C   UNL     1       9.140   0.747  -1.139  1.00  0.00     0.051 A 
ATOM     11  C   UNL     1       7.235  -0.593  -1.642  1.00  0.00     0.166 A 
ATOM     12  C   UNL     1       8.580  -0.349  -1.776  1.00  0.00     0.165 A 
ATOM     13  O   UNL     1       6.922  -1.731  -2.366  1.00  0.00    -0.454 OA
ATOM     14  O   UNL     1       9.093  -1.356  -2.595  1.00  0.00    -0.454 OA
ATOM     15  C   UNL     1       8.033  -2.038  -3.222  1.00  0.00     0.468 C 
ENDBRANCH   6   7
ENDBRANCH   1   6
TORSDOF 4
ENDMDL
MODEL 3
REMARK VINA RESULT:      -7.5      1.964      2.876
REMARK SMILES O=C(O)CCc1ccc2c(c1)OCO2
REMARK SMILES IDX 4 1 2 2 1 3 3 4 5 6 6 7 7 8 11 9 8 10 10 11 9 12 12 13 14 14
REMARK SMILES IDX 13 15
REMARK H PARENT 3 5
REMARK Flexibility Score: inf
ROOT
ATOM      1  C   UNL     1       6.403   1.309   0.671  1.00  0.00     0.127 C 
ENDROOT
BRANCH   1   2
ATOM      2  C   UNL     1       5.171   1.311   1.443  1.00  0.00     0.303 C 
ATOM      3  O   UNL     1       4.248   2.119   1.320  1.00  0.00    -0.252 OA
BRANCH   2   4
ATOM      4  O   UNL     1       5.016   0.307   2.412  1.00  0.00    -0.481 OA
ATOM      5  H   UNL     1       4.071   0.118   2.710  1.00  0.00     0.296 HD
ENDBRANCH   2   4
ENDBRANCH   1   2
BRANCH   1   6
ATOM      6  C   UNL     1       6.234   0.868  -0.730  1.00  0.00     0.047 C 
BRANCH   6   7
ATOM      7  C   UNL     1       6.977  -0.318  -1.161  1.00  0.00    -0.043 A 
ATOM      8  C   UNL     1       7.295  -0.530  -2.493  1.00  0.00     0.008 A 
ATOM      9  C   UNL     1       7.349  -1.278  -0.257  1.00  0.00     0.054 A 
ATOM     10  C   UNL     1       7.962  -1.663  -2.905  1.00  0.00     0.051 A 
ATOM     11  C   UNL     1       8.020  -2.422  -0.646  1.00  0.00     0.166 A 
ATOM     12  C   UNL     1       8.329  -2.618  -1.971  1.00  0.00     0.165 A 
ATOM     13  O   UNL     1       8.486  -3.505   0.078  1.00  0.00    -0.454 OA
ATOM     14  O   UNL     1       8.994  -3.842  -2.052  1.00  0.00    -0.454 OA
ATOM     15  C   UNL     1       8.826  -4.551  -0.846  1.00  0.00     0.468 C 
ENDBRANCH   6   7
ENDBRANCH   1   6
TORSDOF 4
ENDMDL
MODEL 4
REMARK VINA RESULT:      -7.4      1.787      5.284
REMARK SMILES O=C(O)CCc1ccc2c(c1)OCO2
REMARK SMILES IDX 4 1 2 2 1 3 3 4 5 6 6 7 7 8 11 9 8 10 10 11 9 12 12 13 14 14
REMARK SMILES IDX 13 15
REMARK H PARENT 3 5
REMARK Flexibility Score: inf
ROOT
ATOM      1  C   UNL     1       8.310  -0.322  -2.872  1.00  0.00     0.127 C 
ENDROOT
BRANCH   1   2
ATOM      2  C   UNL     1       8.474  -1.751  -3.086  1.00  0.00     0.303 C 
ATOM      3  O   UNL     1       9.543  -2.363  -3.055  1.00  0.00    -0.252 OA
BRANCH   2   4
ATOM      4  O   UNL     1       7.316  -2.499  -3.353  1.00  0.00    -0.481 OA
ATOM      5  H   UNL     1       6.493  -1.973  -3.600  1.00  0.00     0.296 HD
ENDBRANCH   2   4
ENDBRANCH   1   2
BRANCH   1   6
ATOM      6  C   UNL     1       8.767   0.142  -1.544  1.00  0.00     0.047 C 
BRANCH   6   7
ATOM      7  C   UNL     1       7.804   0.096  -0.442  1.00  0.00    -0.043 A 
ATOM      8  C   UNL     1       7.753  -0.980   0.431  1.00  0.00     0.008 A 
ATOM      9  C   UNL     1       6.894   1.104  -0.264  1.00  0.00     0.054 A 
ATOM     10  C   UNL     1       6.825  -1.041   1.446  1.00  0.00     0.051 A 
ATOM     11  C   UNL     1       5.954   1.064   0.748  1.00  0.00     0.166 A 
ATOM     12  C   UNL     1       5.916  -0.008   1.606  1.00  0.00     0.165 A 
ATOM     13  O   UNL     1       4.956   1.952   1.110  1.00  0.00    -0.454 OA
ATOM     14  O   UNL     1       4.876   0.233   2.506  1.00  0.00    -0.454 OA
ATOM     15  C   UNL     1       4.072   1.286   2.025  1.00  0.00     0.468 C 
ENDBRANCH   6   7
ENDBRANCH   1   6
TORSDOF 4
ENDMDL
