@<TRIPOS>MOLECULE
/home/cewinharhar/GITHUB/reincatalyze/data/processed/docking_pred/2023-May-17-1006_maxeplen10_maxtrainstep1000_seadep16_gamma099_lrac9e-4_lrcr1e-3_sub6/dcca543849eb83a4cf97fda16a0578d2b97a91da_ligand_6.pdbqt
 15 16 0 0 0
SMALL
GASTEIGER

@<TRIPOS>ATOM
      1  C          4.7590    1.8570    0.7220 C.3     1  UNL1        0.1270
      2  C          4.4200    1.1330    1.9370 C.2     1  UNL1        0.3030
      3  O          5.1240    0.2830    2.4860 O.2     1  UNL1       -0.2520
      4  O          3.1860    1.4250    2.5380 O.3     1  UNL1       -0.4810
      5  H          2.5270    1.9410    1.9740 H       1  UNL1        0.2960
      6  C          6.1960    2.1860    0.6010 C.3     1  UNL1        0.0470
      7  C          7.0300    1.2920   -0.2060 C.2     1  UNL1       -0.0430
      8  C          8.3810    1.5360   -0.3940 C.2     1  UNL1        0.0080
      9  C          6.4860    0.2030   -0.8330 C.2     1  UNL1        0.0540
     10  C          9.1590    0.7170   -1.1820 C.2     1  UNL1        0.0510
     11  C          7.2470   -0.6330   -1.6270 C.2     1  UNL1        0.1660
     12  C          8.5860   -0.3800   -1.8040 C.2     1  UNL1        0.1650
     13  O          6.9170   -1.7700   -2.3450 O.2     1  UNL1       -0.4540
     14  O          9.0770   -1.3800   -2.6440 O.2     1  UNL1       -0.4540
     15  C          8.0010   -2.0670   -3.2390 C.3     1  UNL1        0.4680
@<TRIPOS>BOND
     1    15    14    1
     2    15    13    1
     3    14    12    1
     4    13    11    1
     5    12    11    2
     6    12    10    1
     7    11     9    1
     8    10     8    2
     9     9     7    2
    10     8     7    1
    11     7     6    1
    12     6     1    1
    13     1     2    1
    14     2     3    2
    15     2     4    1
    16     5     4    1
