@<TRIPOS>MOLECULE
/home/cewinharhar/GITHUB/reincatalyze/data/processed/docking_pred/2023-May-17-1006_maxeplen10_maxtrainstep1000_seadep16_gamma099_lrac9e-4_lrcr1e-3_sub6/dcca543849eb83a4cf97fda16a0578d2b97a91da_ligand_6.pdbqt
 15 16 0 0 0
SMALL
GASTEIGER

@<TRIPOS>ATOM
      1  C          6.4010    1.3260    0.5980 C.3     1  UNL1        0.1270
      2  C          5.2050    1.3070    1.4250 C.2     1  UNL1        0.3030
      3  O          4.2710    2.1090    1.3550 O.2     1  UNL1       -0.2520
      4  O          5.1020    0.2900    2.3870 O.3     1  UNL1       -0.4810
      5  H          5.6490    0.4140    3.2260 H       1  UNL1        0.2960
      6  C          6.1890    0.8220   -0.7760 C.3     1  UNL1        0.0470
      7  C          6.9500   -0.3600   -1.1880 C.2     1  UNL1       -0.0430
      8  C          7.2350   -0.6090   -2.5220 C.2     1  UNL1        0.0080
      9  C          7.3700   -1.2800   -0.2650 C.2     1  UNL1        0.0540
     10  C          7.9190   -1.7380   -2.9150 C.2     1  UNL1        0.0510
     11  C          8.0590   -2.4190   -0.6360 C.2     1  UNL1        0.1660
     12  C          8.3350   -2.6520   -1.9610 C.2     1  UNL1        0.1650
     13  O          8.5720   -3.4660    0.1100 O.2     1  UNL1       -0.4540
     14  O          9.0290   -3.8620   -2.0210 O.2     1  UNL1       -0.4540
     15  C          8.9120   -4.5330   -0.7880 C.3     1  UNL1        0.4680
@<TRIPOS>BOND
     1    10     8    1
     2    10    12    2
     3     8     7    2
     4    14    12    1
     5    14    15    1
     6    12    11    1
     7     7     6    1
     8     7     9    1
     9    15    13    1
    10     6     1    1
    11    11     9    2
    12    11    13    1
    13     1     2    1
    14     3     2    2
    15     2     4    1
    16     4     5    1
