@<TRIPOS>MOLECULE
/home/cewinharhar/GITHUB/reincatalyze/data/processed/docking_pred/2023-May-17-1006_maxeplen10_maxtrainstep1000_seadep16_gamma099_lrac9e-4_lrcr1e-3_sub6/dcca543849eb83a4cf97fda16a0578d2b97a91da_ligand_6.pdbqt
 15 16 0 0 0
SMALL
GASTEIGER

@<TRIPOS>ATOM
      1  C          5.4210    2.8630    0.1320 C.3     1  UNL1        0.1270
      2  C          6.2560    3.8370    0.8170 C.2     1  UNL1        0.3030
      3  O          6.9070    4.7320    0.2740 O.2     1  UNL1       -0.2520
      4  O          6.3280    3.7540    2.2160 O.3     1  UNL1       -0.4810
      5  H          6.3000    2.8250    2.6090 H       1  UNL1        0.2960
      6  C          5.3550    1.5490    0.8060 C.3     1  UNL1        0.0470
      7  C          6.1330    0.4510    0.2290 C.2     1  UNL1       -0.0430
      8  C          6.5800   -0.6070    1.0040 C.2     1  UNL1        0.0080
      9  C          6.4770    0.4580   -1.0970 C.2     1  UNL1        0.0540
     10  C          7.3430   -1.6220    0.4700 C.2     1  UNL1        0.0510
     11  C          7.2400   -0.5490   -1.6560 C.2     1  UNL1        0.1660
     12  C          7.6760   -1.5930   -0.8750 C.2     1  UNL1        0.1650
     13  O          7.6990   -0.7470   -2.9460 O.2     1  UNL1       -0.4540
     14  O          8.4120   -2.4380   -1.7060 O.2     1  UNL1       -0.4540
     15  C          8.7000   -1.7750   -2.9150 C.3     1  UNL1        0.4680
@<TRIPOS>BOND
     1    13    15    1
     2    13    11    1
     3    15    14    1
     4    14    12    1
     5    11     9    1
     6    11    12    2
     7     9     7    2
     8    12    10    1
     9     1     6    1
    10     1     2    1
    11     7     6    1
    12     7     8    1
    13     3     2    2
    14    10     8    2
    15     2     4    1
    16     4     5    1
