@<TRIPOS>MOLECULE
/home/cewinharhar/GITHUB/reincatalyze/data/processed/docking_pred/2023-May-17-1006_maxeplen10_maxtrainstep1000_seadep16_gamma099_lrac9e-4_lrcr1e-3_sub6/dcca543849eb83a4cf97fda16a0578d2b97a91da_ligand_6.pdbqt
 15 16 0 0 0
SMALL
GASTEIGER

@<TRIPOS>ATOM
      1  C          5.5750    2.6780    0.0610 C.3     1  UNL1        0.1270
      2  C          6.2050    3.6930    0.8900 C.2     1  UNL1        0.3030
      3  O          6.2260    3.7010    2.1230 O.2     1  UNL1       -0.2520
      4  O          6.8450    4.7560    0.2340 O.3     1  UNL1       -0.4810
      5  H          7.7810    4.5770   -0.0960 H       1  UNL1        0.2960
      6  C          5.5510    1.3320    0.6740 C.3     1  UNL1        0.0470
      7  C          6.3390    0.2800    0.0280 C.2     1  UNL1       -0.0430
      8  C          6.4430    0.1970   -1.3520 C.2     1  UNL1        0.0080
      9  C          6.9670   -0.6820    0.7730 C.2     1  UNL1        0.0540
     10  C          7.1530   -0.8140   -1.9620 C.2     1  UNL1        0.0510
     11  C          7.6860   -1.7050    0.1830 C.2     1  UNL1        0.1660
     12  C          7.7820   -1.7740   -1.1860 C.2     1  UNL1        0.1650
     13  O          8.3900   -2.7650    0.7260 O.2     1  UNL1       -0.4540
     14  O          8.5570   -2.8970   -1.4790 O.2     1  UNL1       -0.4540
     15  C          8.6810   -3.6970   -0.3260 C.3     1  UNL1        0.4680
@<TRIPOS>BOND
     1    10     8    1
     2    10    12    2
     3    14    12    1
     4    14    15    1
     5     8     7    2
     6    12    11    1
     7    15    13    1
     8     5     4    1
     9     7     6    1
    10     7     9    1
    11     1     6    1
    12     1     2    1
    13    11    13    1
    14    11     9    2
    15     4     2    1
    16     2     3    2
