MODEL 1
REMARK VINA RESULT:      -7.6      0.000      0.000
REMARK SMILES O=C(O)CCc1ccc2c(c1)OCO2
REMARK SMILES IDX 4 1 2 2 1 3 3 4 5 6 6 7 7 8 11 9 8 10 10 11 9 12 12 13 14 14
REMARK SMILES IDX 13 15
REMARK H PARENT 3 5
REMARK Flexibility Score: inf
ROOT
ATOM      1  C   UNL     1       5.421   2.863   0.132  1.00  0.00     0.127 C 
ENDROOT
BRANCH   1   2
ATOM      2  C   UNL     1       6.256   3.837   0.817  1.00  0.00     0.303 C 
ATOM      3  O   UNL     1       6.907   4.732   0.274  1.00  0.00    -0.252 OA
BRANCH   2   4
ATOM      4  O   UNL     1       6.328   3.754   2.216  1.00  0.00    -0.481 OA
ATOM      5  H   UNL     1       6.300   2.825   2.609  1.00  0.00     0.296 HD
ENDBRANCH   2   4
ENDBRANCH   1   2
BRANCH   1   6
ATOM      6  C   UNL     1       5.355   1.549   0.806  1.00  0.00     0.047 C 
BRANCH   6   7
ATOM      7  C   UNL     1       6.133   0.451   0.229  1.00  0.00    -0.043 A 
ATOM      8  C   UNL     1       6.580  -0.607   1.004  1.00  0.00     0.008 A 
ATOM      9  C   UNL     1       6.477   0.458  -1.097  1.00  0.00     0.054 A 
ATOM     10  C   UNL     1       7.343  -1.622   0.470  1.00  0.00     0.051 A 
ATOM     11  C   UNL     1       7.240  -0.549  -1.656  1.00  0.00     0.166 A 
ATOM     12  C   UNL     1       7.676  -1.593  -0.875  1.00  0.00     0.165 A 
ATOM     13  O   UNL     1       7.699  -0.747  -2.946  1.00  0.00    -0.454 OA
ATOM     14  O   UNL     1       8.412  -2.438  -1.706  1.00  0.00    -0.454 OA
ATOM     15  C   UNL     1       8.700  -1.775  -2.915  1.00  0.00     0.468 C 
ENDBRANCH   6   7
ENDBRANCH   1   6
TORSDOF 4
ENDMDL
MODEL 2
REMARK VINA RESULT:      -7.6      2.132      2.530
REMARK SMILES O=C(O)CCc1ccc2c(c1)OCO2
REMARK SMILES IDX 4 1 2 2 1 3 3 4 5 6 6 7 7 8 11 9 8 10 10 11 9 12 12 13 14 14
REMARK SMILES IDX 13 15
REMARK H PARENT 3 5
REMARK Flexibility Score: inf
ROOT
ATOM      1  C   UNL     1       4.759   1.857   0.722  1.00  0.00     0.127 C 
ENDROOT
BRANCH   1   2
ATOM      2  C   UNL     1       4.420   1.133   1.937  1.00  0.00     0.303 C 
ATOM      3  O   UNL     1       5.124   0.283   2.486  1.00  0.00    -0.252 OA
BRANCH   2   4
ATOM      4  O   UNL     1       3.186   1.425   2.538  1.00  0.00    -0.481 OA
ATOM      5  H   UNL     1       2.527   1.941   1.974  1.00  0.00     0.296 HD
ENDBRANCH   2   4
ENDBRANCH   1   2
BRANCH   1   6
ATOM      6  C   UNL     1       6.196   2.186   0.601  1.00  0.00     0.047 C 
BRANCH   6   7
ATOM      7  C   UNL     1       7.030   1.292  -0.206  1.00  0.00    -0.043 A 
ATOM      8  C   UNL     1       8.381   1.536  -0.394  1.00  0.00     0.008 A 
ATOM      9  C   UNL     1       6.486   0.203  -0.833  1.00  0.00     0.054 A 
ATOM     10  C   UNL     1       9.159   0.717  -1.182  1.00  0.00     0.051 A 
ATOM     11  C   UNL     1       7.247  -0.633  -1.627  1.00  0.00     0.166 A 
ATOM     12  C   UNL     1       8.586  -0.380  -1.804  1.00  0.00     0.165 A 
ATOM     13  O   UNL     1       6.917  -1.770  -2.345  1.00  0.00    -0.454 OA
ATOM     14  O   UNL     1       9.077  -1.380  -2.644  1.00  0.00    -0.454 OA
ATOM     15  C   UNL     1       8.001  -2.067  -3.239  1.00  0.00     0.468 C 
ENDBRANCH   6   7
ENDBRANCH   1   6
TORSDOF 4
ENDMDL
MODEL 3
REMARK VINA RESULT:      -7.5      1.965      2.882
REMARK SMILES O=C(O)CCc1ccc2c(c1)OCO2
REMARK SMILES IDX 4 1 2 2 1 3 3 4 5 6 6 7 7 8 11 9 8 10 10 11 9 12 12 13 14 14
REMARK SMILES IDX 13 15
REMARK H PARENT 3 5
REMARK Flexibility Score: inf
ROOT
ATOM      1  C   UNL     1       6.401   1.326   0.598  1.00  0.00     0.127 C 
ENDROOT
BRANCH   1   2
ATOM      2  C   UNL     1       5.205   1.307   1.425  1.00  0.00     0.303 C 
ATOM      3  O   UNL     1       4.271   2.109   1.355  1.00  0.00    -0.252 OA
BRANCH   2   4
ATOM      4  O   UNL     1       5.102   0.290   2.387  1.00  0.00    -0.481 OA
ATOM      5  H   UNL     1       5.649   0.414   3.226  1.00  0.00     0.296 HD
ENDBRANCH   2   4
ENDBRANCH   1   2
BRANCH   1   6
ATOM      6  C   UNL     1       6.189   0.822  -0.776  1.00  0.00     0.047 C 
BRANCH   6   7
ATOM      7  C   UNL     1       6.950  -0.360  -1.188  1.00  0.00    -0.043 A 
ATOM      8  C   UNL     1       7.235  -0.609  -2.522  1.00  0.00     0.008 A 
ATOM      9  C   UNL     1       7.370  -1.280  -0.265  1.00  0.00     0.054 A 
ATOM     10  C   UNL     1       7.919  -1.738  -2.915  1.00  0.00     0.051 A 
ATOM     11  C   UNL     1       8.059  -2.419  -0.636  1.00  0.00     0.166 A 
ATOM     12  C   UNL     1       8.335  -2.652  -1.961  1.00  0.00     0.165 A 
ATOM     13  O   UNL     1       8.572  -3.466   0.110  1.00  0.00    -0.454 OA
ATOM     14  O   UNL     1       9.029  -3.862  -2.021  1.00  0.00    -0.454 OA
ATOM     15  C   UNL     1       8.912  -4.533  -0.788  1.00  0.00     0.468 C 
ENDBRANCH   6   7
ENDBRANCH   1   6
TORSDOF 4
ENDMDL
MODEL 4
REMARK VINA RESULT:      -7.4      1.788      5.287
REMARK SMILES O=C(O)CCc1ccc2c(c1)OCO2
REMARK SMILES IDX 4 1 2 2 1 3 3 4 5 6 6 7 7 8 11 9 8 10 10 11 9 12 12 13 14 14
REMARK SMILES IDX 13 15
REMARK H PARENT 3 5
REMARK Flexibility Score: inf
ROOT
ATOM      1  C   UNL     1       8.314  -0.324  -2.853  1.00  0.00     0.127 C 
ENDROOT
BRANCH   1   2
ATOM      2  C   UNL     1       8.476  -1.753  -3.071  1.00  0.00     0.303 C 
ATOM      3  O   UNL     1       9.543  -2.367  -3.037  1.00  0.00    -0.252 OA
BRANCH   2   4
ATOM      4  O   UNL     1       7.318  -2.499  -3.344  1.00  0.00    -0.481 OA
ATOM      5  H   UNL     1       6.878  -2.944  -2.554  1.00  0.00     0.296 HD
ENDBRANCH   2   4
ENDBRANCH   1   2
BRANCH   1   6
ATOM      6  C   UNL     1       8.764   0.134  -1.521  1.00  0.00     0.047 C 
BRANCH   6   7
ATOM      7  C   UNL     1       7.791   0.096  -0.427  1.00  0.00    -0.043 A 
ATOM      8  C   UNL     1       7.734  -0.972   0.454  1.00  0.00     0.008 A 
ATOM      9  C   UNL     1       6.878   1.104  -0.266  1.00  0.00     0.054 A 
ATOM     10  C   UNL     1       6.796  -1.027   1.462  1.00  0.00     0.051 A 
ATOM     11  C   UNL     1       5.929   1.071   0.738  1.00  0.00     0.166 A 
ATOM     12  C   UNL     1       5.885   0.006   1.605  1.00  0.00     0.165 A 
ATOM     13  O   UNL     1       4.926   1.960   1.084  1.00  0.00    -0.454 OA
ATOM     14  O   UNL     1       4.837   0.253   2.493  1.00  0.00    -0.454 OA
ATOM     15  C   UNL     1       4.036   1.300   1.996  1.00  0.00     0.468 C 
ENDBRANCH   6   7
ENDBRANCH   1   6
TORSDOF 4
ENDMDL
MODEL 5
REMARK VINA RESULT:      -7.4      0.973      2.106
REMARK SMILES O=C(O)CCc1ccc2c(c1)OCO2
REMARK SMILES IDX 4 1 2 2 1 3 3 4 5 6 6 7 7 8 11 9 8 10 10 11 9 12 12 13 14 14
REMARK SMILES IDX 13 15
REMARK H PARENT 3 5
REMARK Flexibility Score: inf
ROOT
ATOM      1  C   UNL     1       5.575   2.678   0.061  1.00  0.00     0.127 C 
ENDROOT
BRANCH   1   2
ATOM      2  C   UNL     1       6.205   3.693   0.890  1.00  0.00     0.303 C 
ATOM      3  O   UNL     1       6.226   3.701   2.123  1.00  0.00    -0.252 OA
BRANCH   2   4
ATOM      4  O   UNL     1       6.845   4.756   0.234  1.00  0.00    -0.481 OA
ATOM      5  H   UNL     1       7.781   4.577  -0.096  1.00  0.00     0.296 HD
ENDBRANCH   2   4
ENDBRANCH   1   2
BRANCH   1   6
ATOM      6  C   UNL     1       5.551   1.332   0.674  1.00  0.00     0.047 C 
BRANCH   6   7
ATOM      7  C   UNL     1       6.339   0.280   0.028  1.00  0.00    -0.043 A 
ATOM      8  C   UNL     1       6.443   0.197  -1.352  1.00  0.00     0.008 A 
ATOM      9  C   UNL     1       6.967  -0.682   0.773  1.00  0.00     0.054 A 
ATOM     10  C   UNL     1       7.153  -0.814  -1.962  1.00  0.00     0.051 A 
ATOM     11  C   UNL     1       7.686  -1.705   0.183  1.00  0.00     0.166 A 
ATOM     12  C   UNL     1       7.782  -1.774  -1.186  1.00  0.00     0.165 A 
ATOM     13  O   UNL     1       8.390  -2.765   0.726  1.00  0.00    -0.454 OA
ATOM     14  O   UNL     1       8.557  -2.897  -1.479  1.00  0.00    -0.454 OA
ATOM     15  C   UNL     1       8.681  -3.697  -0.326  1.00  0.00     0.468 C 
ENDBRANCH   6   7
ENDBRANCH   1   6
TORSDOF 4
ENDMDL
