@<TRIPOS>MOLECULE
/home/cewinharhar/GITHUB/reincatalyze/data/processed/docking_pred/2023-May-17-1006_maxeplen10_maxtrainstep1000_seadep16_gamma099_lrac9e-4_lrcr1e-3_sub6/dcca543849eb83a4cf97fda16a0578d2b97a91da_ligand_6.pdbqt
 15 16 0 0 0
SMALL
GASTEIGER

@<TRIPOS>ATOM
      1  C          8.3140   -0.3240   -2.8530 C.3     1  UNL1        0.1270
      2  C          8.4760   -1.7530   -3.0710 C.2     1  UNL1        0.3030
      3  O          9.5430   -2.3670   -3.0370 O.2     1  UNL1       -0.2520
      4  O          7.3180   -2.4990   -3.3440 O.3     1  UNL1       -0.4810
      5  H          6.8780   -2.9440   -2.5540 H       1  UNL1        0.2960
      6  C          8.7640    0.1340   -1.5210 C.3     1  UNL1        0.0470
      7  C          7.7910    0.0960   -0.4270 C.2     1  UNL1       -0.0430
      8  C          7.7340   -0.9720    0.4540 C.2     1  UNL1        0.0080
      9  C          6.8780    1.1040   -0.2660 C.2     1  UNL1        0.0540
     10  C          6.7960   -1.0270    1.4620 C.2     1  UNL1        0.0510
     11  C          5.9290    1.0710    0.7380 C.2     1  UNL1        0.1660
     12  C          5.8850    0.0060    1.6050 C.2     1  UNL1        0.1650
     13  O          4.9260    1.9600    1.0840 O.2     1  UNL1       -0.4540
     14  O          4.8370    0.2530    2.4930 O.2     1  UNL1       -0.4540
     15  C          4.0360    1.3000    1.9960 C.3     1  UNL1        0.4680
@<TRIPOS>BOND
     1     4     2    1
     2     4     5    1
     3     2     3    2
     4     2     1    1
     5     1     6    1
     6     6     7    1
     7     7     9    2
     8     7     8    1
     9     9    11    1
    10     8    10    2
    11    11    13    1
    12    11    12    2
    13    13    15    1
    14    10    12    1
    15    12    14    1
    16    15    14    1
