@<TRIPOS>MOLECULE
/home/cewinharhar/GITHUB/reincatalyze/data/processed/docking_pred/2023-May-17-1006_maxeplen10_maxtrainstep1000_seadep16_gamma099_lrac9e-4_lrcr1e-3_sub6/dd626561b0241c753f5aa586a778cbbb50e2da15_ligand_6.pdbqt
 15 16 0 0 0
SMALL
GASTEIGER

@<TRIPOS>ATOM
      1  C          5.4180    2.7360    0.1740 C.3     1  UNL1        0.1270
      2  C          6.1190    3.7730    0.9150 C.2     1  UNL1        0.3030
      3  O          6.1000    3.9170    2.1390 O.2     1  UNL1       -0.2520
      4  O          6.8820    4.6900    0.1750 O.3     1  UNL1       -0.4810
      5  H          7.8240    4.8490    0.4990 H       1  UNL1        0.2960
      6  C          5.4530    1.4080    0.8220 C.3     1  UNL1        0.0470
      7  C          6.2710    0.3690    0.1930 C.2     1  UNL1       -0.0430
      8  C          6.5180    0.3670   -1.1710 C.2     1  UNL1        0.0080
      9  C          6.7880   -0.6600    0.9350 C.2     1  UNL1        0.0540
     10  C          7.2580   -0.6290   -1.7690 C.2     1  UNL1        0.0510
     11  C          7.5330   -1.6700    0.3570 C.2     1  UNL1        0.1660
     12  C          7.7710   -1.6580   -0.9960 C.2     1  UNL1        0.1650
     13  O          8.1430   -2.7880    0.8990 O.2     1  UNL1       -0.4540
     14  O          8.5390   -2.7890   -1.2810 O.2     1  UNL1       -0.4540
     15  C          8.5150   -3.6630   -0.1760 C.3     1  UNL1        0.4680
@<TRIPOS>BOND
     1    10     8    1
     2    10    12    2
     3    14    12    1
     4    14    15    1
     5     8     7    2
     6    12    11    1
     7    15    13    1
     8     1     6    1
     9     1     2    1
    10     4     5    1
    11     4     2    1
    12     7     6    1
    13     7     9    1
    14    11    13    1
    15    11     9    2
    16     2     3    2
