@<TRIPOS>MOLECULE
/home/cewinharhar/GITHUB/reincatalyze/data/processed/docking_pred/2023-May-17-1006_maxeplen10_maxtrainstep1000_seadep16_gamma099_lrac9e-4_lrcr1e-3_sub6/dd626561b0241c753f5aa586a778cbbb50e2da15_ligand_6.pdbqt
 15 16 0 0 0
SMALL
GASTEIGER

@<TRIPOS>ATOM
      1  C          5.4200    2.8710    0.1220 C.3     1  UNL1        0.1270
      2  C          6.2470    3.8560    0.8020 C.2     1  UNL1        0.3030
      3  O          6.8890    4.7540    0.2540 O.2     1  UNL1       -0.2520
      4  O          6.3220    3.7790    2.2010 O.3     1  UNL1       -0.4810
      5  H          5.5180    4.1140    2.7090 H       1  UNL1        0.2960
      6  C          5.3600    1.5630    0.8080 C.3     1  UNL1        0.0470
      7  C          6.1400    0.4630    0.2370 C.2     1  UNL1       -0.0430
      8  C          6.5960   -0.5860    1.0210 C.2     1  UNL1        0.0080
      9  C          6.4780    0.4590   -1.0900 C.2     1  UNL1        0.0540
     10  C          7.3610   -1.6020    0.4930 C.2     1  UNL1        0.0510
     11  C          7.2440   -0.5500   -1.6420 C.2     1  UNL1        0.1660
     12  C          7.6880   -1.5840   -0.8530 C.2     1  UNL1        0.1650
     13  O          7.6980   -0.7580   -2.9330 O.2     1  UNL1       -0.4540
     14  O          8.4250   -2.4340   -1.6790 O.2     1  UNL1       -0.4540
     15  C          8.7040   -1.7810   -2.8960 C.3     1  UNL1        0.4680
@<TRIPOS>BOND
     1    13    15    1
     2    13    11    1
     3    15    14    1
     4    14    12    1
     5    11     9    1
     6    11    12    2
     7     9     7    2
     8    12    10    1
     9     1     2    1
    10     1     6    1
    11     7     6    1
    12     7     8    1
    13     3     2    2
    14    10     8    2
    15     2     4    1
    16     4     5    1
