@<TRIPOS>MOLECULE
/home/cewinharhar/GITHUB/reincatalyze/data/processed/docking_pred/2023-May-17-1006_maxeplen10_maxtrainstep1000_seadep16_gamma099_lrac9e-4_lrcr1e-3_sub6/dd626561b0241c753f5aa586a778cbbb50e2da15_ligand_6.pdbqt
 15 16 0 0 0
SMALL
GASTEIGER

@<TRIPOS>ATOM
      1  C          4.6710    1.8410    0.6730 C.3     1  UNL1        0.1270
      2  C          4.3940    1.1470    1.9210 C.2     1  UNL1        0.3030
      3  O          5.1400    0.3350    2.4710 O.2     1  UNL1       -0.2520
      4  O          3.1730    1.4250    2.5550 O.3     1  UNL1       -0.4810
      5  H          3.1960    1.4750    3.5620 H       1  UNL1        0.2960
      6  C          6.0870    2.2330    0.5050 C.3     1  UNL1        0.0470
      7  C          6.9550    1.3280   -0.2520 C.2     1  UNL1       -0.0430
      8  C          8.3170    1.5580   -0.3680 C.2     1  UNL1        0.0080
      9  C          6.4350    0.2400   -0.9030 C.2     1  UNL1        0.0540
     10  C          9.1280    0.7280   -1.1100 C.2     1  UNL1        0.0510
     11  C          7.2300   -0.6070   -1.6520 C.2     1  UNL1        0.1660
     12  C          8.5780   -0.3660   -1.7580 C.2     1  UNL1        0.1650
     13  O          6.9290   -1.7440   -2.3810 O.2     1  UNL1       -0.4540
     14  O          9.1050   -1.3750   -2.5660 O.2     1  UNL1       -0.4540
     15  C          8.0550   -2.0550   -3.2140 C.3     1  UNL1        0.4680
@<TRIPOS>BOND
     1    15    14    1
     2    15    13    1
     3    14    12    1
     4    13    11    1
     5    12    11    2
     6    12    10    1
     7    11     9    1
     8    10     8    2
     9     9     7    2
    10     8     7    1
    11     7     6    1
    12     6     1    1
    13     1     2    1
    14     2     3    2
    15     2     4    1
    16     4     5    1
