@<TRIPOS>MOLECULE
/home/cewinharhar/GITHUB/reincatalyze/data/processed/docking_pred/2023-May-17-1006_maxeplen10_maxtrainstep1000_seadep16_gamma099_lrac9e-4_lrcr1e-3_sub6/dd626561b0241c753f5aa586a778cbbb50e2da15_ligand_6.pdbqt
 15 16 0 0 0
SMALL
GASTEIGER

@<TRIPOS>ATOM
      1  C          6.4290    1.2870    0.7500 C.3     1  UNL1        0.1270
      2  C          5.2480    1.1530    1.5890 C.2     1  UNL1        0.3030
      3  O          5.0830    0.3030    2.4660 O.2     1  UNL1       -0.2520
      4  O          4.2050    2.0710    1.3850 O.3     1  UNL1       -0.4810
      5  H          3.3020    1.6770    1.1690 H       1  UNL1        0.2960
      6  C          6.2340    0.8210   -0.6390 C.3     1  UNL1        0.0470
      7  C          6.9800   -0.3640   -1.0680 C.2     1  UNL1       -0.0430
      8  C          7.2640   -0.5980   -2.4040 C.2     1  UNL1        0.0080
      9  C          7.3880   -1.3020   -0.1560 C.2     1  UNL1        0.0540
     10  C          7.9340   -1.7300   -2.8120 C.2     1  UNL1        0.0510
     11  C          8.0620   -2.4450   -0.5420 C.2     1  UNL1        0.1660
     12  C          8.3380   -2.6630   -1.8710 C.2     1  UNL1        0.1650
     13  O          8.5610   -3.5080    0.1890 O.2     1  UNL1       -0.4540
     14  O          9.0160   -3.8800   -1.9470 O.2     1  UNL1       -0.4540
     15  C          8.8890   -4.5670   -0.7240 C.3     1  UNL1        0.4680
@<TRIPOS>BOND
     1    10     8    1
     2    10    12    2
     3     8     7    2
     4    14    12    1
     5    14    15    1
     6    12    11    1
     7     7     6    1
     8     7     9    1
     9    15    13    1
    10     6     1    1
    11    11     9    2
    12    11    13    1
    13     1     2    1
    14     5     4    1
    15     4     2    1
    16     2     3    2
