@<TRIPOS>MOLECULE
/home/cewinharhar/GITHUB/reincatalyze/data/processed/docking_pred/2023-May-17-1006_maxeplen10_maxtrainstep1000_seadep16_gamma099_lrac9e-4_lrcr1e-3_sub6/dd626561b0241c753f5aa586a778cbbb50e2da15_ligand_6.pdbqt
 15 16 0 0 0
SMALL
GASTEIGER

@<TRIPOS>ATOM
      1  C          8.2900   -0.3390   -2.8540 C.3     1  UNL1        0.1270
      2  C          8.4660   -1.7650   -3.0770 C.2     1  UNL1        0.3030
      3  O          9.5400   -2.3690   -3.0430 O.2     1  UNL1       -0.2520
      4  O          7.3160   -2.5210   -3.3530 O.3     1  UNL1       -0.4810
      5  H          7.3800   -3.5110   -3.1740 H       1  UNL1        0.2960
      6  C          8.7480    0.1230   -1.5270 C.3     1  UNL1        0.0470
      7  C          7.7830    0.0840   -0.4260 C.2     1  UNL1       -0.0430
      8  C          7.7430   -0.9770    0.4660 C.2     1  UNL1        0.0080
      9  C          6.8600    1.0830   -0.2690 C.2     1  UNL1        0.0540
     10  C          6.8130   -1.0320    1.4800 C.2     1  UNL1        0.0510
     11  C          5.9170    1.0490    0.7410 C.2     1  UNL1        0.1660
     12  C          5.8900   -0.0080    1.6190 C.2     1  UNL1        0.1650
     13  O          4.9070    1.9300    1.0850 O.2     1  UNL1       -0.4540
     14  O          4.8450    0.2350    2.5110 O.2     1  UNL1       -0.4540
     15  C          4.0290    1.2690    2.0090 C.3     1  UNL1        0.4680
@<TRIPOS>BOND
     1     4     5    1
     2     4     2    1
     3     2     3    2
     4     2     1    1
     5     1     6    1
     6     6     7    1
     7     7     9    2
     8     7     8    1
     9     9    11    1
    10     8    10    2
    11    11    13    1
    12    11    12    2
    13    13    15    1
    14    10    12    1
    15    12    14    1
    16    15    14    1
