@<TRIPOS>MOLECULE
/home/cewinharhar/GITHUB/reincatalyze/data/processed/docking_pred/2023-May-17-1006_maxeplen10_maxtrainstep1000_seadep16_gamma099_lrac9e-4_lrcr1e-3_sub6/ddb46e737fe602632681221f3e2121514b9159c3_ligand_6.pdbqt
 15 16 0 0 0
SMALL
GASTEIGER

@<TRIPOS>ATOM
      1  C          4.6930    1.8680    0.6960 C.3     1  UNL1        0.1270
      2  C          4.4070    1.1400    1.9220 C.2     1  UNL1        0.3030
      3  O          5.1480    0.3110    2.4530 O.2     1  UNL1       -0.2520
      4  O          3.1840    1.4030    2.5580 O.3     1  UNL1       -0.4810
      5  H          3.0310    2.3550    2.8530 H       1  UNL1        0.2960
      6  C          6.1150    2.2370    0.5340 C.3     1  UNL1        0.0470
      7  C          6.9680    1.3270   -0.2340 C.2     1  UNL1       -0.0430
      8  C          8.3320    1.5410   -0.3550 C.2     1  UNL1        0.0080
      9  C          6.4310    0.2520   -0.8920 C.2     1  UNL1        0.0540
     10  C          9.1290    0.7070   -1.1070 C.2     1  UNL1        0.0510
     11  C          7.2120   -0.5990   -1.6510 C.2     1  UNL1        0.1660
     12  C          8.5630   -0.3750   -1.7610 C.2     1  UNL1        0.1650
     13  O          6.8930   -1.7260   -2.3880 O.2     1  UNL1       -0.4540
     14  O          9.0730   -1.3840   -2.5800 O.2     1  UNL1       -0.4540
     15  C          8.0110   -2.0450   -3.2290 C.3     1  UNL1        0.4680
@<TRIPOS>BOND
     1    15    14    1
     2    15    13    1
     3    14    12    1
     4    13    11    1
     5    12    11    2
     6    12    10    1
     7    11     9    1
     8    10     8    2
     9     9     7    2
    10     8     7    1
    11     7     6    1
    12     6     1    1
    13     1     2    1
    14     2     3    2
    15     2     4    1
    16     4     5    1
