MODEL 1
REMARK VINA RESULT:      -7.6      0.000      0.000
REMARK SMILES O=C(O)CCc1ccc2c(c1)OCO2
REMARK SMILES IDX 4 1 2 2 1 3 3 4 5 6 6 7 7 8 11 9 8 10 10 11 9 12 12 13 14 14
REMARK SMILES IDX 13 15
REMARK H PARENT 3 5
REMARK Flexibility Score: inf
ROOT
ATOM      1  C   UNL     1       5.412   2.872   0.118  1.00  0.00     0.127 C 
ENDROOT
BRANCH   1   2
ATOM      2  C   UNL     1       6.235   3.857   0.803  1.00  0.00     0.303 C 
ATOM      3  O   UNL     1       6.897   4.743   0.259  1.00  0.00    -0.252 OA
BRANCH   2   4
ATOM      4  O   UNL     1       6.282   3.794   2.205  1.00  0.00    -0.481 OA
ATOM      5  H   UNL     1       7.201   3.782   2.620  1.00  0.00     0.296 HD
ENDBRANCH   2   4
ENDBRANCH   1   2
BRANCH   1   6
ATOM      6  C   UNL     1       5.345   1.564   0.804  1.00  0.00     0.047 C 
BRANCH   6   7
ATOM      7  C   UNL     1       6.120   0.460   0.235  1.00  0.00    -0.043 A 
ATOM      8  C   UNL     1       6.556  -0.598   1.017  1.00  0.00     0.008 A 
ATOM      9  C   UNL     1       6.473   0.461  -1.088  1.00  0.00     0.054 A 
ATOM     10  C   UNL     1       7.316  -1.619   0.491  1.00  0.00     0.051 A 
ATOM     11  C   UNL     1       7.234  -0.553  -1.638  1.00  0.00     0.166 A 
ATOM     12  C   UNL     1       7.658  -1.596  -0.851  1.00  0.00     0.165 A 
ATOM     13  O   UNL     1       7.700  -0.757  -2.925  1.00  0.00    -0.454 OA
ATOM     14  O   UNL     1       8.395  -2.448  -1.675  1.00  0.00    -0.454 OA
ATOM     15  C   UNL     1       8.695  -1.791  -2.884  1.00  0.00     0.468 C 
ENDBRANCH   6   7
ENDBRANCH   1   6
TORSDOF 4
ENDMDL
MODEL 2
REMARK VINA RESULT:      -7.6      2.131      2.516
REMARK SMILES O=C(O)CCc1ccc2c(c1)OCO2
REMARK SMILES IDX 4 1 2 2 1 3 3 4 5 6 6 7 7 8 11 9 8 10 10 11 9 12 12 13 14 14
REMARK SMILES IDX 13 15
REMARK H PARENT 3 5
REMARK Flexibility Score: inf
ROOT
ATOM      1  C   UNL     1       4.693   1.868   0.696  1.00  0.00     0.127 C 
ENDROOT
BRANCH   1   2
ATOM      2  C   UNL     1       4.407   1.140   1.922  1.00  0.00     0.303 C 
ATOM      3  O   UNL     1       5.148   0.311   2.453  1.00  0.00    -0.252 OA
BRANCH   2   4
ATOM      4  O   UNL     1       3.184   1.403   2.558  1.00  0.00    -0.481 OA
ATOM      5  H   UNL     1       3.031   2.355   2.853  1.00  0.00     0.296 HD
ENDBRANCH   2   4
ENDBRANCH   1   2
BRANCH   1   6
ATOM      6  C   UNL     1       6.115   2.237   0.534  1.00  0.00     0.047 C 
BRANCH   6   7
ATOM      7  C   UNL     1       6.968   1.327  -0.234  1.00  0.00    -0.043 A 
ATOM      8  C   UNL     1       8.332   1.541  -0.355  1.00  0.00     0.008 A 
ATOM      9  C   UNL     1       6.431   0.252  -0.892  1.00  0.00     0.054 A 
ATOM     10  C   UNL     1       9.129   0.707  -1.107  1.00  0.00     0.051 A 
ATOM     11  C   UNL     1       7.212  -0.599  -1.651  1.00  0.00     0.166 A 
ATOM     12  C   UNL     1       8.563  -0.375  -1.761  1.00  0.00     0.165 A 
ATOM     13  O   UNL     1       6.893  -1.726  -2.388  1.00  0.00    -0.454 OA
ATOM     14  O   UNL     1       9.073  -1.384  -2.580  1.00  0.00    -0.454 OA
ATOM     15  C   UNL     1       8.011  -2.045  -3.229  1.00  0.00     0.468 C 
ENDBRANCH   6   7
ENDBRANCH   1   6
TORSDOF 4
ENDMDL
MODEL 3
REMARK VINA RESULT:      -7.4      1.794      5.288
REMARK SMILES O=C(O)CCc1ccc2c(c1)OCO2
REMARK SMILES IDX 4 1 2 2 1 3 3 4 5 6 6 7 7 8 11 9 8 10 10 11 9 12 12 13 14 14
REMARK SMILES IDX 13 15
REMARK H PARENT 3 5
REMARK Flexibility Score: inf
ROOT
ATOM      1  C   UNL     1       8.293  -0.324  -2.843  1.00  0.00     0.127 C 
ENDROOT
BRANCH   1   2
ATOM      2  C   UNL     1       8.464  -1.752  -3.059  1.00  0.00     0.303 C 
ATOM      3  O   UNL     1       9.534  -2.363  -3.006  1.00  0.00    -0.252 OA
BRANCH   2   4
ATOM      4  O   UNL     1       7.315  -2.501  -3.355  1.00  0.00    -0.481 OA
ATOM      5  H   UNL     1       6.496  -1.975  -3.620  1.00  0.00     0.296 HD
ENDBRANCH   2   4
ENDBRANCH   1   2
BRANCH   1   6
ATOM      6  C   UNL     1       8.749   0.141  -1.515  1.00  0.00     0.047 C 
BRANCH   6   7
ATOM      7  C   UNL     1       7.781   0.110  -0.418  1.00  0.00    -0.043 A 
ATOM      8  C   UNL     1       7.739  -0.944   0.482  1.00  0.00     0.008 A 
ATOM      9  C   UNL     1       6.856   1.110  -0.271  1.00  0.00     0.054 A 
ATOM     10  C   UNL     1       6.805  -0.992   1.493  1.00  0.00     0.051 A 
ATOM     11  C   UNL     1       5.910   1.083   0.736  1.00  0.00     0.166 A 
ATOM     12  C   UNL     1       5.881   0.033   1.622  1.00  0.00     0.165 A 
ATOM     13  O   UNL     1       4.899   1.966   1.071  1.00  0.00    -0.454 OA
ATOM     14  O   UNL     1       4.833   0.283   2.509  1.00  0.00    -0.454 OA
ATOM     15  C   UNL     1       4.019   1.312   1.997  1.00  0.00     0.468 C 
ENDBRANCH   6   7
ENDBRANCH   1   6
TORSDOF 4
ENDMDL
MODEL 4
REMARK VINA RESULT:      -7.4      1.962      2.861
REMARK SMILES O=C(O)CCc1ccc2c(c1)OCO2
REMARK SMILES IDX 4 1 2 2 1 3 3 4 5 6 6 7 7 8 11 9 8 10 10 11 9 12 12 13 14 14
REMARK SMILES IDX 13 15
REMARK H PARENT 3 5
REMARK Flexibility Score: inf
ROOT
ATOM      1  C   UNL     1       6.412   1.351   0.693  1.00  0.00     0.127 C 
ENDROOT
BRANCH   1   2
ATOM      2  C   UNL     1       5.204   1.303   1.502  1.00  0.00     0.303 C 
ATOM      3  O   UNL     1       4.251   2.078   1.413  1.00  0.00    -0.252 OA
BRANCH   2   4
ATOM      4  O   UNL     1       5.115   0.287   2.466  1.00  0.00    -0.481 OA
ATOM      5  H   UNL     1       4.206  -0.133   2.587  1.00  0.00     0.296 HD
ENDBRANCH   2   4
ENDBRANCH   1   2
BRANCH   1   6
ATOM      6  C   UNL     1       6.219   0.903  -0.702  1.00  0.00     0.047 C 
BRANCH   6   7
ATOM      7  C   UNL     1       6.974  -0.270  -1.148  1.00  0.00    -0.043 A 
ATOM      8  C   UNL     1       7.270  -0.475  -2.487  1.00  0.00     0.008 A 
ATOM      9  C   UNL     1       7.378  -1.224  -0.253  1.00  0.00     0.054 A 
ATOM     10  C   UNL     1       7.949  -1.596  -2.912  1.00  0.00     0.051 A 
ATOM     11  C   UNL     1       8.061  -2.356  -0.656  1.00  0.00     0.166 A 
ATOM     12  C   UNL     1       8.349  -2.546  -1.986  1.00  0.00     0.165 A 
ATOM     13  O   UNL     1       8.559  -3.432   0.058  1.00  0.00    -0.454 OA
ATOM     14  O   UNL     1       9.033  -3.758  -2.081  1.00  0.00    -0.454 OA
ATOM     15  C   UNL     1       8.899  -4.470  -0.873  1.00  0.00     0.468 C 
ENDBRANCH   6   7
ENDBRANCH   1   6
TORSDOF 4
ENDMDL
MODEL 5
REMARK VINA RESULT:      -7.4      0.936      2.102
REMARK SMILES O=C(O)CCc1ccc2c(c1)OCO2
REMARK SMILES IDX 4 1 2 2 1 3 3 4 5 6 6 7 7 8 11 9 8 10 10 11 9 12 12 13 14 14
REMARK SMILES IDX 13 15
REMARK H PARENT 3 5
REMARK Flexibility Score: inf
ROOT
ATOM      1  C   UNL     1       5.360   2.746   0.254  1.00  0.00     0.127 C 
ENDROOT
BRANCH   1   2
ATOM      2  C   UNL     1       6.182   3.709   0.971  1.00  0.00     0.303 C 
ATOM      3  O   UNL     1       6.343   3.747   2.192  1.00  0.00    -0.252 OA
BRANCH   2   4
ATOM      4  O   UNL     1       6.850   4.679   0.208  1.00  0.00    -0.481 OA
ATOM      5  H   UNL     1       7.781   4.921   0.511  1.00  0.00     0.296 HD
ENDBRANCH   2   4
ENDBRANCH   1   2
BRANCH   1   6
ATOM      6  C   UNL     1       5.365   1.393   0.849  1.00  0.00     0.047 C 
BRANCH   6   7
ATOM      7  C   UNL     1       6.189   0.371   0.199  1.00  0.00    -0.043 A 
ATOM      8  C   UNL     1       6.402   0.375  -1.171  1.00  0.00     0.008 A 
ATOM      9  C   UNL     1       6.745  -0.648   0.926  1.00  0.00     0.054 A 
ATOM     10  C   UNL     1       7.147  -0.605  -1.788  1.00  0.00     0.051 A 
ATOM     11  C   UNL     1       7.496  -1.642   0.329  1.00  0.00     0.166 A 
ATOM     12  C   UNL     1       7.700  -1.624  -1.030  1.00  0.00     0.165 A 
ATOM     13  O   UNL     1       8.142  -2.747   0.854  1.00  0.00    -0.454 OA
ATOM     14  O   UNL     1       8.483  -2.738  -1.335  1.00  0.00    -0.454 OA
ATOM     15  C   UNL     1       8.505  -3.614  -0.231  1.00  0.00     0.468 C 
ENDBRANCH   6   7
ENDBRANCH   1   6
TORSDOF 4
ENDMDL
