@<TRIPOS>MOLECULE
/home/cewinharhar/GITHUB/reincatalyze/data/processed/docking_pred/2023-May-17-1006_maxeplen10_maxtrainstep1000_seadep16_gamma099_lrac9e-4_lrcr1e-3_sub6/ddb46e737fe602632681221f3e2121514b9159c3_ligand_6.pdbqt
 15 16 0 0 0
SMALL
GASTEIGER

@<TRIPOS>ATOM
      1  C          5.4120    2.8720    0.1180 C.3     1  UNL1        0.1270
      2  C          6.2350    3.8570    0.8030 C.2     1  UNL1        0.3030
      3  O          6.8970    4.7430    0.2590 O.2     1  UNL1       -0.2520
      4  O          6.2820    3.7940    2.2050 O.3     1  UNL1       -0.4810
      5  H          7.2010    3.7820    2.6200 H       1  UNL1        0.2960
      6  C          5.3450    1.5640    0.8040 C.3     1  UNL1        0.0470
      7  C          6.1200    0.4600    0.2350 C.2     1  UNL1       -0.0430
      8  C          6.5560   -0.5980    1.0170 C.2     1  UNL1        0.0080
      9  C          6.4730    0.4610   -1.0880 C.2     1  UNL1        0.0540
     10  C          7.3160   -1.6190    0.4910 C.2     1  UNL1        0.0510
     11  C          7.2340   -0.5530   -1.6380 C.2     1  UNL1        0.1660
     12  C          7.6580   -1.5960   -0.8510 C.2     1  UNL1        0.1650
     13  O          7.7000   -0.7570   -2.9250 O.2     1  UNL1       -0.4540
     14  O          8.3950   -2.4480   -1.6750 O.2     1  UNL1       -0.4540
     15  C          8.6950   -1.7910   -2.8840 C.3     1  UNL1        0.4680
@<TRIPOS>BOND
     1    13    15    1
     2    13    11    1
     3    15    14    1
     4    14    12    1
     5    11     9    1
     6    11    12    2
     7     9     7    2
     8    12    10    1
     9     1     2    1
    10     1     6    1
    11     7     6    1
    12     7     8    1
    13     3     2    2
    14    10     8    2
    15     2     4    1
    16     4     5    1
