@<TRIPOS>MOLECULE
/home/cewinharhar/GITHUB/reincatalyze/data/processed/docking_pred/2023-May-17-1006_maxeplen10_maxtrainstep1000_seadep16_gamma099_lrac9e-4_lrcr1e-3_sub6/ddb46e737fe602632681221f3e2121514b9159c3_ligand_6.pdbqt
 15 16 0 0 0
SMALL
GASTEIGER

@<TRIPOS>ATOM
      1  C          5.3600    2.7460    0.2540 C.3     1  UNL1        0.1270
      2  C          6.1820    3.7090    0.9710 C.2     1  UNL1        0.3030
      3  O          6.3430    3.7470    2.1920 O.2     1  UNL1       -0.2520
      4  O          6.8500    4.6790    0.2080 O.3     1  UNL1       -0.4810
      5  H          7.7810    4.9210    0.5110 H       1  UNL1        0.2960
      6  C          5.3650    1.3930    0.8490 C.3     1  UNL1        0.0470
      7  C          6.1890    0.3710    0.1990 C.2     1  UNL1       -0.0430
      8  C          6.4020    0.3750   -1.1710 C.2     1  UNL1        0.0080
      9  C          6.7450   -0.6480    0.9260 C.2     1  UNL1        0.0540
     10  C          7.1470   -0.6050   -1.7880 C.2     1  UNL1        0.0510
     11  C          7.4960   -1.6420    0.3290 C.2     1  UNL1        0.1660
     12  C          7.7000   -1.6240   -1.0300 C.2     1  UNL1        0.1650
     13  O          8.1420   -2.7470    0.8540 O.2     1  UNL1       -0.4540
     14  O          8.4830   -2.7380   -1.3350 O.2     1  UNL1       -0.4540
     15  C          8.5050   -3.6140   -0.2310 C.3     1  UNL1        0.4680
@<TRIPOS>BOND
     1    10     8    1
     2    10    12    2
     3    14    12    1
     4    14    15    1
     5     8     7    2
     6    12    11    1
     7    15    13    1
     8     7     6    1
     9     7     9    1
    10     4     5    1
    11     4     2    1
    12     1     6    1
    13     1     2    1
    14    11    13    1
    15    11     9    2
    16     2     3    2
