@<TRIPOS>MOLECULE
/home/cewinharhar/GITHUB/reincatalyze/data/processed/docking_pred/2023-May-17-1006_maxeplen10_maxtrainstep1000_seadep16_gamma099_lrac9e-4_lrcr1e-3_sub6/ddb46e737fe602632681221f3e2121514b9159c3_ligand_6.pdbqt
 15 16 0 0 0
SMALL
GASTEIGER

@<TRIPOS>ATOM
      1  C          6.4120    1.3510    0.6930 C.3     1  UNL1        0.1270
      2  C          5.2040    1.3030    1.5020 C.2     1  UNL1        0.3030
      3  O          4.2510    2.0780    1.4130 O.2     1  UNL1       -0.2520
      4  O          5.1150    0.2870    2.4660 O.3     1  UNL1       -0.4810
      5  H          4.2060   -0.1330    2.5870 H       1  UNL1        0.2960
      6  C          6.2190    0.9030   -0.7020 C.3     1  UNL1        0.0470
      7  C          6.9740   -0.2700   -1.1480 C.2     1  UNL1       -0.0430
      8  C          7.2700   -0.4750   -2.4870 C.2     1  UNL1        0.0080
      9  C          7.3780   -1.2240   -0.2530 C.2     1  UNL1        0.0540
     10  C          7.9490   -1.5960   -2.9120 C.2     1  UNL1        0.0510
     11  C          8.0610   -2.3560   -0.6560 C.2     1  UNL1        0.1660
     12  C          8.3490   -2.5460   -1.9860 C.2     1  UNL1        0.1650
     13  O          8.5590   -3.4320    0.0580 O.2     1  UNL1       -0.4540
     14  O          9.0330   -3.7580   -2.0810 O.2     1  UNL1       -0.4540
     15  C          8.8990   -4.4700   -0.8730 C.3     1  UNL1        0.4680
@<TRIPOS>BOND
     1    10     8    1
     2    10    12    2
     3     8     7    2
     4    14    12    1
     5    14    15    1
     6    12    11    1
     7     7     6    1
     8     7     9    1
     9    15    13    1
    10     6     1    1
    11    11     9    2
    12    11    13    1
    13     1     2    1
    14     3     2    2
    15     2     4    1
    16     4     5    1
