@<TRIPOS>MOLECULE
/home/cewinharhar/GITHUB/reincatalyze/data/processed/docking_pred/2023-May-17-1006_maxeplen10_maxtrainstep1000_seadep16_gamma099_lrac9e-4_lrcr1e-3_sub6/ddb46e737fe602632681221f3e2121514b9159c3_ligand_6.pdbqt
 15 16 0 0 0
SMALL
GASTEIGER

@<TRIPOS>ATOM
      1  C          8.2930   -0.3240   -2.8430 C.3     1  UNL1        0.1270
      2  C          8.4640   -1.7520   -3.0590 C.2     1  UNL1        0.3030
      3  O          9.5340   -2.3630   -3.0060 O.2     1  UNL1       -0.2520
      4  O          7.3150   -2.5010   -3.3550 O.3     1  UNL1       -0.4810
      5  H          6.4960   -1.9750   -3.6200 H       1  UNL1        0.2960
      6  C          8.7490    0.1410   -1.5150 C.3     1  UNL1        0.0470
      7  C          7.7810    0.1100   -0.4180 C.2     1  UNL1       -0.0430
      8  C          7.7390   -0.9440    0.4820 C.2     1  UNL1        0.0080
      9  C          6.8560    1.1100   -0.2710 C.2     1  UNL1        0.0540
     10  C          6.8050   -0.9920    1.4930 C.2     1  UNL1        0.0510
     11  C          5.9100    1.0830    0.7360 C.2     1  UNL1        0.1660
     12  C          5.8810    0.0330    1.6220 C.2     1  UNL1        0.1650
     13  O          4.8990    1.9660    1.0710 O.2     1  UNL1       -0.4540
     14  O          4.8330    0.2830    2.5090 O.2     1  UNL1       -0.4540
     15  C          4.0190    1.3120    1.9970 C.3     1  UNL1        0.4680
@<TRIPOS>BOND
     1     5     4    1
     2     4     2    1
     3     2     3    2
     4     2     1    1
     5     1     6    1
     6     6     7    1
     7     7     9    2
     8     7     8    1
     9     9    11    1
    10     8    10    2
    11    11    13    1
    12    11    12    2
    13    13    15    1
    14    10    12    1
    15    12    14    1
    16    15    14    1
