@<TRIPOS>MOLECULE
/home/cewinharhar/GITHUB/reincatalyze/data/processed/docking_pred/2023-May-17-1006_maxeplen10_maxtrainstep1000_seadep16_gamma099_lrac9e-4_lrcr1e-3_sub6/de552809cd3cf8423e47c41d2ed627091c55f56d_ligand_6.pdbqt
 15 16 0 0 0
SMALL
GASTEIGER

@<TRIPOS>ATOM
      1  C          5.4500    2.7680    0.0220 C.3     1  UNL1        0.1270
      2  C          6.1480    3.7260    0.8650 C.2     1  UNL1        0.3030
      3  O          6.1970    3.6960    2.0960 O.2     1  UNL1       -0.2520
      4  O          6.8260    4.7750    0.2240 O.3     1  UNL1       -0.4810
      5  H          6.3050    5.6280    0.0940 H       1  UNL1        0.2960
      6  C          5.3640    1.4100    0.6010 C.3     1  UNL1        0.0470
      7  C          6.2210    0.3720    0.0240 C.2     1  UNL1       -0.0430
      8  C          6.5060    0.3390   -1.3320 C.2     1  UNL1        0.0080
      9  C          6.7370   -0.6250    0.8080 C.2     1  UNL1        0.0540
     10  C          7.2820   -0.6570   -1.8820 C.2     1  UNL1        0.0510
     11  C          7.5180   -1.6350    0.2780 C.2     1  UNL1        0.1660
     12  C          7.7940   -1.6540   -1.0680 C.2     1  UNL1        0.1650
     13  O          8.1350   -2.7240    0.8670 O.2     1  UNL1       -0.4540
     14  O          8.5920   -2.7750   -1.3000 O.2     1  UNL1       -0.4540
     15  C          8.5550   -3.6200   -0.1730 C.3     1  UNL1        0.4680
@<TRIPOS>BOND
     1    10     8    1
     2    10    12    2
     3     8     7    2
     4    14    12    1
     5    14    15    1
     6    12    11    1
     7    15    13    1
     8     1     6    1
     9     1     2    1
    10     7     6    1
    11     7     9    1
    12     5     4    1
    13     4     2    1
    14    11     9    2
    15    11    13    1
    16     2     3    2
