@<TRIPOS>MOLECULE
/home/cewinharhar/GITHUB/reincatalyze/data/processed/docking_pred/2023-May-17-1006_maxeplen10_maxtrainstep1000_seadep16_gamma099_lrac9e-4_lrcr1e-3_sub6/de552809cd3cf8423e47c41d2ed627091c55f56d_ligand_6.pdbqt
 15 16 0 0 0
SMALL
GASTEIGER

@<TRIPOS>ATOM
      1  C          8.3130   -0.3230   -2.8440 C.3     1  UNL1        0.1270
      2  C          8.4730   -1.7510   -3.0720 C.2     1  UNL1        0.3030
      3  O          9.5410   -2.3660   -3.0440 O.2     1  UNL1       -0.2520
      4  O          7.3150   -2.4930   -3.3470 O.3     1  UNL1       -0.4810
      5  H          6.9400   -3.0330   -2.5830 H       1  UNL1        0.2960
      6  C          8.7670    0.1270   -1.5100 C.3     1  UNL1        0.0470
      7  C          7.7940    0.0900   -0.4160 C.2     1  UNL1       -0.0430
      8  C          7.7350   -0.9770    0.4660 C.2     1  UNL1        0.0080
      9  C          6.8820    1.1000   -0.2570 C.2     1  UNL1        0.0540
     10  C          6.7970   -1.0290    1.4730 C.2     1  UNL1        0.0510
     11  C          5.9320    1.0690    0.7470 C.2     1  UNL1        0.1660
     12  C          5.8860    0.0050    1.6150 C.2     1  UNL1        0.1650
     13  O          4.9310    1.9600    1.0920 O.2     1  UNL1       -0.4540
     14  O          4.8390    0.2540    2.5030 O.2     1  UNL1       -0.4540
     15  C          4.0390    1.3020    2.0050 C.3     1  UNL1        0.4680
@<TRIPOS>BOND
     1     4     2    1
     2     4     5    1
     3     2     3    2
     4     2     1    1
     5     1     6    1
     6     6     7    1
     7     7     9    2
     8     7     8    1
     9     9    11    1
    10     8    10    2
    11    11    13    1
    12    11    12    2
    13    13    15    1
    14    10    12    1
    15    12    14    1
    16    15    14    1
