@<TRIPOS>MOLECULE
/home/cewinharhar/GITHUB/reincatalyze/data/processed/docking_pred/2023-May-17-1006_maxeplen10_maxtrainstep1000_seadep16_gamma099_lrac9e-4_lrcr1e-3_sub6/de552809cd3cf8423e47c41d2ed627091c55f56d_ligand_6.pdbqt
 15 16 0 0 0
SMALL
GASTEIGER

@<TRIPOS>ATOM
      1  C          4.6940    1.8690    0.6940 C.3     1  UNL1        0.1270
      2  C          4.4080    1.1420    1.9210 C.2     1  UNL1        0.3030
      3  O          5.1490    0.3120    2.4520 O.2     1  UNL1       -0.2520
      4  O          3.1850    1.4070    2.5570 O.3     1  UNL1       -0.4810
      5  H          3.2330    1.6300    3.5390 H       1  UNL1        0.2960
      6  C          6.1170    2.2370    0.5320 C.3     1  UNL1        0.0470
      7  C          6.9690    1.3270   -0.2370 C.2     1  UNL1       -0.0430
      8  C          8.3330    1.5410   -0.3580 C.2     1  UNL1        0.0080
      9  C          6.4310    0.2530   -0.8950 C.2     1  UNL1        0.0540
     10  C          9.1290    0.7060   -1.1100 C.2     1  UNL1        0.0510
     11  C          7.2110   -0.5980   -1.6550 C.2     1  UNL1        0.1660
     12  C          8.5620   -0.3750   -1.7650 C.2     1  UNL1        0.1650
     13  O          6.8910   -1.7240   -2.3920 O.2     1  UNL1       -0.4540
     14  O          9.0720   -1.3830   -2.5840 O.2     1  UNL1       -0.4540
     15  C          8.0100   -2.0430   -3.2340 C.3     1  UNL1        0.4680
@<TRIPOS>BOND
     1    15    14    1
     2    15    13    1
     3    14    12    1
     4    13    11    1
     5    12    11    2
     6    12    10    1
     7    11     9    1
     8    10     8    2
     9     9     7    2
    10     8     7    1
    11     7     6    1
    12     6     1    1
    13     1     2    1
    14     2     3    2
    15     2     4    1
    16     4     5    1
