MODEL 1
REMARK VINA RESULT:      -7.6      0.000      0.000
REMARK SMILES O=C(O)CCc1ccc2c(c1)OCO2
REMARK SMILES IDX 4 1 2 2 1 3 3 4 5 6 6 7 7 8 11 9 8 10 10 11 9 12 12 13 14 14
REMARK SMILES IDX 13 15
REMARK H PARENT 3 5
REMARK Flexibility Score: inf
ROOT
ATOM      1  C   UNL     1       5.426   2.870   0.115  1.00  0.00     0.127 C 
ENDROOT
BRANCH   1   2
ATOM      2  C   UNL     1       6.254   3.850   0.800  1.00  0.00     0.303 C 
ATOM      3  O   UNL     1       6.920   4.732   0.255  1.00  0.00    -0.252 OA
BRANCH   2   4
ATOM      4  O   UNL     1       6.300   3.788   2.201  1.00  0.00    -0.481 OA
ATOM      5  H   UNL     1       7.215   3.684   2.612  1.00  0.00     0.296 HD
ENDBRANCH   2   4
ENDBRANCH   1   2
BRANCH   1   6
ATOM      6  C   UNL     1       5.359   1.559   0.796  1.00  0.00     0.047 C 
BRANCH   6   7
ATOM      7  C   UNL     1       6.132   0.456   0.222  1.00  0.00    -0.043 A 
ATOM      8  C   UNL     1       6.563  -0.608   0.998  1.00  0.00     0.008 A 
ATOM      9  C   UNL     1       6.487   0.465  -1.101  1.00  0.00     0.054 A 
ATOM     10  C   UNL     1       7.322  -1.628   0.467  1.00  0.00     0.051 A 
ATOM     11  C   UNL     1       7.247  -0.548  -1.656  1.00  0.00     0.166 A 
ATOM     12  C   UNL     1       7.666  -1.597  -0.875  1.00  0.00     0.165 A 
ATOM     13  O   UNL     1       7.715  -0.745  -2.943  1.00  0.00    -0.454 OA
ATOM     14  O   UNL     1       8.403  -2.447  -1.702  1.00  0.00    -0.454 OA
ATOM     15  C   UNL     1       8.707  -1.782  -2.906  1.00  0.00     0.468 C 
ENDBRANCH   6   7
ENDBRANCH   1   6
TORSDOF 4
ENDMDL
MODEL 2
REMARK VINA RESULT:      -7.6      2.128      2.515
REMARK SMILES O=C(O)CCc1ccc2c(c1)OCO2
REMARK SMILES IDX 4 1 2 2 1 3 3 4 5 6 6 7 7 8 11 9 8 10 10 11 9 12 12 13 14 14
REMARK SMILES IDX 13 15
REMARK H PARENT 3 5
REMARK Flexibility Score: inf
ROOT
ATOM      1  C   UNL     1       4.694   1.869   0.694  1.00  0.00     0.127 C 
ENDROOT
BRANCH   1   2
ATOM      2  C   UNL     1       4.408   1.142   1.921  1.00  0.00     0.303 C 
ATOM      3  O   UNL     1       5.149   0.312   2.452  1.00  0.00    -0.252 OA
BRANCH   2   4
ATOM      4  O   UNL     1       3.185   1.407   2.557  1.00  0.00    -0.481 OA
ATOM      5  H   UNL     1       3.233   1.630   3.539  1.00  0.00     0.296 HD
ENDBRANCH   2   4
ENDBRANCH   1   2
BRANCH   1   6
ATOM      6  C   UNL     1       6.117   2.237   0.532  1.00  0.00     0.047 C 
BRANCH   6   7
ATOM      7  C   UNL     1       6.969   1.327  -0.237  1.00  0.00    -0.043 A 
ATOM      8  C   UNL     1       8.333   1.541  -0.358  1.00  0.00     0.008 A 
ATOM      9  C   UNL     1       6.431   0.253  -0.895  1.00  0.00     0.054 A 
ATOM     10  C   UNL     1       9.129   0.706  -1.110  1.00  0.00     0.051 A 
ATOM     11  C   UNL     1       7.211  -0.598  -1.655  1.00  0.00     0.166 A 
ATOM     12  C   UNL     1       8.562  -0.375  -1.765  1.00  0.00     0.165 A 
ATOM     13  O   UNL     1       6.891  -1.724  -2.392  1.00  0.00    -0.454 OA
ATOM     14  O   UNL     1       9.072  -1.383  -2.584  1.00  0.00    -0.454 OA
ATOM     15  C   UNL     1       8.010  -2.043  -3.234  1.00  0.00     0.468 C 
ENDBRANCH   6   7
ENDBRANCH   1   6
TORSDOF 4
ENDMDL
MODEL 3
REMARK VINA RESULT:      -7.5      0.962      2.119
REMARK SMILES O=C(O)CCc1ccc2c(c1)OCO2
REMARK SMILES IDX 4 1 2 2 1 3 3 4 5 6 6 7 7 8 11 9 8 10 10 11 9 12 12 13 14 14
REMARK SMILES IDX 13 15
REMARK H PARENT 3 5
REMARK Flexibility Score: inf
ROOT
ATOM      1  C   UNL     1       5.450   2.768   0.022  1.00  0.00     0.127 C 
ENDROOT
BRANCH   1   2
ATOM      2  C   UNL     1       6.148   3.726   0.865  1.00  0.00     0.303 C 
ATOM      3  O   UNL     1       6.197   3.696   2.096  1.00  0.00    -0.252 OA
BRANCH   2   4
ATOM      4  O   UNL     1       6.826   4.775   0.224  1.00  0.00    -0.481 OA
ATOM      5  H   UNL     1       6.305   5.628   0.094  1.00  0.00     0.296 HD
ENDBRANCH   2   4
ENDBRANCH   1   2
BRANCH   1   6
ATOM      6  C   UNL     1       5.364   1.410   0.601  1.00  0.00     0.047 C 
BRANCH   6   7
ATOM      7  C   UNL     1       6.221   0.372   0.024  1.00  0.00    -0.043 A 
ATOM      8  C   UNL     1       6.506   0.339  -1.332  1.00  0.00     0.008 A 
ATOM      9  C   UNL     1       6.737  -0.625   0.808  1.00  0.00     0.054 A 
ATOM     10  C   UNL     1       7.282  -0.657  -1.882  1.00  0.00     0.051 A 
ATOM     11  C   UNL     1       7.518  -1.635   0.278  1.00  0.00     0.166 A 
ATOM     12  C   UNL     1       7.794  -1.654  -1.068  1.00  0.00     0.165 A 
ATOM     13  O   UNL     1       8.135  -2.724   0.867  1.00  0.00    -0.454 OA
ATOM     14  O   UNL     1       8.592  -2.775  -1.300  1.00  0.00    -0.454 OA
ATOM     15  C   UNL     1       8.555  -3.620  -0.173  1.00  0.00     0.468 C 
ENDBRANCH   6   7
ENDBRANCH   1   6
TORSDOF 4
ENDMDL
MODEL 4
REMARK VINA RESULT:      -7.5      1.994      2.964
REMARK SMILES O=C(O)CCc1ccc2c(c1)OCO2
REMARK SMILES IDX 4 1 2 2 1 3 3 4 5 6 6 7 7 8 11 9 8 10 10 11 9 12 12 13 14 14
REMARK SMILES IDX 13 15
REMARK H PARENT 3 5
REMARK Flexibility Score: inf
ROOT
ATOM      1  C   UNL     1       6.410   1.302   0.715  1.00  0.00     0.127 C 
ENDROOT
BRANCH   1   2
ATOM      2  C   UNL     1       5.270   1.113   1.598  1.00  0.00     0.303 C 
ATOM      3  O   UNL     1       5.159   0.226   2.446  1.00  0.00    -0.252 OA
BRANCH   2   4
ATOM      4  O   UNL     1       4.203   2.018   1.476  1.00  0.00    -0.481 OA
ATOM      5  H   UNL     1       3.436   1.891   2.118  1.00  0.00     0.296 HD
ENDBRANCH   2   4
ENDBRANCH   1   2
BRANCH   1   6
ATOM      6  C   UNL     1       6.179   0.838  -0.670  1.00  0.00     0.047 C 
BRANCH   6   7
ATOM      7  C   UNL     1       6.948  -0.318  -1.134  1.00  0.00    -0.043 A 
ATOM      8  C   UNL     1       7.247  -0.499  -2.476  1.00  0.00     0.008 A 
ATOM      9  C   UNL     1       7.364  -1.281  -0.254  1.00  0.00     0.054 A 
ATOM     10  C   UNL     1       7.939  -1.604  -2.918  1.00  0.00     0.051 A 
ATOM     11  C   UNL     1       8.061  -2.398  -0.675  1.00  0.00     0.166 A 
ATOM     12  C   UNL     1       8.351  -2.564  -2.008  1.00  0.00     0.165 A 
ATOM     13  O   UNL     1       8.572  -3.479   0.022  1.00  0.00    -0.454 OA
ATOM     14  O   UNL     1       9.050  -3.766  -2.122  1.00  0.00    -0.454 OA
ATOM     15  C   UNL     1       8.924  -4.499  -0.925  1.00  0.00     0.468 C 
ENDBRANCH   6   7
ENDBRANCH   1   6
TORSDOF 4
ENDMDL
MODEL 5
REMARK VINA RESULT:      -7.5      1.795      5.288
REMARK SMILES O=C(O)CCc1ccc2c(c1)OCO2
REMARK SMILES IDX 4 1 2 2 1 3 3 4 5 6 6 7 7 8 11 9 8 10 10 11 9 12 12 13 14 14
REMARK SMILES IDX 13 15
REMARK H PARENT 3 5
REMARK Flexibility Score: inf
ROOT
ATOM      1  C   UNL     1       8.313  -0.323  -2.844  1.00  0.00     0.127 C 
ENDROOT
BRANCH   1   2
ATOM      2  C   UNL     1       8.473  -1.751  -3.072  1.00  0.00     0.303 C 
ATOM      3  O   UNL     1       9.541  -2.366  -3.044  1.00  0.00    -0.252 OA
BRANCH   2   4
ATOM      4  O   UNL     1       7.315  -2.493  -3.347  1.00  0.00    -0.481 OA
ATOM      5  H   UNL     1       6.940  -3.033  -2.583  1.00  0.00     0.296 HD
ENDBRANCH   2   4
ENDBRANCH   1   2
BRANCH   1   6
ATOM      6  C   UNL     1       8.767   0.127  -1.510  1.00  0.00     0.047 C 
BRANCH   6   7
ATOM      7  C   UNL     1       7.794   0.090  -0.416  1.00  0.00    -0.043 A 
ATOM      8  C   UNL     1       7.735  -0.977   0.466  1.00  0.00     0.008 A 
ATOM      9  C   UNL     1       6.882   1.100  -0.257  1.00  0.00     0.054 A 
ATOM     10  C   UNL     1       6.797  -1.029   1.473  1.00  0.00     0.051 A 
ATOM     11  C   UNL     1       5.932   1.069   0.747  1.00  0.00     0.166 A 
ATOM     12  C   UNL     1       5.886   0.005   1.615  1.00  0.00     0.165 A 
ATOM     13  O   UNL     1       4.931   1.960   1.092  1.00  0.00    -0.454 OA
ATOM     14  O   UNL     1       4.839   0.254   2.503  1.00  0.00    -0.454 OA
ATOM     15  C   UNL     1       4.039   1.302   2.005  1.00  0.00     0.468 C 
ENDBRANCH   6   7
ENDBRANCH   1   6
TORSDOF 4
ENDMDL
