@<TRIPOS>MOLECULE
/home/cewinharhar/GITHUB/reincatalyze/data/processed/docking_pred/2023-May-17-1006_maxeplen10_maxtrainstep1000_seadep16_gamma099_lrac9e-4_lrcr1e-3_sub6/de552809cd3cf8423e47c41d2ed627091c55f56d_ligand_6.pdbqt
 15 16 0 0 0
SMALL
GASTEIGER

@<TRIPOS>ATOM
      1  C          5.4260    2.8700    0.1150 C.3     1  UNL1        0.1270
      2  C          6.2540    3.8500    0.8000 C.2     1  UNL1        0.3030
      3  O          6.9200    4.7320    0.2550 O.2     1  UNL1       -0.2520
      4  O          6.3000    3.7880    2.2010 O.3     1  UNL1       -0.4810
      5  H          7.2150    3.6840    2.6120 H       1  UNL1        0.2960
      6  C          5.3590    1.5590    0.7960 C.3     1  UNL1        0.0470
      7  C          6.1320    0.4560    0.2220 C.2     1  UNL1       -0.0430
      8  C          6.5630   -0.6080    0.9980 C.2     1  UNL1        0.0080
      9  C          6.4870    0.4650   -1.1010 C.2     1  UNL1        0.0540
     10  C          7.3220   -1.6280    0.4670 C.2     1  UNL1        0.0510
     11  C          7.2470   -0.5480   -1.6560 C.2     1  UNL1        0.1660
     12  C          7.6660   -1.5970   -0.8750 C.2     1  UNL1        0.1650
     13  O          7.7150   -0.7450   -2.9430 O.2     1  UNL1       -0.4540
     14  O          8.4030   -2.4470   -1.7020 O.2     1  UNL1       -0.4540
     15  C          8.7070   -1.7820   -2.9060 C.3     1  UNL1        0.4680
@<TRIPOS>BOND
     1    13    15    1
     2    13    11    1
     3    15    14    1
     4    14    12    1
     5    11     9    1
     6    11    12    2
     7     9     7    2
     8    12    10    1
     9     1     6    1
    10     1     2    1
    11     7     6    1
    12     7     8    1
    13     3     2    2
    14    10     8    2
    15     2     4    1
    16     4     5    1
