@<TRIPOS>MOLECULE
/home/cewinharhar/GITHUB/reincatalyze/data/processed/docking_pred/2023-May-17-1006_maxeplen10_maxtrainstep1000_seadep16_gamma099_lrac9e-4_lrcr1e-3_sub6/de552809cd3cf8423e47c41d2ed627091c55f56d_ligand_6.pdbqt
 15 16 0 0 0
SMALL
GASTEIGER

@<TRIPOS>ATOM
      1  C          6.4100    1.3020    0.7150 C.3     1  UNL1        0.1270
      2  C          5.2700    1.1130    1.5980 C.2     1  UNL1        0.3030
      3  O          5.1590    0.2260    2.4460 O.2     1  UNL1       -0.2520
      4  O          4.2030    2.0180    1.4760 O.3     1  UNL1       -0.4810
      5  H          3.4360    1.8910    2.1180 H       1  UNL1        0.2960
      6  C          6.1790    0.8380   -0.6700 C.3     1  UNL1        0.0470
      7  C          6.9480   -0.3180   -1.1340 C.2     1  UNL1       -0.0430
      8  C          7.2470   -0.4990   -2.4760 C.2     1  UNL1        0.0080
      9  C          7.3640   -1.2810   -0.2540 C.2     1  UNL1        0.0540
     10  C          7.9390   -1.6040   -2.9180 C.2     1  UNL1        0.0510
     11  C          8.0610   -2.3980   -0.6750 C.2     1  UNL1        0.1660
     12  C          8.3510   -2.5640   -2.0080 C.2     1  UNL1        0.1650
     13  O          8.5720   -3.4790    0.0220 O.2     1  UNL1       -0.4540
     14  O          9.0500   -3.7660   -2.1220 O.2     1  UNL1       -0.4540
     15  C          8.9240   -4.4990   -0.9250 C.3     1  UNL1        0.4680
@<TRIPOS>BOND
     1    10     8    1
     2    10    12    2
     3     8     7    2
     4    14    12    1
     5    14    15    1
     6    12    11    1
     7     7     6    1
     8     7     9    1
     9    15    13    1
    10    11     9    2
    11    11    13    1
    12     6     1    1
    13     1     2    1
    14     4     2    1
    15     4     5    1
    16     2     3    2
