@<TRIPOS>MOLECULE
/home/cewinharhar/GITHUB/reincatalyze/data/processed/docking_pred/2023-May-17-1006_maxeplen10_maxtrainstep1000_seadep16_gamma099_lrac9e-4_lrcr1e-3_sub6/dea2b8be3c05a7e32d8e1c0cb085cc688668c765_ligand_6.pdbqt
 15 16 0 0 0
SMALL
GASTEIGER

@<TRIPOS>ATOM
      1  C          8.3000   -0.3180   -2.8460 C.3     1  UNL1        0.1270
      2  C          8.4650   -1.7450   -3.0720 C.2     1  UNL1        0.3030
      3  O          9.5330   -2.3580   -3.0350 O.2     1  UNL1       -0.2520
      4  O          7.3100   -2.4910   -3.3550 O.3     1  UNL1       -0.4810
      5  H          6.8460   -2.9110   -2.5650 H       1  UNL1        0.2960
      6  C          8.7570    0.1370   -1.5160 C.3     1  UNL1        0.0470
      7  C          7.7890    0.0960   -0.4170 C.2     1  UNL1       -0.0430
      8  C          7.7450   -0.9680    0.4700 C.2     1  UNL1        0.0080
      9  C          6.8690    1.0980   -0.2570 C.2     1  UNL1        0.0540
     10  C          6.8120   -1.0250    1.4820 C.2     1  UNL1        0.0510
     11  C          5.9240    1.0620    0.7510 C.2     1  UNL1        0.1660
     12  C          5.8920    0.0020    1.6240 C.2     1  UNL1        0.1650
     13  O          4.9160    1.9450    1.0970 O.2     1  UNL1       -0.4540
     14  O          4.8460    0.2450    2.5150 O.2     1  UNL1       -0.4540
     15  C          4.0350    1.2830    2.0160 C.3     1  UNL1        0.4680
@<TRIPOS>BOND
     1     4     2    1
     2     4     5    1
     3     2     3    2
     4     2     1    1
     5     1     6    1
     6     6     7    1
     7     7     9    2
     8     7     8    1
     9     9    11    1
    10     8    10    2
    11    11    13    1
    12    11    12    2
    13    13    15    1
    14    10    12    1
    15    12    14    1
    16    15    14    1
