@<TRIPOS>MOLECULE
/home/cewinharhar/GITHUB/reincatalyze/data/processed/docking_pred/2023-May-17-1006_maxeplen10_maxtrainstep1000_seadep16_gamma099_lrac9e-4_lrcr1e-3_sub6/dea2b8be3c05a7e32d8e1c0cb085cc688668c765_ligand_6.pdbqt
 15 16 0 0 0
SMALL
GASTEIGER

@<TRIPOS>ATOM
      1  C          5.3850    2.7460    0.1450 C.3     1  UNL1        0.1270
      2  C          6.1270    3.7330    0.9140 C.2     1  UNL1        0.3030
      3  O          6.2230    3.7610    2.1420 O.2     1  UNL1       -0.2520
      4  O          6.7930    4.7400    0.1970 O.3     1  UNL1       -0.4810
      5  H          6.5730    4.8070   -0.7840 H       1  UNL1        0.2960
      6  C          5.3620    1.4010    0.7580 C.3     1  UNL1        0.0470
      7  C          6.2020    0.3660    0.1500 C.2     1  UNL1       -0.0430
      8  C          6.4530    0.3450   -1.2130 C.2     1  UNL1        0.0080
      9  C          6.7340   -0.6400    0.9120 C.2     1  UNL1        0.0540
     10  C          7.2120   -0.6480   -1.7910 C.2     1  UNL1        0.0510
     11  C          7.5000   -1.6470    0.3540 C.2     1  UNL1        0.1660
     12  C          7.7420   -1.6540   -0.9980 C.2     1  UNL1        0.1650
     13  O          8.1280   -2.7430    0.9180 O.2     1  UNL1       -0.4540
     14  O          8.5300   -2.7760   -1.2600 O.2     1  UNL1       -0.4540
     15  C          8.5190   -3.6310   -0.1410 C.3     1  UNL1        0.4680
@<TRIPOS>BOND
     1    10     8    1
     2    10    12    2
     3    14    12    1
     4    14    15    1
     5     8     7    2
     6    12    11    1
     7     5     4    1
     8    15    13    1
     9     1     6    1
    10     1     2    1
    11     7     6    1
    12     7     9    1
    13     4     2    1
    14    11     9    2
    15    11    13    1
    16     2     3    2
