@<TRIPOS>MOLECULE
/home/cewinharhar/GITHUB/reincatalyze/data/processed/docking_pred/2023-May-17-1006_maxeplen10_maxtrainstep1000_seadep16_gamma099_lrac9e-4_lrcr1e-3_sub6/dea2b8be3c05a7e32d8e1c0cb085cc688668c765_ligand_6.pdbqt
 15 16 0 0 0
SMALL
GASTEIGER

@<TRIPOS>ATOM
      1  C          6.4500    1.3590    0.6860 C.3     1  UNL1        0.1270
      2  C          5.2180    1.3600    1.4590 C.2     1  UNL1        0.3030
      3  O          4.2810    2.1470    1.3130 O.2     1  UNL1       -0.2520
      4  O          5.0820    0.3810    2.4550 O.3     1  UNL1       -0.4810
      5  H          4.1390    0.1670    2.7440 H       1  UNL1        0.2960
      6  C          6.2780    0.9320   -0.7190 C.3     1  UNL1        0.0470
      7  C          7.0140   -0.2540   -1.1610 C.2     1  UNL1       -0.0430
      8  C          7.3010   -0.4710   -2.5000 C.2     1  UNL1        0.0080
      9  C          7.4090   -1.2090   -0.2620 C.2     1  UNL1        0.0540
     10  C          7.9620   -1.6040   -2.9220 C.2     1  UNL1        0.0510
     11  C          8.0730   -2.3530   -0.6620 C.2     1  UNL1        0.1660
     12  C          8.3520   -2.5540   -1.9920 C.2     1  UNL1        0.1650
     13  O          8.5590   -3.4320    0.0560 O.2     1  UNL1       -0.4540
     14  O          9.0190   -3.7770   -2.0840 O.2     1  UNL1       -0.4540
     15  C          8.8800   -4.4810   -0.8710 C.3     1  UNL1        0.4680
@<TRIPOS>BOND
     1    10     8    1
     2    10    12    2
     3     8     7    2
     4    14    12    1
     5    14    15    1
     6    12    11    1
     7     7     6    1
     8     7     9    1
     9    15    13    1
    10     6     1    1
    11    11     9    2
    12    11    13    1
    13     1     2    1
    14     3     2    2
    15     2     4    1
    16     4     5    1
