MODEL 1
REMARK VINA RESULT:      -7.6      0.000      0.000
REMARK SMILES O=C(O)CCc1ccc2c(c1)OCO2
REMARK SMILES IDX 4 1 2 2 1 3 3 4 5 6 6 7 7 8 11 9 8 10 10 11 9 12 12 13 14 14
REMARK SMILES IDX 13 15
REMARK H PARENT 3 5
REMARK Flexibility Score: inf
ROOT
ATOM      1  C   UNL     1       5.421   2.868   0.122  1.00  0.00     0.127 C 
ENDROOT
BRANCH   1   2
ATOM      2  C   UNL     1       6.250   3.849   0.805  1.00  0.00     0.303 C 
ATOM      3  O   UNL     1       6.898   4.744   0.259  1.00  0.00    -0.252 OA
BRANCH   2   4
ATOM      4  O   UNL     1       6.320   3.771   2.205  1.00  0.00    -0.481 OA
ATOM      5  H   UNL     1       5.885   4.525   2.715  1.00  0.00     0.296 HD
ENDBRANCH   2   4
ENDBRANCH   1   2
BRANCH   1   6
ATOM      6  C   UNL     1       5.355   1.558   0.806  1.00  0.00     0.047 C 
BRANCH   6   7
ATOM      7  C   UNL     1       6.135   0.457   0.236  1.00  0.00    -0.043 A 
ATOM      8  C   UNL     1       6.584  -0.594   1.020  1.00  0.00     0.008 A 
ATOM      9  C   UNL     1       6.479   0.455  -1.090  1.00  0.00     0.054 A 
ATOM     10  C   UNL     1       7.348  -1.612   0.493  1.00  0.00     0.051 A 
ATOM     11  C   UNL     1       7.244  -0.555  -1.640  1.00  0.00     0.166 A 
ATOM     12  C   UNL     1       7.681  -1.592  -0.851  1.00  0.00     0.165 A 
ATOM     13  O   UNL     1       7.704  -0.762  -2.929  1.00  0.00    -0.454 OA
ATOM     14  O   UNL     1       8.419  -2.443  -1.676  1.00  0.00    -0.454 OA
ATOM     15  C   UNL     1       8.707  -1.788  -2.890  1.00  0.00     0.468 C 
ENDBRANCH   6   7
ENDBRANCH   1   6
TORSDOF 4
ENDMDL
MODEL 2
REMARK VINA RESULT:      -7.6      2.126      2.512
REMARK SMILES O=C(O)CCc1ccc2c(c1)OCO2
REMARK SMILES IDX 4 1 2 2 1 3 3 4 5 6 6 7 7 8 11 9 8 10 10 11 9 12 12 13 14 14
REMARK SMILES IDX 13 15
REMARK H PARENT 3 5
REMARK Flexibility Score: inf
ROOT
ATOM      1  C   UNL     1       4.710   1.872   0.687  1.00  0.00     0.127 C 
ENDROOT
BRANCH   1   2
ATOM      2  C   UNL     1       4.421   1.150   1.916  1.00  0.00     0.303 C 
ATOM      3  O   UNL     1       5.162   0.325   2.455  1.00  0.00    -0.252 OA
BRANCH   2   4
ATOM      4  O   UNL     1       3.193   1.413   2.544  1.00  0.00    -0.481 OA
ATOM      5  H   UNL     1       3.190   1.370   3.552  1.00  0.00     0.296 HD
ENDBRANCH   2   4
ENDBRANCH   1   2
BRANCH   1   6
ATOM      6  C   UNL     1       6.134   2.238   0.527  1.00  0.00     0.047 C 
BRANCH   6   7
ATOM      7  C   UNL     1       6.984   1.328  -0.243  1.00  0.00    -0.043 A 
ATOM      8  C   UNL     1       8.348   1.543  -0.370  1.00  0.00     0.008 A 
ATOM      9  C   UNL     1       6.446   0.252  -0.898  1.00  0.00     0.054 A 
ATOM     10  C   UNL     1       9.143   0.709  -1.124  1.00  0.00     0.051 A 
ATOM     11  C   UNL     1       7.224  -0.599  -1.660  1.00  0.00     0.166 A 
ATOM     12  C   UNL     1       8.574  -0.374  -1.775  1.00  0.00     0.165 A 
ATOM     13  O   UNL     1       6.903  -1.727  -2.395  1.00  0.00    -0.454 OA
ATOM     14  O   UNL     1       9.082  -1.383  -2.595  1.00  0.00    -0.454 OA
ATOM     15  C   UNL     1       8.019  -2.045  -3.240  1.00  0.00     0.468 C 
ENDBRANCH   6   7
ENDBRANCH   1   6
TORSDOF 4
ENDMDL
MODEL 3
REMARK VINA RESULT:      -7.5      0.959      2.122
REMARK SMILES O=C(O)CCc1ccc2c(c1)OCO2
REMARK SMILES IDX 4 1 2 2 1 3 3 4 5 6 6 7 7 8 11 9 8 10 10 11 9 12 12 13 14 14
REMARK SMILES IDX 13 15
REMARK H PARENT 3 5
REMARK Flexibility Score: inf
ROOT
ATOM      1  C   UNL     1       5.385   2.746   0.145  1.00  0.00     0.127 C 
ENDROOT
BRANCH   1   2
ATOM      2  C   UNL     1       6.127   3.733   0.914  1.00  0.00     0.303 C 
ATOM      3  O   UNL     1       6.223   3.761   2.142  1.00  0.00    -0.252 OA
BRANCH   2   4
ATOM      4  O   UNL     1       6.793   4.740   0.197  1.00  0.00    -0.481 OA
ATOM      5  H   UNL     1       6.573   4.807  -0.784  1.00  0.00     0.296 HD
ENDBRANCH   2   4
ENDBRANCH   1   2
BRANCH   1   6
ATOM      6  C   UNL     1       5.362   1.401   0.758  1.00  0.00     0.047 C 
BRANCH   6   7
ATOM      7  C   UNL     1       6.202   0.366   0.150  1.00  0.00    -0.043 A 
ATOM      8  C   UNL     1       6.453   0.345  -1.213  1.00  0.00     0.008 A 
ATOM      9  C   UNL     1       6.734  -0.640   0.912  1.00  0.00     0.054 A 
ATOM     10  C   UNL     1       7.212  -0.648  -1.791  1.00  0.00     0.051 A 
ATOM     11  C   UNL     1       7.500  -1.647   0.354  1.00  0.00     0.166 A 
ATOM     12  C   UNL     1       7.742  -1.654  -0.998  1.00  0.00     0.165 A 
ATOM     13  O   UNL     1       8.128  -2.743   0.918  1.00  0.00    -0.454 OA
ATOM     14  O   UNL     1       8.530  -2.776  -1.260  1.00  0.00    -0.454 OA
ATOM     15  C   UNL     1       8.519  -3.631  -0.141  1.00  0.00     0.468 C 
ENDBRANCH   6   7
ENDBRANCH   1   6
TORSDOF 4
ENDMDL
MODEL 4
REMARK VINA RESULT:      -7.4      1.796      5.284
REMARK SMILES O=C(O)CCc1ccc2c(c1)OCO2
REMARK SMILES IDX 4 1 2 2 1 3 3 4 5 6 6 7 7 8 11 9 8 10 10 11 9 12 12 13 14 14
REMARK SMILES IDX 13 15
REMARK H PARENT 3 5
REMARK Flexibility Score: inf
ROOT
ATOM      1  C   UNL     1       8.300  -0.318  -2.846  1.00  0.00     0.127 C 
ENDROOT
BRANCH   1   2
ATOM      2  C   UNL     1       8.465  -1.745  -3.072  1.00  0.00     0.303 C 
ATOM      3  O   UNL     1       9.533  -2.358  -3.035  1.00  0.00    -0.252 OA
BRANCH   2   4
ATOM      4  O   UNL     1       7.310  -2.491  -3.355  1.00  0.00    -0.481 OA
ATOM      5  H   UNL     1       6.846  -2.911  -2.565  1.00  0.00     0.296 HD
ENDBRANCH   2   4
ENDBRANCH   1   2
BRANCH   1   6
ATOM      6  C   UNL     1       8.757   0.137  -1.516  1.00  0.00     0.047 C 
BRANCH   6   7
ATOM      7  C   UNL     1       7.789   0.096  -0.417  1.00  0.00    -0.043 A 
ATOM      8  C   UNL     1       7.745  -0.968   0.470  1.00  0.00     0.008 A 
ATOM      9  C   UNL     1       6.869   1.098  -0.257  1.00  0.00     0.054 A 
ATOM     10  C   UNL     1       6.812  -1.025   1.482  1.00  0.00     0.051 A 
ATOM     11  C   UNL     1       5.924   1.062   0.751  1.00  0.00     0.166 A 
ATOM     12  C   UNL     1       5.892   0.002   1.624  1.00  0.00     0.165 A 
ATOM     13  O   UNL     1       4.916   1.945   1.097  1.00  0.00    -0.454 OA
ATOM     14  O   UNL     1       4.846   0.245   2.515  1.00  0.00    -0.454 OA
ATOM     15  C   UNL     1       4.035   1.283   2.016  1.00  0.00     0.468 C 
ENDBRANCH   6   7
ENDBRANCH   1   6
TORSDOF 4
ENDMDL
MODEL 5
REMARK VINA RESULT:      -7.4      1.946      2.844
REMARK SMILES O=C(O)CCc1ccc2c(c1)OCO2
REMARK SMILES IDX 4 1 2 2 1 3 3 4 5 6 6 7 7 8 11 9 8 10 10 11 9 12 12 13 14 14
REMARK SMILES IDX 13 15
REMARK H PARENT 3 5
REMARK Flexibility Score: inf
ROOT
ATOM      1  C   UNL     1       6.450   1.359   0.686  1.00  0.00     0.127 C 
ENDROOT
BRANCH   1   2
ATOM      2  C   UNL     1       5.218   1.360   1.459  1.00  0.00     0.303 C 
ATOM      3  O   UNL     1       4.281   2.147   1.313  1.00  0.00    -0.252 OA
BRANCH   2   4
ATOM      4  O   UNL     1       5.082   0.381   2.455  1.00  0.00    -0.481 OA
ATOM      5  H   UNL     1       4.139   0.167   2.744  1.00  0.00     0.296 HD
ENDBRANCH   2   4
ENDBRANCH   1   2
BRANCH   1   6
ATOM      6  C   UNL     1       6.278   0.932  -0.719  1.00  0.00     0.047 C 
BRANCH   6   7
ATOM      7  C   UNL     1       7.014  -0.254  -1.161  1.00  0.00    -0.043 A 
ATOM      8  C   UNL     1       7.301  -0.471  -2.500  1.00  0.00     0.008 A 
ATOM      9  C   UNL     1       7.409  -1.209  -0.262  1.00  0.00     0.054 A 
ATOM     10  C   UNL     1       7.962  -1.604  -2.922  1.00  0.00     0.051 A 
ATOM     11  C   UNL     1       8.073  -2.353  -0.662  1.00  0.00     0.166 A 
ATOM     12  C   UNL     1       8.352  -2.554  -1.992  1.00  0.00     0.165 A 
ATOM     13  O   UNL     1       8.559  -3.432   0.056  1.00  0.00    -0.454 OA
ATOM     14  O   UNL     1       9.019  -3.777  -2.084  1.00  0.00    -0.454 OA
ATOM     15  C   UNL     1       8.880  -4.481  -0.871  1.00  0.00     0.468 C 
ENDBRANCH   6   7
ENDBRANCH   1   6
TORSDOF 4
ENDMDL
