@<TRIPOS>MOLECULE
/home/cewinharhar/GITHUB/reincatalyze/data/processed/docking_pred/2023-May-17-1006_maxeplen10_maxtrainstep1000_seadep16_gamma099_lrac9e-4_lrcr1e-3_sub6/dea2b8be3c05a7e32d8e1c0cb085cc688668c765_ligand_6.pdbqt
 15 16 0 0 0
SMALL
GASTEIGER

@<TRIPOS>ATOM
      1  C          5.4210    2.8680    0.1220 C.3     1  UNL1        0.1270
      2  C          6.2500    3.8490    0.8050 C.2     1  UNL1        0.3030
      3  O          6.8980    4.7440    0.2590 O.2     1  UNL1       -0.2520
      4  O          6.3200    3.7710    2.2050 O.3     1  UNL1       -0.4810
      5  H          5.8850    4.5250    2.7150 H       1  UNL1        0.2960
      6  C          5.3550    1.5580    0.8060 C.3     1  UNL1        0.0470
      7  C          6.1350    0.4570    0.2360 C.2     1  UNL1       -0.0430
      8  C          6.5840   -0.5940    1.0200 C.2     1  UNL1        0.0080
      9  C          6.4790    0.4550   -1.0900 C.2     1  UNL1        0.0540
     10  C          7.3480   -1.6120    0.4930 C.2     1  UNL1        0.0510
     11  C          7.2440   -0.5550   -1.6400 C.2     1  UNL1        0.1660
     12  C          7.6810   -1.5920   -0.8510 C.2     1  UNL1        0.1650
     13  O          7.7040   -0.7620   -2.9290 O.2     1  UNL1       -0.4540
     14  O          8.4190   -2.4430   -1.6760 O.2     1  UNL1       -0.4540
     15  C          8.7070   -1.7880   -2.8900 C.3     1  UNL1        0.4680
@<TRIPOS>BOND
     1    13    15    1
     2    13    11    1
     3    15    14    1
     4    14    12    1
     5    11     9    1
     6    11    12    2
     7     9     7    2
     8    12    10    1
     9     1     2    1
    10     1     6    1
    11     7     6    1
    12     7     8    1
    13     3     2    2
    14    10     8    2
    15     2     4    1
    16     4     5    1
