@<TRIPOS>MOLECULE
/home/cewinharhar/GITHUB/reincatalyze/data/processed/docking_pred/2023-May-17-1006_maxeplen10_maxtrainstep1000_seadep16_gamma099_lrac9e-4_lrcr1e-3_sub6/dea2b8be3c05a7e32d8e1c0cb085cc688668c765_ligand_6.pdbqt
 15 16 0 0 0
SMALL
GASTEIGER

@<TRIPOS>ATOM
      1  C          4.7100    1.8720    0.6870 C.3     1  UNL1        0.1270
      2  C          4.4210    1.1500    1.9160 C.2     1  UNL1        0.3030
      3  O          5.1620    0.3250    2.4550 O.2     1  UNL1       -0.2520
      4  O          3.1930    1.4130    2.5440 O.3     1  UNL1       -0.4810
      5  H          3.1900    1.3700    3.5520 H       1  UNL1        0.2960
      6  C          6.1340    2.2380    0.5270 C.3     1  UNL1        0.0470
      7  C          6.9840    1.3280   -0.2430 C.2     1  UNL1       -0.0430
      8  C          8.3480    1.5430   -0.3700 C.2     1  UNL1        0.0080
      9  C          6.4460    0.2520   -0.8980 C.2     1  UNL1        0.0540
     10  C          9.1430    0.7090   -1.1240 C.2     1  UNL1        0.0510
     11  C          7.2240   -0.5990   -1.6600 C.2     1  UNL1        0.1660
     12  C          8.5740   -0.3740   -1.7750 C.2     1  UNL1        0.1650
     13  O          6.9030   -1.7270   -2.3950 O.2     1  UNL1       -0.4540
     14  O          9.0820   -1.3830   -2.5950 O.2     1  UNL1       -0.4540
     15  C          8.0190   -2.0450   -3.2400 C.3     1  UNL1        0.4680
@<TRIPOS>BOND
     1    15    14    1
     2    15    13    1
     3    14    12    1
     4    13    11    1
     5    12    11    2
     6    12    10    1
     7    11     9    1
     8    10     8    2
     9     9     7    2
    10     8     7    1
    11     7     6    1
    12     6     1    1
    13     1     2    1
    14     2     3    2
    15     2     4    1
    16     4     5    1
