MODEL 1
REMARK VINA RESULT:      -7.6      0.000      0.000
REMARK SMILES O=C(O)CCc1ccc2c(c1)OCO2
REMARK SMILES IDX 4 1 2 2 1 3 3 4 5 6 6 7 7 8 11 9 8 10 10 11 9 12 12 13 14 14
REMARK SMILES IDX 13 15
REMARK H PARENT 3 5
REMARK Flexibility Score: inf
ROOT
ATOM      1  C   UNL     1       5.419   2.864   0.134  1.00  0.00     0.127 C 
ENDROOT
BRANCH   1   2
ATOM      2  C   UNL     1       6.316   3.783   0.816  1.00  0.00     0.303 C 
ATOM      3  O   UNL     1       6.847   4.774   0.311  1.00  0.00    -0.252 OA
BRANCH   2   4
ATOM      4  O   UNL     1       6.605   3.521   2.164  1.00  0.00    -0.481 OA
ATOM      5  H   UNL     1       7.484   3.065   2.351  1.00  0.00     0.296 HD
ENDBRANCH   2   4
ENDBRANCH   1   2
BRANCH   1   6
ATOM      6  C   UNL     1       5.314   1.538   0.780  1.00  0.00     0.047 C 
BRANCH   6   7
ATOM      7  C   UNL     1       6.108   0.445   0.215  1.00  0.00    -0.043 A 
ATOM      8  C   UNL     1       6.554  -0.608   1.000  1.00  0.00     0.008 A 
ATOM      9  C   UNL     1       6.468   0.451  -1.107  1.00  0.00     0.054 A 
ATOM     10  C   UNL     1       7.331  -1.618   0.478  1.00  0.00     0.051 A 
ATOM     11  C   UNL     1       7.246  -0.552  -1.652  1.00  0.00     0.166 A 
ATOM     12  C   UNL     1       7.681  -1.590  -0.863  1.00  0.00     0.165 A 
ATOM     13  O   UNL     1       7.723  -0.750  -2.936  1.00  0.00    -0.454 OA
ATOM     14  O   UNL     1       8.434  -2.432  -1.682  1.00  0.00    -0.454 OA
ATOM     15  C   UNL     1       8.732  -1.770  -2.889  1.00  0.00     0.468 C 
ENDBRANCH   6   7
ENDBRANCH   1   6
TORSDOF 4
ENDMDL
MODEL 2
REMARK VINA RESULT:      -7.6      2.099      2.526
REMARK SMILES O=C(O)CCc1ccc2c(c1)OCO2
REMARK SMILES IDX 4 1 2 2 1 3 3 4 5 6 6 7 7 8 11 9 8 10 10 11 9 12 12 13 14 14
REMARK SMILES IDX 13 15
REMARK H PARENT 3 5
REMARK Flexibility Score: inf
ROOT
ATOM      1  C   UNL     1       4.687   1.873   0.686  1.00  0.00     0.127 C 
ENDROOT
BRANCH   1   2
ATOM      2  C   UNL     1       4.398   1.163   1.923  1.00  0.00     0.303 C 
ATOM      3  O   UNL     1       5.137   0.342   2.468  1.00  0.00    -0.252 OA
BRANCH   2   4
ATOM      4  O   UNL     1       3.172   1.435   2.550  1.00  0.00    -0.481 OA
ATOM      5  H   UNL     1       3.221   1.930   3.428  1.00  0.00     0.296 HD
ENDBRANCH   2   4
ENDBRANCH   1   2
BRANCH   1   6
ATOM      6  C   UNL     1       6.108   2.249   0.528  1.00  0.00     0.047 C 
BRANCH   6   7
ATOM      7  C   UNL     1       6.967   1.343  -0.238  1.00  0.00    -0.043 A 
ATOM      8  C   UNL     1       8.328   1.572  -0.369  1.00  0.00     0.008 A 
ATOM      9  C   UNL     1       6.439   0.256  -0.884  1.00  0.00     0.054 A 
ATOM     10  C   UNL     1       9.131   0.742  -1.118  1.00  0.00     0.051 A 
ATOM     11  C   UNL     1       7.226  -0.591  -1.641  1.00  0.00     0.166 A 
ATOM     12  C   UNL     1       8.573  -0.352  -1.761  1.00  0.00     0.165 A 
ATOM     13  O   UNL     1       6.916  -1.728  -2.367  1.00  0.00    -0.454 OA
ATOM     14  O   UNL     1       9.091  -1.361  -2.574  1.00  0.00    -0.454 OA
ATOM     15  C   UNL     1       8.034  -2.040  -3.212  1.00  0.00     0.468 C 
ENDBRANCH   6   7
ENDBRANCH   1   6
TORSDOF 4
ENDMDL
MODEL 3
REMARK VINA RESULT:      -7.4      1.795      5.260
REMARK SMILES O=C(O)CCc1ccc2c(c1)OCO2
REMARK SMILES IDX 4 1 2 2 1 3 3 4 5 6 6 7 7 8 11 9 8 10 10 11 9 12 12 13 14 14
REMARK SMILES IDX 13 15
REMARK H PARENT 3 5
REMARK Flexibility Score: inf
ROOT
ATOM      1  C   UNL     1       8.277  -0.307  -2.849  1.00  0.00     0.127 C 
ENDROOT
BRANCH   1   2
ATOM      2  C   UNL     1       8.445  -1.734  -3.073  1.00  0.00     0.303 C 
ATOM      3  O   UNL     1       9.512  -2.348  -3.021  1.00  0.00    -0.252 OA
BRANCH   2   4
ATOM      4  O   UNL     1       7.293  -2.479  -3.373  1.00  0.00    -0.481 OA
ATOM      5  H   UNL     1       6.691  -2.700  -2.595  1.00  0.00     0.296 HD
ENDBRANCH   2   4
ENDBRANCH   1   2
BRANCH   1   6
ATOM      6  C   UNL     1       8.742   0.152  -1.523  1.00  0.00     0.047 C 
BRANCH   6   7
ATOM      7  C   UNL     1       7.781   0.116  -0.418  1.00  0.00    -0.043 A 
ATOM      8  C   UNL     1       7.760  -0.930   0.491  1.00  0.00     0.008 A 
ATOM      9  C   UNL     1       6.843   1.104  -0.274  1.00  0.00     0.054 A 
ATOM     10  C   UNL     1       6.833  -0.983   1.508  1.00  0.00     0.051 A 
ATOM     11  C   UNL     1       5.904   1.072   0.739  1.00  0.00     0.166 A 
ATOM     12  C   UNL     1       5.896   0.029   1.634  1.00  0.00     0.165 A 
ATOM     13  O   UNL     1       4.882   1.943   1.072  1.00  0.00    -0.454 OA
ATOM     14  O   UNL     1       4.850   0.271   2.526  1.00  0.00    -0.454 OA
ATOM     15  C   UNL     1       4.017   1.284   2.010  1.00  0.00     0.468 C 
ENDBRANCH   6   7
ENDBRANCH   1   6
TORSDOF 4
ENDMDL
MODEL 4
REMARK VINA RESULT:      -7.4      1.015      2.128
REMARK SMILES O=C(O)CCc1ccc2c(c1)OCO2
REMARK SMILES IDX 4 1 2 2 1 3 3 4 5 6 6 7 7 8 11 9 8 10 10 11 9 12 12 13 14 14
REMARK SMILES IDX 13 15
REMARK H PARENT 3 5
REMARK Flexibility Score: inf
ROOT
ATOM      1  C   UNL     1       5.570   2.567   0.114  1.00  0.00     0.127 C 
ENDROOT
BRANCH   1   2
ATOM      2  C   UNL     1       6.157   3.662   0.871  1.00  0.00     0.303 C 
ATOM      3  O   UNL     1       6.155   3.767   2.098  1.00  0.00    -0.252 OA
BRANCH   2   4
ATOM      4  O   UNL     1       6.780   4.687   0.142  1.00  0.00    -0.481 OA
ATOM      5  H   UNL     1       7.264   4.407  -0.697  1.00  0.00     0.296 HD
ENDBRANCH   2   4
ENDBRANCH   1   2
BRANCH   1   6
ATOM      6  C   UNL     1       5.668   1.253   0.785  1.00  0.00     0.047 C 
BRANCH   6   7
ATOM      7  C   UNL     1       6.435   0.204   0.110  1.00  0.00    -0.043 A 
ATOM      8  C   UNL     1       6.560   0.171  -1.270  1.00  0.00     0.008 A 
ATOM      9  C   UNL     1       7.023  -0.805   0.827  1.00  0.00     0.054 A 
ATOM     10  C   UNL     1       7.250  -0.835  -1.908  1.00  0.00     0.051 A 
ATOM     11  C   UNL     1       7.721  -1.824   0.208  1.00  0.00     0.166 A 
ATOM     12  C   UNL     1       7.837  -1.843  -1.161  1.00  0.00     0.165 A 
ATOM     13  O   UNL     1       8.384  -2.926   0.720  1.00  0.00    -0.454 OA
ATOM     14  O   UNL     1       8.585  -2.976  -1.486  1.00  0.00    -0.454 OA
ATOM     15  C   UNL     1       8.665  -3.824  -0.364  1.00  0.00     0.468 C 
ENDBRANCH   6   7
ENDBRANCH   1   6
TORSDOF 4
ENDMDL
MODEL 5
REMARK VINA RESULT:      -7.4      1.960      2.842
REMARK SMILES O=C(O)CCc1ccc2c(c1)OCO2
REMARK SMILES IDX 4 1 2 2 1 3 3 4 5 6 6 7 7 8 11 9 8 10 10 11 9 12 12 13 14 14
REMARK SMILES IDX 13 15
REMARK H PARENT 3 5
REMARK Flexibility Score: inf
ROOT
ATOM      1  C   UNL     1       6.436   1.296   0.785  1.00  0.00     0.127 C 
ENDROOT
BRANCH   1   2
ATOM      2  C   UNL     1       5.171   1.320   1.504  1.00  0.00     0.303 C 
ATOM      3  O   UNL     1       4.267   2.140   1.337  1.00  0.00    -0.252 OA
BRANCH   2   4
ATOM      4  O   UNL     1       4.961   0.325   2.472  1.00  0.00    -0.481 OA
ATOM      5  H   UNL     1       5.119   0.597   3.430  1.00  0.00     0.296 HD
ENDBRANCH   2   4
ENDBRANCH   1   2
BRANCH   1   6
ATOM      6  C   UNL     1       6.307   0.929  -0.642  1.00  0.00     0.047 C 
BRANCH   6   7
ATOM      7  C   UNL     1       7.029  -0.259  -1.104  1.00  0.00    -0.043 A 
ATOM      8  C   UNL     1       7.282  -0.476  -2.449  1.00  0.00     0.008 A 
ATOM      9  C   UNL     1       7.442  -1.216  -0.215  1.00  0.00     0.054 A 
ATOM     10  C   UNL     1       7.928  -1.610  -2.888  1.00  0.00     0.051 A 
ATOM     11  C   UNL     1       8.093  -2.361  -0.633  1.00  0.00     0.166 A 
ATOM     12  C   UNL     1       8.338  -2.562  -1.969  1.00  0.00     0.165 A 
ATOM     13  O   UNL     1       8.593  -3.443   0.072  1.00  0.00    -0.454 OA
ATOM     14  O   UNL     1       8.998  -3.787  -2.078  1.00  0.00    -0.454 OA
ATOM     15  C   UNL     1       8.887  -4.491  -0.863  1.00  0.00     0.468 C 
ENDBRANCH   6   7
ENDBRANCH   1   6
TORSDOF 4
ENDMDL
