@<TRIPOS>MOLECULE
/home/cewinharhar/GITHUB/reincatalyze/data/processed/docking_pred/2023-May-17-1006_maxeplen10_maxtrainstep1000_seadep16_gamma099_lrac9e-4_lrcr1e-3_sub6/df357a1c250a0cea862119ec51667dccc9d8d697_ligand_6.pdbqt
 15 16 0 0 0
SMALL
GASTEIGER

@<TRIPOS>ATOM
      1  C          8.2770   -0.3070   -2.8490 C.3     1  UNL1        0.1270
      2  C          8.4450   -1.7340   -3.0730 C.2     1  UNL1        0.3030
      3  O          9.5120   -2.3480   -3.0210 O.2     1  UNL1       -0.2520
      4  O          7.2930   -2.4790   -3.3730 O.3     1  UNL1       -0.4810
      5  H          6.6910   -2.7000   -2.5950 H       1  UNL1        0.2960
      6  C          8.7420    0.1520   -1.5230 C.3     1  UNL1        0.0470
      7  C          7.7810    0.1160   -0.4180 C.2     1  UNL1       -0.0430
      8  C          7.7600   -0.9300    0.4910 C.2     1  UNL1        0.0080
      9  C          6.8430    1.1040   -0.2740 C.2     1  UNL1        0.0540
     10  C          6.8330   -0.9830    1.5080 C.2     1  UNL1        0.0510
     11  C          5.9040    1.0720    0.7390 C.2     1  UNL1        0.1660
     12  C          5.8960    0.0290    1.6340 C.2     1  UNL1        0.1650
     13  O          4.8820    1.9430    1.0720 O.2     1  UNL1       -0.4540
     14  O          4.8500    0.2710    2.5260 O.2     1  UNL1       -0.4540
     15  C          4.0170    1.2840    2.0100 C.3     1  UNL1        0.4680
@<TRIPOS>BOND
     1     4     2    1
     2     4     5    1
     3     2     3    2
     4     2     1    1
     5     1     6    1
     6     6     7    1
     7     7     9    2
     8     7     8    1
     9     9    11    1
    10     8    10    2
    11    11    13    1
    12    11    12    2
    13    13    15    1
    14    10    12    1
    15    12    14    1
    16    15    14    1
