@<TRIPOS>MOLECULE
/home/cewinharhar/GITHUB/reincatalyze/data/processed/docking_pred/2023-May-17-1006_maxeplen10_maxtrainstep1000_seadep16_gamma099_lrac9e-4_lrcr1e-3_sub6/df357a1c250a0cea862119ec51667dccc9d8d697_ligand_6.pdbqt
 15 16 0 0 0
SMALL
GASTEIGER

@<TRIPOS>ATOM
      1  C          6.4360    1.2960    0.7850 C.3     1  UNL1        0.1270
      2  C          5.1710    1.3200    1.5040 C.2     1  UNL1        0.3030
      3  O          4.2670    2.1400    1.3370 O.2     1  UNL1       -0.2520
      4  O          4.9610    0.3250    2.4720 O.3     1  UNL1       -0.4810
      5  H          5.1190    0.5970    3.4300 H       1  UNL1        0.2960
      6  C          6.3070    0.9290   -0.6420 C.3     1  UNL1        0.0470
      7  C          7.0290   -0.2590   -1.1040 C.2     1  UNL1       -0.0430
      8  C          7.2820   -0.4760   -2.4490 C.2     1  UNL1        0.0080
      9  C          7.4420   -1.2160   -0.2150 C.2     1  UNL1        0.0540
     10  C          7.9280   -1.6100   -2.8880 C.2     1  UNL1        0.0510
     11  C          8.0930   -2.3610   -0.6330 C.2     1  UNL1        0.1660
     12  C          8.3380   -2.5620   -1.9690 C.2     1  UNL1        0.1650
     13  O          8.5930   -3.4430    0.0720 O.2     1  UNL1       -0.4540
     14  O          8.9980   -3.7870   -2.0780 O.2     1  UNL1       -0.4540
     15  C          8.8870   -4.4910   -0.8630 C.3     1  UNL1        0.4680
@<TRIPOS>BOND
     1    10     8    1
     2    10    12    2
     3     8     7    2
     4    14    12    1
     5    14    15    1
     6    12    11    1
     7     7     6    1
     8     7     9    1
     9    15    13    1
    10     6     1    1
    11    11     9    2
    12    11    13    1
    13     1     2    1
    14     3     2    2
    15     2     4    1
    16     4     5    1
