@<TRIPOS>MOLECULE
/home/cewinharhar/GITHUB/reincatalyze/data/processed/docking_pred/2023-May-17-1006_maxeplen10_maxtrainstep1000_seadep16_gamma099_lrac9e-4_lrcr1e-3_sub6/df357a1c250a0cea862119ec51667dccc9d8d697_ligand_6.pdbqt
 15 16 0 0 0
SMALL
GASTEIGER

@<TRIPOS>ATOM
      1  C          5.4190    2.8640    0.1340 C.3     1  UNL1        0.1270
      2  C          6.3160    3.7830    0.8160 C.2     1  UNL1        0.3030
      3  O          6.8470    4.7740    0.3110 O.2     1  UNL1       -0.2520
      4  O          6.6050    3.5210    2.1640 O.3     1  UNL1       -0.4810
      5  H          7.4840    3.0650    2.3510 H       1  UNL1        0.2960
      6  C          5.3140    1.5380    0.7800 C.3     1  UNL1        0.0470
      7  C          6.1080    0.4450    0.2150 C.2     1  UNL1       -0.0430
      8  C          6.5540   -0.6080    1.0000 C.2     1  UNL1        0.0080
      9  C          6.4680    0.4510   -1.1070 C.2     1  UNL1        0.0540
     10  C          7.3310   -1.6180    0.4780 C.2     1  UNL1        0.0510
     11  C          7.2460   -0.5520   -1.6520 C.2     1  UNL1        0.1660
     12  C          7.6810   -1.5900   -0.8630 C.2     1  UNL1        0.1650
     13  O          7.7230   -0.7500   -2.9360 O.2     1  UNL1       -0.4540
     14  O          8.4340   -2.4320   -1.6820 O.2     1  UNL1       -0.4540
     15  C          8.7320   -1.7700   -2.8890 C.3     1  UNL1        0.4680
@<TRIPOS>BOND
     1    13    15    1
     2    13    11    1
     3    15    14    1
     4    14    12    1
     5    11     9    1
     6    11    12    2
     7     9     7    2
     8    12    10    1
     9     1     6    1
    10     1     2    1
    11     7     6    1
    12     7     8    1
    13     3     2    2
    14    10     8    2
    15     2     4    1
    16     4     5    1
