@<TRIPOS>MOLECULE
/home/cewinharhar/GITHUB/reincatalyze/data/processed/docking_pred/2023-May-17-1006_maxeplen10_maxtrainstep1000_seadep16_gamma099_lrac9e-4_lrcr1e-3_sub6/df357a1c250a0cea862119ec51667dccc9d8d697_ligand_6.pdbqt
 15 16 0 0 0
SMALL
GASTEIGER

@<TRIPOS>ATOM
      1  C          5.5700    2.5670    0.1140 C.3     1  UNL1        0.1270
      2  C          6.1570    3.6620    0.8710 C.2     1  UNL1        0.3030
      3  O          6.1550    3.7670    2.0980 O.2     1  UNL1       -0.2520
      4  O          6.7800    4.6870    0.1420 O.3     1  UNL1       -0.4810
      5  H          7.2640    4.4070   -0.6970 H       1  UNL1        0.2960
      6  C          5.6680    1.2530    0.7850 C.3     1  UNL1        0.0470
      7  C          6.4350    0.2040    0.1100 C.2     1  UNL1       -0.0430
      8  C          6.5600    0.1710   -1.2700 C.2     1  UNL1        0.0080
      9  C          7.0230   -0.8050    0.8270 C.2     1  UNL1        0.0540
     10  C          7.2500   -0.8350   -1.9080 C.2     1  UNL1        0.0510
     11  C          7.7210   -1.8240    0.2080 C.2     1  UNL1        0.1660
     12  C          7.8370   -1.8430   -1.1610 C.2     1  UNL1        0.1650
     13  O          8.3840   -2.9260    0.7200 O.2     1  UNL1       -0.4540
     14  O          8.5850   -2.9760   -1.4860 O.2     1  UNL1       -0.4540
     15  C          8.6650   -3.8240   -0.3640 C.3     1  UNL1        0.4680
@<TRIPOS>BOND
     1    10     8    1
     2    10    12    2
     3    14    12    1
     4    14    15    1
     5     8     7    2
     6    12    11    1
     7     5     4    1
     8    15    13    1
     9     7     6    1
    10     7     9    1
    11     1     6    1
    12     1     2    1
    13     4     2    1
    14    11    13    1
    15    11     9    2
    16     2     3    2
