@<TRIPOS>MOLECULE
/home/cewinharhar/GITHUB/reincatalyze/data/processed/docking_pred/2023-May-17-1006_maxeplen10_maxtrainstep1000_seadep16_gamma099_lrac9e-4_lrcr1e-3_sub6/e1ac879641feb84a16575019a922afe40680d27c_ligand_6.pdbqt
 15 16 0 0 0
SMALL
GASTEIGER

@<TRIPOS>ATOM
      1  C          5.3820    2.8950    0.1520 C.3     1  UNL1        0.1270
      2  C          6.2350    3.8530    0.8380 C.2     1  UNL1        0.3030
      3  O          6.8530    4.7750    0.3020 O.2     1  UNL1       -0.2520
      4  O          6.3690    3.7170    2.2290 O.3     1  UNL1       -0.4810
      5  H          6.9270    4.4170    2.6930 H       1  UNL1        0.2960
      6  C          5.2850    1.5850    0.8300 C.3     1  UNL1        0.0470
      7  C          6.0580    0.4740    0.2700 C.2     1  UNL1       -0.0430
      8  C          6.4710   -0.5910    1.0560 C.2     1  UNL1        0.0080
      9  C          6.4310    0.4750   -1.0480 C.2     1  UNL1        0.0540
     10  C          7.2280   -1.6180    0.5390 C.2     1  UNL1        0.0510
     11  C          7.1910   -0.5450   -1.5880 C.2     1  UNL1        0.1660
     12  C          7.5910   -1.5950   -0.7970 C.2     1  UNL1        0.1650
     13  O          7.6750   -0.7510   -2.8680 O.2     1  UNL1       -0.4540
     14  O          8.3330   -2.4530   -1.6120 O.2     1  UNL1       -0.4540
     15  C          8.6590   -1.7960   -2.8140 C.3     1  UNL1        0.4680
@<TRIPOS>BOND
     1    13    15    1
     2    13    11    1
     3    15    14    1
     4    14    12    1
     5    11     9    1
     6    11    12    2
     7     9     7    2
     8    12    10    1
     9     1     6    1
    10     1     2    1
    11     7     6    1
    12     7     8    1
    13     3     2    2
    14    10     8    2
    15     2     4    1
    16     4     5    1
