@<TRIPOS>MOLECULE
/home/cewinharhar/GITHUB/reincatalyze/data/processed/docking_pred/2023-May-17-1006_maxeplen10_maxtrainstep1000_seadep16_gamma099_lrac9e-4_lrcr1e-3_sub6/e1ac879641feb84a16575019a922afe40680d27c_ligand_6.pdbqt
 15 16 0 0 0
SMALL
GASTEIGER

@<TRIPOS>ATOM
      1  C          5.4730    2.6160    0.1090 C.3     1  UNL1        0.1270
      2  C          6.1180    3.6820    0.8610 C.2     1  UNL1        0.3030
      3  O          6.1360    3.7840    2.0880 O.2     1  UNL1       -0.2520
      4  O          6.7750    4.6820    0.1260 O.3     1  UNL1       -0.4810
      5  H          6.6390    4.6620   -0.8730 H       1  UNL1        0.2960
      6  C          5.5850    1.2840    0.7420 C.3     1  UNL1        0.0470
      7  C          6.3700    0.2660    0.0420 C.2     1  UNL1       -0.0430
      8  C          6.4980    0.2710   -1.3390 C.2     1  UNL1        0.0080
      9  C          6.9730   -0.7510    0.7330 C.2     1  UNL1        0.0540
     10  C          7.2060   -0.7060   -2.0020 C.2     1  UNL1        0.0510
     11  C          7.6900   -1.7420    0.0890 C.2     1  UNL1        0.1660
     12  C          7.8090   -1.7240   -1.2790 C.2     1  UNL1        0.1650
     13  O          8.3710   -2.8460    0.5730 O.2     1  UNL1       -0.4540
     14  O          8.5750   -2.8350   -1.6320 O.2     1  UNL1       -0.4540
     15  C          8.6690   -3.7110   -0.5330 C.3     1  UNL1        0.4680
@<TRIPOS>BOND
     1    10     8    1
     2    10    12    2
     3    14    12    1
     4    14    15    1
     5     8     7    2
     6    12    11    1
     7     5     4    1
     8    15    13    1
     9     7     9    1
    10     7     6    1
    11    11    13    1
    12    11     9    2
    13     1     6    1
    14     1     2    1
    15     4     2    1
    16     2     3    2
