@<TRIPOS>MOLECULE
/home/cewinharhar/GITHUB/reincatalyze/data/processed/docking_pred/2023-May-17-1006_maxeplen10_maxtrainstep1000_seadep16_gamma099_lrac9e-4_lrcr1e-3_sub6/e1ac879641feb84a16575019a922afe40680d27c_ligand_6.pdbqt
 15 16 0 0 0
SMALL
GASTEIGER

@<TRIPOS>ATOM
      1  C          6.4160    1.3280    0.6990 C.3     1  UNL1        0.1270
      2  C          5.1880    1.3130    1.4790 C.2     1  UNL1        0.3030
      3  O          4.2530    2.1060    1.3600 O.2     1  UNL1       -0.2520
      4  O          5.0560    0.3090    2.4520 O.3     1  UNL1       -0.4810
      5  H          4.9910   -0.6370    2.1090 H       1  UNL1        0.2960
      6  C          6.2410    0.8950   -0.7040 C.3     1  UNL1        0.0470
      7  C          6.9820   -0.2890   -1.1450 C.2     1  UNL1       -0.0430
      8  C          7.2770   -0.5020   -2.4820 C.2     1  UNL1        0.0080
      9  C          7.3740   -1.2450   -0.2450 C.2     1  UNL1        0.0540
     10  C          7.9430   -1.6320   -2.9020 C.2     1  UNL1        0.0510
     11  C          8.0430   -2.3860   -0.6440 C.2     1  UNL1        0.1660
     12  C          8.3300   -2.5840   -1.9730 C.2     1  UNL1        0.1650
     13  O          8.5270   -3.4660    0.0740 O.2     1  UNL1       -0.4540
     14  O          9.0000   -3.8050   -2.0630 O.2     1  UNL1       -0.4540
     15  C          8.8550   -4.5120   -0.8530 C.3     1  UNL1        0.4680
@<TRIPOS>BOND
     1    10     8    1
     2    10    12    2
     3     8     7    2
     4    14    12    1
     5    14    15    1
     6    12    11    1
     7     7     6    1
     8     7     9    1
     9    15    13    1
    10     6     1    1
    11    11     9    2
    12    11    13    1
    13     1     2    1
    14     3     2    2
    15     2     4    1
    16     5     4    1
