@<TRIPOS>MOLECULE
/home/cewinharhar/GITHUB/reincatalyze/data/processed/docking_pred/2023-May-17-1006_maxeplen10_maxtrainstep1000_seadep16_gamma099_lrac9e-4_lrcr1e-3_sub6/e1ac879641feb84a16575019a922afe40680d27c_ligand_6.pdbqt
 15 16 0 0 0
SMALL
GASTEIGER

@<TRIPOS>ATOM
      1  C          4.6910    1.8630    0.6730 C.3     1  UNL1        0.1270
      2  C          4.4090    1.1590    1.9140 C.2     1  UNL1        0.3030
      3  O          5.1540    0.3440    2.4610 O.2     1  UNL1       -0.2520
      4  O          3.1850    1.4300    2.5450 O.3     1  UNL1       -0.4810
      5  H          3.1290    1.2000    3.5250 H       1  UNL1        0.2960
      6  C          6.1110    2.2420    0.5070 C.3     1  UNL1        0.0470
      7  C          6.9700    1.3330   -0.2540 C.2     1  UNL1       -0.0430
      8  C          8.3330    1.5540   -0.3750 C.2     1  UNL1        0.0080
      9  C          6.4410    0.2500   -0.9050 C.2     1  UNL1        0.0540
     10  C          9.1360    0.7200   -1.1200 C.2     1  UNL1        0.0510
     11  C          7.2270   -0.6020   -1.6570 C.2     1  UNL1        0.1660
     12  C          8.5770   -0.3700   -1.7670 C.2     1  UNL1        0.1650
     13  O          6.9160   -1.7360   -2.3870 O.2     1  UNL1       -0.4540
     14  O          9.0950   -1.3810   -2.5780 O.2     1  UNL1       -0.4540
     15  C          8.0380   -2.0530   -3.2240 C.3     1  UNL1        0.4680
@<TRIPOS>BOND
     1    15    14    1
     2    15    13    1
     3    14    12    1
     4    13    11    1
     5    12    11    2
     6    12    10    1
     7    11     9    1
     8    10     8    2
     9     9     7    2
    10     8     7    1
    11     7     6    1
    12     6     1    1
    13     1     2    1
    14     2     3    2
    15     2     4    1
    16     4     5    1
