MODEL 1
REMARK VINA RESULT:      -7.6      0.000      0.000
REMARK SMILES O=C(O)CCc1ccc2c(c1)OCO2
REMARK SMILES IDX 4 1 2 2 1 3 3 4 5 6 6 7 7 8 11 9 8 10 10 11 9 12 12 13 14 14
REMARK SMILES IDX 13 15
REMARK H PARENT 3 5
REMARK Flexibility Score: inf
ROOT
ATOM      1  C   UNL     1       5.382   2.895   0.152  1.00  0.00     0.127 C 
ENDROOT
BRANCH   1   2
ATOM      2  C   UNL     1       6.235   3.853   0.838  1.00  0.00     0.303 C 
ATOM      3  O   UNL     1       6.853   4.775   0.302  1.00  0.00    -0.252 OA
BRANCH   2   4
ATOM      4  O   UNL     1       6.369   3.717   2.229  1.00  0.00    -0.481 OA
ATOM      5  H   UNL     1       6.927   4.417   2.693  1.00  0.00     0.296 HD
ENDBRANCH   2   4
ENDBRANCH   1   2
BRANCH   1   6
ATOM      6  C   UNL     1       5.285   1.585   0.830  1.00  0.00     0.047 C 
BRANCH   6   7
ATOM      7  C   UNL     1       6.058   0.474   0.270  1.00  0.00    -0.043 A 
ATOM      8  C   UNL     1       6.471  -0.591   1.056  1.00  0.00     0.008 A 
ATOM      9  C   UNL     1       6.431   0.475  -1.048  1.00  0.00     0.054 A 
ATOM     10  C   UNL     1       7.228  -1.618   0.539  1.00  0.00     0.051 A 
ATOM     11  C   UNL     1       7.191  -0.545  -1.588  1.00  0.00     0.166 A 
ATOM     12  C   UNL     1       7.591  -1.595  -0.797  1.00  0.00     0.165 A 
ATOM     13  O   UNL     1       7.675  -0.751  -2.868  1.00  0.00    -0.454 OA
ATOM     14  O   UNL     1       8.333  -2.453  -1.612  1.00  0.00    -0.454 OA
ATOM     15  C   UNL     1       8.659  -1.796  -2.814  1.00  0.00     0.468 C 
ENDBRANCH   6   7
ENDBRANCH   1   6
TORSDOF 4
ENDMDL
MODEL 2
REMARK VINA RESULT:      -7.6      2.127      2.533
REMARK SMILES O=C(O)CCc1ccc2c(c1)OCO2
REMARK SMILES IDX 4 1 2 2 1 3 3 4 5 6 6 7 7 8 11 9 8 10 10 11 9 12 12 13 14 14
REMARK SMILES IDX 13 15
REMARK H PARENT 3 5
REMARK Flexibility Score: inf
ROOT
ATOM      1  C   UNL     1       4.691   1.863   0.673  1.00  0.00     0.127 C 
ENDROOT
BRANCH   1   2
ATOM      2  C   UNL     1       4.409   1.159   1.914  1.00  0.00     0.303 C 
ATOM      3  O   UNL     1       5.154   0.344   2.461  1.00  0.00    -0.252 OA
BRANCH   2   4
ATOM      4  O   UNL     1       3.185   1.430   2.545  1.00  0.00    -0.481 OA
ATOM      5  H   UNL     1       3.129   1.200   3.525  1.00  0.00     0.296 HD
ENDBRANCH   2   4
ENDBRANCH   1   2
BRANCH   1   6
ATOM      6  C   UNL     1       6.111   2.242   0.507  1.00  0.00     0.047 C 
BRANCH   6   7
ATOM      7  C   UNL     1       6.970   1.333  -0.254  1.00  0.00    -0.043 A 
ATOM      8  C   UNL     1       8.333   1.554  -0.375  1.00  0.00     0.008 A 
ATOM      9  C   UNL     1       6.441   0.250  -0.905  1.00  0.00     0.054 A 
ATOM     10  C   UNL     1       9.136   0.720  -1.120  1.00  0.00     0.051 A 
ATOM     11  C   UNL     1       7.227  -0.602  -1.657  1.00  0.00     0.166 A 
ATOM     12  C   UNL     1       8.577  -0.370  -1.767  1.00  0.00     0.165 A 
ATOM     13  O   UNL     1       6.916  -1.736  -2.387  1.00  0.00    -0.454 OA
ATOM     14  O   UNL     1       9.095  -1.381  -2.578  1.00  0.00    -0.454 OA
ATOM     15  C   UNL     1       8.038  -2.053  -3.224  1.00  0.00     0.468 C 
ENDBRANCH   6   7
ENDBRANCH   1   6
TORSDOF 4
ENDMDL
MODEL 3
REMARK VINA RESULT:      -7.4      1.968      2.876
REMARK SMILES O=C(O)CCc1ccc2c(c1)OCO2
REMARK SMILES IDX 4 1 2 2 1 3 3 4 5 6 6 7 7 8 11 9 8 10 10 11 9 12 12 13 14 14
REMARK SMILES IDX 13 15
REMARK H PARENT 3 5
REMARK Flexibility Score: inf
ROOT
ATOM      1  C   UNL     1       6.416   1.328   0.699  1.00  0.00     0.127 C 
ENDROOT
BRANCH   1   2
ATOM      2  C   UNL     1       5.188   1.313   1.479  1.00  0.00     0.303 C 
ATOM      3  O   UNL     1       4.253   2.106   1.360  1.00  0.00    -0.252 OA
BRANCH   2   4
ATOM      4  O   UNL     1       5.056   0.309   2.452  1.00  0.00    -0.481 OA
ATOM      5  H   UNL     1       4.991  -0.637   2.109  1.00  0.00     0.296 HD
ENDBRANCH   2   4
ENDBRANCH   1   2
BRANCH   1   6
ATOM      6  C   UNL     1       6.241   0.895  -0.704  1.00  0.00     0.047 C 
BRANCH   6   7
ATOM      7  C   UNL     1       6.982  -0.289  -1.145  1.00  0.00    -0.043 A 
ATOM      8  C   UNL     1       7.277  -0.502  -2.482  1.00  0.00     0.008 A 
ATOM      9  C   UNL     1       7.374  -1.245  -0.245  1.00  0.00     0.054 A 
ATOM     10  C   UNL     1       7.943  -1.632  -2.902  1.00  0.00     0.051 A 
ATOM     11  C   UNL     1       8.043  -2.386  -0.644  1.00  0.00     0.166 A 
ATOM     12  C   UNL     1       8.330  -2.584  -1.973  1.00  0.00     0.165 A 
ATOM     13  O   UNL     1       8.527  -3.466   0.074  1.00  0.00    -0.454 OA
ATOM     14  O   UNL     1       9.000  -3.805  -2.063  1.00  0.00    -0.454 OA
ATOM     15  C   UNL     1       8.855  -4.512  -0.853  1.00  0.00     0.468 C 
ENDBRANCH   6   7
ENDBRANCH   1   6
TORSDOF 4
ENDMDL
MODEL 4
REMARK VINA RESULT:      -7.4      1.807      5.256
REMARK SMILES O=C(O)CCc1ccc2c(c1)OCO2
REMARK SMILES IDX 4 1 2 2 1 3 3 4 5 6 6 7 7 8 11 9 8 10 10 11 9 12 12 13 14 14
REMARK SMILES IDX 13 15
REMARK H PARENT 3 5
REMARK Flexibility Score: inf
ROOT
ATOM      1  C   UNL     1       8.333  -0.253  -2.885  1.00  0.00     0.127 C 
ENDROOT
BRANCH   1   2
ATOM      2  C   UNL     1       8.473  -1.685  -3.093  1.00  0.00     0.303 C 
ATOM      3  O   UNL     1       9.527  -2.320  -3.022  1.00  0.00    -0.252 OA
BRANCH   2   4
ATOM      4  O   UNL     1       7.311  -2.409  -3.400  1.00  0.00    -0.481 OA
ATOM      5  H   UNL     1       6.558  -1.885  -3.819  1.00  0.00     0.296 HD
ENDBRANCH   2   4
ENDBRANCH   1   2
BRANCH   1   6
ATOM      6  C   UNL     1       8.804   0.211  -1.563  1.00  0.00     0.047 C 
BRANCH   6   7
ATOM      7  C   UNL     1       7.851   0.168  -0.451  1.00  0.00    -0.043 A 
ATOM      8  C   UNL     1       7.863  -0.865   0.473  1.00  0.00     0.008 A 
ATOM      9  C   UNL     1       6.890   1.134  -0.315  1.00  0.00     0.054 A 
ATOM     10  C   UNL     1       6.945  -0.927   1.498  1.00  0.00     0.051 A 
ATOM     11  C   UNL     1       5.959   1.094   0.706  1.00  0.00     0.166 A 
ATOM     12  C   UNL     1       5.983   0.064   1.616  1.00  0.00     0.165 A 
ATOM     13  O   UNL     1       4.918   1.944   1.034  1.00  0.00    -0.454 OA
ATOM     14  O   UNL     1       4.938   0.293   2.511  1.00  0.00    -0.454 OA
ATOM     15  C   UNL     1       4.076   1.277   1.987  1.00  0.00     0.468 C 
ENDBRANCH   6   7
ENDBRANCH   1   6
TORSDOF 4
ENDMDL
MODEL 5
REMARK VINA RESULT:      -7.4      0.960      2.071
REMARK SMILES O=C(O)CCc1ccc2c(c1)OCO2
REMARK SMILES IDX 4 1 2 2 1 3 3 4 5 6 6 7 7 8 11 9 8 10 10 11 9 12 12 13 14 14
REMARK SMILES IDX 13 15
REMARK H PARENT 3 5
REMARK Flexibility Score: inf
ROOT
ATOM      1  C   UNL     1       5.473   2.616   0.109  1.00  0.00     0.127 C 
ENDROOT
BRANCH   1   2
ATOM      2  C   UNL     1       6.118   3.682   0.861  1.00  0.00     0.303 C 
ATOM      3  O   UNL     1       6.136   3.784   2.088  1.00  0.00    -0.252 OA
BRANCH   2   4
ATOM      4  O   UNL     1       6.775   4.682   0.126  1.00  0.00    -0.481 OA
ATOM      5  H   UNL     1       6.639   4.662  -0.873  1.00  0.00     0.296 HD
ENDBRANCH   2   4
ENDBRANCH   1   2
BRANCH   1   6
ATOM      6  C   UNL     1       5.585   1.284   0.742  1.00  0.00     0.047 C 
BRANCH   6   7
ATOM      7  C   UNL     1       6.370   0.266   0.042  1.00  0.00    -0.043 A 
ATOM      8  C   UNL     1       6.498   0.271  -1.339  1.00  0.00     0.008 A 
ATOM      9  C   UNL     1       6.973  -0.751   0.733  1.00  0.00     0.054 A 
ATOM     10  C   UNL     1       7.206  -0.706  -2.002  1.00  0.00     0.051 A 
ATOM     11  C   UNL     1       7.690  -1.742   0.089  1.00  0.00     0.166 A 
ATOM     12  C   UNL     1       7.809  -1.724  -1.279  1.00  0.00     0.165 A 
ATOM     13  O   UNL     1       8.371  -2.846   0.573  1.00  0.00    -0.454 OA
ATOM     14  O   UNL     1       8.575  -2.835  -1.632  1.00  0.00    -0.454 OA
ATOM     15  C   UNL     1       8.669  -3.711  -0.533  1.00  0.00     0.468 C 
ENDBRANCH   6   7
ENDBRANCH   1   6
TORSDOF 4
ENDMDL
