@<TRIPOS>MOLECULE
/home/cewinharhar/GITHUB/reincatalyze/data/processed/docking_pred/2023-May-17-1006_maxeplen10_maxtrainstep1000_seadep16_gamma099_lrac9e-4_lrcr1e-3_sub6/e1ac879641feb84a16575019a922afe40680d27c_ligand_6.pdbqt
 15 16 0 0 0
SMALL
GASTEIGER

@<TRIPOS>ATOM
      1  C          8.3330   -0.2530   -2.8850 C.3     1  UNL1        0.1270
      2  C          8.4730   -1.6850   -3.0930 C.2     1  UNL1        0.3030
      3  O          9.5270   -2.3200   -3.0220 O.2     1  UNL1       -0.2520
      4  O          7.3110   -2.4090   -3.4000 O.3     1  UNL1       -0.4810
      5  H          6.5580   -1.8850   -3.8190 H       1  UNL1        0.2960
      6  C          8.8040    0.2110   -1.5630 C.3     1  UNL1        0.0470
      7  C          7.8510    0.1680   -0.4510 C.2     1  UNL1       -0.0430
      8  C          7.8630   -0.8650    0.4730 C.2     1  UNL1        0.0080
      9  C          6.8900    1.1340   -0.3150 C.2     1  UNL1        0.0540
     10  C          6.9450   -0.9270    1.4980 C.2     1  UNL1        0.0510
     11  C          5.9590    1.0940    0.7060 C.2     1  UNL1        0.1660
     12  C          5.9830    0.0640    1.6160 C.2     1  UNL1        0.1650
     13  O          4.9180    1.9440    1.0340 O.2     1  UNL1       -0.4540
     14  O          4.9380    0.2930    2.5110 O.2     1  UNL1       -0.4540
     15  C          4.0760    1.2770    1.9870 C.3     1  UNL1        0.4680
@<TRIPOS>BOND
     1     5     4    1
     2     4     2    1
     3     2     3    2
     4     2     1    1
     5     1     6    1
     6     6     7    1
     7     7     9    2
     8     7     8    1
     9     9    11    1
    10     8    10    2
    11    11    13    1
    12    11    12    2
    13    13    15    1
    14    10    12    1
    15    12    14    1
    16    15    14    1
