@<TRIPOS>MOLECULE
/home/cewinharhar/GITHUB/reincatalyze/data/processed/docking_pred/2023-May-17-1006_maxeplen10_maxtrainstep1000_seadep16_gamma099_lrac9e-4_lrcr1e-3_sub6/e3e0f9713a2c6d1770d60d03407d62bfa70f046f_ligand_6.pdbqt
 15 16 0 0 0
SMALL
GASTEIGER

@<TRIPOS>ATOM
      1  C          4.6660    1.8670    0.6680 C.3     1  UNL1        0.1270
      2  C          4.3970    1.1680    1.9150 C.2     1  UNL1        0.3030
      3  O          5.1510    0.3620    2.4630 O.2     1  UNL1       -0.2520
      4  O          3.1740    1.4340    2.5510 O.3     1  UNL1       -0.4810
      5  H          3.2090    2.0610    3.3400 H       1  UNL1        0.2960
      6  C          6.0800    2.2600    0.4930 C.3     1  UNL1        0.0470
      7  C          6.9480    1.3520   -0.2600 C.2     1  UNL1       -0.0430
      8  C          8.3090    1.5840   -0.3810 C.2     1  UNL1        0.0080
      9  C          6.4280    0.2610   -0.9040 C.2     1  UNL1        0.0540
     10  C          9.1200    0.7510   -1.1190 C.2     1  UNL1        0.0510
     11  C          7.2220   -0.5900   -1.6500 C.2     1  UNL1        0.1660
     12  C          8.5700   -0.3480   -1.7600 C.2     1  UNL1        0.1650
     13  O          6.9210   -1.7310   -2.3720 O.2     1  UNL1       -0.4540
     14  O          9.0970   -1.3610   -2.5630 O.2     1  UNL1       -0.4540
     15  C          8.0470   -2.0450   -3.2060 C.3     1  UNL1        0.4680
@<TRIPOS>BOND
     1    15    14    1
     2    15    13    1
     3    14    12    1
     4    13    11    1
     5    12    11    2
     6    12    10    1
     7    11     9    1
     8    10     8    2
     9     9     7    2
    10     8     7    1
    11     7     6    1
    12     6     1    1
    13     1     2    1
    14     2     3    2
    15     2     4    1
    16     4     5    1
