@<TRIPOS>MOLECULE
/home/cewinharhar/GITHUB/reincatalyze/data/processed/docking_pred/2023-May-17-1006_maxeplen10_maxtrainstep1000_seadep16_gamma099_lrac9e-4_lrcr1e-3_sub6/e3e0f9713a2c6d1770d60d03407d62bfa70f046f_ligand_6.pdbqt
 15 16 0 0 0
SMALL
GASTEIGER

@<TRIPOS>ATOM
      1  C          5.4150    2.8710    0.1200 C.3     1  UNL1        0.1270
      2  C          6.2420    3.8570    0.7990 C.2     1  UNL1        0.3030
      3  O          6.8940    4.7470    0.2500 O.2     1  UNL1       -0.2520
      4  O          6.3050    3.7910    2.2000 O.3     1  UNL1       -0.4810
      5  H          6.8570    4.5010    2.6550 H       1  UNL1        0.2960
      6  C          5.3490    1.5650    0.8110 C.3     1  UNL1        0.0470
      7  C          6.1270    0.4610    0.2460 C.2     1  UNL1       -0.0430
      8  C          6.5730   -0.5890    1.0350 C.2     1  UNL1        0.0080
      9  C          6.4730    0.4530   -1.0790 C.2     1  UNL1        0.0540
     10  C          7.3350   -1.6100    0.5130 C.2     1  UNL1        0.0510
     11  C          7.2360   -0.5620   -1.6250 C.2     1  UNL1        0.1660
     12  C          7.6700   -1.5960   -0.8320 C.2     1  UNL1        0.1650
     13  O          7.6970   -0.7740   -2.9130 O.2     1  UNL1       -0.4540
     14  O          8.4070   -2.4520   -1.6520 O.2     1  UNL1       -0.4540
     15  C          8.6970   -1.8020   -2.8680 C.3     1  UNL1        0.4680
@<TRIPOS>BOND
     1    13    15    1
     2    13    11    1
     3    15    14    1
     4    14    12    1
     5    11     9    1
     6    11    12    2
     7     9     7    2
     8    12    10    1
     9     1     2    1
    10     1     6    1
    11     7     6    1
    12     7     8    1
    13     3     2    2
    14    10     8    2
    15     2     4    1
    16     4     5    1
