MODEL 1
REMARK VINA RESULT:      -7.6      0.000      0.000
REMARK SMILES O=C(O)CCc1ccc2c(c1)OCO2
REMARK SMILES IDX 4 1 2 2 1 3 3 4 5 6 6 7 7 8 11 9 8 10 10 11 9 12 12 13 14 14
REMARK SMILES IDX 13 15
REMARK H PARENT 3 5
REMARK Flexibility Score: inf
ROOT
ATOM      1  C   UNL     1       5.415   2.871   0.120  1.00  0.00     0.127 C 
ENDROOT
BRANCH   1   2
ATOM      2  C   UNL     1       6.242   3.857   0.799  1.00  0.00     0.303 C 
ATOM      3  O   UNL     1       6.894   4.747   0.250  1.00  0.00    -0.252 OA
BRANCH   2   4
ATOM      4  O   UNL     1       6.305   3.791   2.200  1.00  0.00    -0.481 OA
ATOM      5  H   UNL     1       6.857   4.501   2.655  1.00  0.00     0.296 HD
ENDBRANCH   2   4
ENDBRANCH   1   2
BRANCH   1   6
ATOM      6  C   UNL     1       5.349   1.565   0.811  1.00  0.00     0.047 C 
BRANCH   6   7
ATOM      7  C   UNL     1       6.127   0.461   0.246  1.00  0.00    -0.043 A 
ATOM      8  C   UNL     1       6.573  -0.589   1.035  1.00  0.00     0.008 A 
ATOM      9  C   UNL     1       6.473   0.453  -1.079  1.00  0.00     0.054 A 
ATOM     10  C   UNL     1       7.335  -1.610   0.513  1.00  0.00     0.051 A 
ATOM     11  C   UNL     1       7.236  -0.562  -1.625  1.00  0.00     0.166 A 
ATOM     12  C   UNL     1       7.670  -1.596  -0.832  1.00  0.00     0.165 A 
ATOM     13  O   UNL     1       7.697  -0.774  -2.913  1.00  0.00    -0.454 OA
ATOM     14  O   UNL     1       8.407  -2.452  -1.652  1.00  0.00    -0.454 OA
ATOM     15  C   UNL     1       8.697  -1.802  -2.868  1.00  0.00     0.468 C 
ENDBRANCH   6   7
ENDBRANCH   1   6
TORSDOF 4
ENDMDL
MODEL 2
REMARK VINA RESULT:      -7.6      2.122      2.516
REMARK SMILES O=C(O)CCc1ccc2c(c1)OCO2
REMARK SMILES IDX 4 1 2 2 1 3 3 4 5 6 6 7 7 8 11 9 8 10 10 11 9 12 12 13 14 14
REMARK SMILES IDX 13 15
REMARK H PARENT 3 5
REMARK Flexibility Score: inf
ROOT
ATOM      1  C   UNL     1       4.666   1.867   0.668  1.00  0.00     0.127 C 
ENDROOT
BRANCH   1   2
ATOM      2  C   UNL     1       4.397   1.168   1.915  1.00  0.00     0.303 C 
ATOM      3  O   UNL     1       5.151   0.362   2.463  1.00  0.00    -0.252 OA
BRANCH   2   4
ATOM      4  O   UNL     1       3.174   1.434   2.551  1.00  0.00    -0.481 OA
ATOM      5  H   UNL     1       3.209   2.061   3.340  1.00  0.00     0.296 HD
ENDBRANCH   2   4
ENDBRANCH   1   2
BRANCH   1   6
ATOM      6  C   UNL     1       6.080   2.260   0.493  1.00  0.00     0.047 C 
BRANCH   6   7
ATOM      7  C   UNL     1       6.948   1.352  -0.260  1.00  0.00    -0.043 A 
ATOM      8  C   UNL     1       8.309   1.584  -0.381  1.00  0.00     0.008 A 
ATOM      9  C   UNL     1       6.428   0.261  -0.904  1.00  0.00     0.054 A 
ATOM     10  C   UNL     1       9.120   0.751  -1.119  1.00  0.00     0.051 A 
ATOM     11  C   UNL     1       7.222  -0.590  -1.650  1.00  0.00     0.166 A 
ATOM     12  C   UNL     1       8.570  -0.348  -1.760  1.00  0.00     0.165 A 
ATOM     13  O   UNL     1       6.921  -1.731  -2.372  1.00  0.00    -0.454 OA
ATOM     14  O   UNL     1       9.097  -1.361  -2.563  1.00  0.00    -0.454 OA
ATOM     15  C   UNL     1       8.047  -2.045  -3.206  1.00  0.00     0.468 C 
ENDBRANCH   6   7
ENDBRANCH   1   6
TORSDOF 4
ENDMDL
MODEL 3
REMARK VINA RESULT:      -7.5      1.807      5.263
REMARK SMILES O=C(O)CCc1ccc2c(c1)OCO2
REMARK SMILES IDX 4 1 2 2 1 3 3 4 5 6 6 7 7 8 11 9 8 10 10 11 9 12 12 13 14 14
REMARK SMILES IDX 13 15
REMARK H PARENT 3 5
REMARK Flexibility Score: inf
ROOT
ATOM      1  C   UNL     1       8.242  -0.217  -2.847  1.00  0.00     0.127 C 
ENDROOT
BRANCH   1   2
ATOM      2  C   UNL     1       8.470  -1.638  -3.057  1.00  0.00     0.303 C 
ATOM      3  O   UNL     1       9.553  -2.215  -2.948  1.00  0.00    -0.252 OA
BRANCH   2   4
ATOM      4  O   UNL     1       7.362  -2.422  -3.415  1.00  0.00    -0.481 OA
ATOM      5  H   UNL     1       7.447  -3.414  -3.253  1.00  0.00     0.296 HD
ENDBRANCH   2   4
ENDBRANCH   1   2
BRANCH   1   6
ATOM      6  C   UNL     1       8.701   0.276  -1.530  1.00  0.00     0.047 C 
BRANCH   6   7
ATOM      7  C   UNL     1       7.751   0.215  -0.417  1.00  0.00    -0.043 A 
ATOM      8  C   UNL     1       7.773  -0.827   0.498  1.00  0.00     0.008 A 
ATOM      9  C   UNL     1       6.783   1.172  -0.269  1.00  0.00     0.054 A 
ATOM     10  C   UNL     1       6.858  -0.904   1.524  1.00  0.00     0.051 A 
ATOM     11  C   UNL     1       5.855   1.116   0.754  1.00  0.00     0.166 A 
ATOM     12  C   UNL     1       5.889   0.078   1.654  1.00  0.00     0.165 A 
ATOM     13  O   UNL     1       4.808   1.955   1.092  1.00  0.00    -0.454 OA
ATOM     14  O   UNL     1       4.844   0.291   2.554  1.00  0.00    -0.454 OA
ATOM     15  C   UNL     1       3.975   1.274   2.041  1.00  0.00     0.468 C 
ENDBRANCH   6   7
ENDBRANCH   1   6
TORSDOF 4
ENDMDL
MODEL 4
REMARK VINA RESULT:      -7.5      1.949      2.858
REMARK SMILES O=C(O)CCc1ccc2c(c1)OCO2
REMARK SMILES IDX 4 1 2 2 1 3 3 4 5 6 6 7 7 8 11 9 8 10 10 11 9 12 12 13 14 14
REMARK SMILES IDX 13 15
REMARK H PARENT 3 5
REMARK Flexibility Score: inf
ROOT
ATOM      1  C   UNL     1       6.421   1.380   0.616  1.00  0.00     0.127 C 
ENDROOT
BRANCH   1   2
ATOM      2  C   UNL     1       5.215   1.371   1.429  1.00  0.00     0.303 C 
ATOM      3  O   UNL     1       4.270   2.153   1.319  1.00  0.00    -0.252 OA
BRANCH   2   4
ATOM      4  O   UNL     1       5.118   0.387   2.426  1.00  0.00    -0.481 OA
ATOM      5  H   UNL     1       4.459  -0.357   2.255  1.00  0.00     0.296 HD
ENDBRANCH   2   4
ENDBRANCH   1   2
BRANCH   1   6
ATOM      6  C   UNL     1       6.220   0.875  -0.760  1.00  0.00     0.047 C 
BRANCH   6   7
ATOM      7  C   UNL     1       6.976  -0.313  -1.162  1.00  0.00    -0.043 A 
ATOM      8  C   UNL     1       7.283  -0.561  -2.491  1.00  0.00     0.008 A 
ATOM      9  C   UNL     1       7.371  -1.239  -0.233  1.00  0.00     0.054 A 
ATOM     10  C   UNL     1       7.962  -1.696  -2.875  1.00  0.00     0.051 A 
ATOM     11  C   UNL     1       8.055  -2.385  -0.595  1.00  0.00     0.166 A 
ATOM     12  C   UNL     1       8.352  -2.617  -1.916  1.00  0.00     0.165 A 
ATOM     13  O   UNL     1       8.544  -3.438   0.157  1.00  0.00    -0.454 OA
ATOM     14  O   UNL     1       9.035  -3.834  -1.967  1.00  0.00    -0.454 OA
ATOM     15  C   UNL     1       8.889  -4.507  -0.738  1.00  0.00     0.468 C 
ENDBRANCH   6   7
ENDBRANCH   1   6
TORSDOF 4
ENDMDL
MODEL 5
REMARK VINA RESULT:      -7.4      1.044      2.141
REMARK SMILES O=C(O)CCc1ccc2c(c1)OCO2
REMARK SMILES IDX 4 1 2 2 1 3 3 4 5 6 6 7 7 8 11 9 8 10 10 11 9 12 12 13 14 14
REMARK SMILES IDX 13 15
REMARK H PARENT 3 5
REMARK Flexibility Score: inf
ROOT
ATOM      1  C   UNL     1       5.685   2.551   0.409  1.00  0.00     0.127 C 
ENDROOT
BRANCH   1   2
ATOM      2  C   UNL     1       6.276   3.700   1.076  1.00  0.00     0.303 C 
ATOM      3  O   UNL     1       6.382   3.846   2.295  1.00  0.00    -0.252 OA
BRANCH   2   4
ATOM      4  O   UNL     1       6.769   4.733   0.263  1.00  0.00    -0.481 OA
ATOM      5  H   UNL     1       6.102   5.436  -0.016  1.00  0.00     0.296 HD
ENDBRANCH   2   4
ENDBRANCH   1   2
BRANCH   1   6
ATOM      6  C   UNL     1       5.920   1.267   1.104  1.00  0.00     0.047 C 
BRANCH   6   7
ATOM      7  C   UNL     1       6.591   0.204   0.354  1.00  0.00    -0.043 A 
ATOM      8  C   UNL     1       6.563   0.165  -1.032  1.00  0.00     0.008 A 
ATOM      9  C   UNL     1       7.239  -0.812   1.006  1.00  0.00     0.054 A 
ATOM     10  C   UNL     1       7.163  -0.854  -1.738  1.00  0.00     0.051 A 
ATOM     11  C   UNL     1       7.849  -1.844   0.319  1.00  0.00     0.166 A 
ATOM     12  C   UNL     1       7.813  -1.869  -1.055  1.00  0.00     0.165 A 
ATOM     13  O   UNL     1       8.548  -2.955   0.759  1.00  0.00    -0.454 OA
ATOM     14  O   UNL     1       8.503  -3.015  -1.455  1.00  0.00    -0.454 OA
ATOM     15  C   UNL     1       8.694  -3.861  -0.345  1.00  0.00     0.468 C 
ENDBRANCH   6   7
ENDBRANCH   1   6
TORSDOF 4
ENDMDL
