@<TRIPOS>MOLECULE
/home/cewinharhar/GITHUB/reincatalyze/data/processed/docking_pred/2023-May-17-1006_maxeplen10_maxtrainstep1000_seadep16_gamma099_lrac9e-4_lrcr1e-3_sub6/e3e0f9713a2c6d1770d60d03407d62bfa70f046f_ligand_6.pdbqt
 15 16 0 0 0
SMALL
GASTEIGER

@<TRIPOS>ATOM
      1  C          5.6850    2.5510    0.4090 C.3     1  UNL1        0.1270
      2  C          6.2760    3.7000    1.0760 C.2     1  UNL1        0.3030
      3  O          6.3820    3.8460    2.2950 O.2     1  UNL1       -0.2520
      4  O          6.7690    4.7330    0.2630 O.3     1  UNL1       -0.4810
      5  H          6.1020    5.4360   -0.0160 H       1  UNL1        0.2960
      6  C          5.9200    1.2670    1.1040 C.3     1  UNL1        0.0470
      7  C          6.5910    0.2040    0.3540 C.2     1  UNL1       -0.0430
      8  C          6.5630    0.1650   -1.0320 C.2     1  UNL1        0.0080
      9  C          7.2390   -0.8120    1.0060 C.2     1  UNL1        0.0540
     10  C          7.1630   -0.8540   -1.7380 C.2     1  UNL1        0.0510
     11  C          7.8490   -1.8440    0.3190 C.2     1  UNL1        0.1660
     12  C          7.8130   -1.8690   -1.0550 C.2     1  UNL1        0.1650
     13  O          8.5480   -2.9550    0.7590 O.2     1  UNL1       -0.4540
     14  O          8.5030   -3.0150   -1.4550 O.2     1  UNL1       -0.4540
     15  C          8.6940   -3.8610   -0.3450 C.3     1  UNL1        0.4680
@<TRIPOS>BOND
     1    10    12    2
     2    10     8    1
     3    14    12    1
     4    14    15    1
     5    12    11    1
     6     8     7    2
     7    15    13    1
     8     5     4    1
     9     4     2    1
    10    11    13    1
    11    11     9    2
    12     7     9    1
    13     7     6    1
    14     1     2    1
    15     1     6    1
    16     2     3    2
