@<TRIPOS>MOLECULE
/home/cewinharhar/GITHUB/reincatalyze/data/processed/docking_pred/2023-May-17-1006_maxeplen10_maxtrainstep1000_seadep16_gamma099_lrac9e-4_lrcr1e-3_sub6/e3e0f9713a2c6d1770d60d03407d62bfa70f046f_ligand_6.pdbqt
 15 16 0 0 0
SMALL
GASTEIGER

@<TRIPOS>ATOM
      1  C          6.4210    1.3800    0.6160 C.3     1  UNL1        0.1270
      2  C          5.2150    1.3710    1.4290 C.2     1  UNL1        0.3030
      3  O          4.2700    2.1530    1.3190 O.2     1  UNL1       -0.2520
      4  O          5.1180    0.3870    2.4260 O.3     1  UNL1       -0.4810
      5  H          4.4590   -0.3570    2.2550 H       1  UNL1        0.2960
      6  C          6.2200    0.8750   -0.7600 C.3     1  UNL1        0.0470
      7  C          6.9760   -0.3130   -1.1620 C.2     1  UNL1       -0.0430
      8  C          7.2830   -0.5610   -2.4910 C.2     1  UNL1        0.0080
      9  C          7.3710   -1.2390   -0.2330 C.2     1  UNL1        0.0540
     10  C          7.9620   -1.6960   -2.8750 C.2     1  UNL1        0.0510
     11  C          8.0550   -2.3850   -0.5950 C.2     1  UNL1        0.1660
     12  C          8.3520   -2.6170   -1.9160 C.2     1  UNL1        0.1650
     13  O          8.5440   -3.4380    0.1570 O.2     1  UNL1       -0.4540
     14  O          9.0350   -3.8340   -1.9670 O.2     1  UNL1       -0.4540
     15  C          8.8890   -4.5070   -0.7380 C.3     1  UNL1        0.4680
@<TRIPOS>BOND
     1    10     8    1
     2    10    12    2
     3     8     7    2
     4    14    12    1
     5    14    15    1
     6    12    11    1
     7     7     6    1
     8     7     9    1
     9     6     1    1
    10    15    13    1
    11    11     9    2
    12    11    13    1
    13     1     2    1
    14     3     2    2
    15     2     4    1
    16     5     4    1
