@<TRIPOS>MOLECULE
/home/cewinharhar/GITHUB/reincatalyze/data/processed/docking_pred/2023-May-17-1006_maxeplen10_maxtrainstep1000_seadep16_gamma099_lrac9e-4_lrcr1e-3_sub6/e3e0f9713a2c6d1770d60d03407d62bfa70f046f_ligand_6.pdbqt
 15 16 0 0 0
SMALL
GASTEIGER

@<TRIPOS>ATOM
      1  C          8.2420   -0.2170   -2.8470 C.3     1  UNL1        0.1270
      2  C          8.4700   -1.6380   -3.0570 C.2     1  UNL1        0.3030
      3  O          9.5530   -2.2150   -2.9480 O.2     1  UNL1       -0.2520
      4  O          7.3620   -2.4220   -3.4150 O.3     1  UNL1       -0.4810
      5  H          7.4470   -3.4140   -3.2530 H       1  UNL1        0.2960
      6  C          8.7010    0.2760   -1.5300 C.3     1  UNL1        0.0470
      7  C          7.7510    0.2150   -0.4170 C.2     1  UNL1       -0.0430
      8  C          7.7730   -0.8270    0.4980 C.2     1  UNL1        0.0080
      9  C          6.7830    1.1720   -0.2690 C.2     1  UNL1        0.0540
     10  C          6.8580   -0.9040    1.5240 C.2     1  UNL1        0.0510
     11  C          5.8550    1.1160    0.7540 C.2     1  UNL1        0.1660
     12  C          5.8890    0.0780    1.6540 C.2     1  UNL1        0.1650
     13  O          4.8080    1.9550    1.0920 O.2     1  UNL1       -0.4540
     14  O          4.8440    0.2910    2.5540 O.2     1  UNL1       -0.4540
     15  C          3.9750    1.2740    2.0410 C.3     1  UNL1        0.4680
@<TRIPOS>BOND
     1     4     5    1
     2     4     2    1
     3     2     3    2
     4     2     1    1
     5     1     6    1
     6     6     7    1
     7     7     9    2
     8     7     8    1
     9     9    11    1
    10     8    10    2
    11    11    13    1
    12    11    12    2
    13    13    15    1
    14    10    12    1
    15    12    14    1
    16    15    14    1
