@<TRIPOS>MOLECULE
/home/cewinharhar/GITHUB/reincatalyze/data/processed/docking_pred/2023-May-17-1006_maxeplen10_maxtrainstep1000_seadep16_gamma099_lrac9e-4_lrcr1e-3_sub6/e3e22a08cc3fa656d2264310e8071e645bf38a06_ligand_6.pdbqt
 15 16 0 0 0
SMALL
GASTEIGER

@<TRIPOS>ATOM
      1  C          8.3030   -0.3160   -2.8500 C.3     1  UNL1        0.1270
      2  C          8.4680   -1.7440   -3.0700 C.2     1  UNL1        0.3030
      3  O          9.5370   -2.3570   -3.0330 O.2     1  UNL1       -0.2520
      4  O          7.3130   -2.4910   -3.3490 O.3     1  UNL1       -0.4810
      5  H          7.1470   -2.7090   -4.3190 H       1  UNL1        0.2960
      6  C          8.7570    0.1430   -1.5200 C.3     1  UNL1        0.0470
      7  C          7.7900    0.1000   -0.4220 C.2     1  UNL1       -0.0430
      8  C          7.7440   -0.9670    0.4630 C.2     1  UNL1        0.0080
      9  C          6.8690    1.1010   -0.2600 C.2     1  UNL1        0.0540
     10  C          6.8120   -1.0260    1.4740 C.2     1  UNL1        0.0510
     11  C          5.9240    1.0630    0.7480 C.2     1  UNL1        0.1660
     12  C          5.8920    0.0000    1.6180 C.2     1  UNL1        0.1650
     13  O          4.9160    1.9450    1.0960 O.2     1  UNL1       -0.4540
     14  O          4.8460    0.2410    2.5100 O.2     1  UNL1       -0.4540
     15  C          4.0350    1.2810    2.0140 C.3     1  UNL1        0.4680
@<TRIPOS>BOND
     1     5     4    1
     2     4     2    1
     3     2     3    2
     4     2     1    1
     5     1     6    1
     6     6     7    1
     7     7     9    2
     8     7     8    1
     9     9    11    1
    10     8    10    2
    11    11    13    1
    12    11    12    2
    13    13    15    1
    14    10    12    1
    15    12    14    1
    16    15    14    1
