MODEL 1
REMARK VINA RESULT:      -7.6      0.000      0.000
REMARK SMILES O=C(O)CCc1ccc2c(c1)OCO2
REMARK SMILES IDX 4 1 2 2 1 3 3 4 5 6 6 7 7 8 11 9 8 10 10 11 9 12 12 13 14 14
REMARK SMILES IDX 13 15
REMARK H PARENT 3 5
REMARK Flexibility Score: inf
ROOT
ATOM      1  C   UNL     1       5.418   2.876   0.170  1.00  0.00     0.127 C 
ENDROOT
BRANCH   1   2
ATOM      2  C   UNL     1       6.278   3.835   0.845  1.00  0.00     0.303 C 
ATOM      3  O   UNL     1       6.865   4.775   0.306  1.00  0.00    -0.252 OA
BRANCH   2   4
ATOM      4  O   UNL     1       6.456   3.679   2.228  1.00  0.00    -0.481 OA
ATOM      5  H   UNL     1       6.166   2.795   2.617  1.00  0.00     0.296 HD
ENDBRANCH   2   4
ENDBRANCH   1   2
BRANCH   1   6
ATOM      6  C   UNL     1       5.338   1.562   0.844  1.00  0.00     0.047 C 
BRANCH   6   7
ATOM      7  C   UNL     1       6.115   0.460   0.272  1.00  0.00    -0.043 A 
ATOM      8  C   UNL     1       6.527  -0.614   1.046  1.00  0.00     0.008 A 
ATOM      9  C   UNL     1       6.493   0.478  -1.044  1.00  0.00     0.054 A 
ATOM     10  C   UNL     1       7.288  -1.633   0.519  1.00  0.00     0.051 A 
ATOM     11  C   UNL     1       7.256  -0.534  -1.595  1.00  0.00     0.166 A 
ATOM     12  C   UNL     1       7.656  -1.593  -0.816  1.00  0.00     0.165 A 
ATOM     13  O   UNL     1       7.745  -0.722  -2.876  1.00  0.00    -0.454 OA
ATOM     14  O   UNL     1       8.401  -2.439  -1.639  1.00  0.00    -0.454 OA
ATOM     15  C   UNL     1       8.730  -1.766  -2.832  1.00  0.00     0.468 C 
ENDBRANCH   6   7
ENDBRANCH   1   6
TORSDOF 4
ENDMDL
MODEL 2
REMARK VINA RESULT:      -7.6      2.141      2.542
REMARK SMILES O=C(O)CCc1ccc2c(c1)OCO2
REMARK SMILES IDX 4 1 2 2 1 3 3 4 5 6 6 7 7 8 11 9 8 10 10 11 9 12 12 13 14 14
REMARK SMILES IDX 13 15
REMARK H PARENT 3 5
REMARK Flexibility Score: inf
ROOT
ATOM      1  C   UNL     1       4.742   1.848   0.700  1.00  0.00     0.127 C 
ENDROOT
BRANCH   1   2
ATOM      2  C   UNL     1       4.432   1.131   1.927  1.00  0.00     0.303 C 
ATOM      3  O   UNL     1       5.157   0.299   2.474  1.00  0.00    -0.252 OA
BRANCH   2   4
ATOM      4  O   UNL     1       3.201   1.409   2.542  1.00  0.00    -0.481 OA
ATOM      5  H   UNL     1       3.228   1.578   3.535  1.00  0.00     0.296 HD
ENDBRANCH   2   4
ENDBRANCH   1   2
BRANCH   1   6
ATOM      6  C   UNL     1       6.171   2.199   0.554  1.00  0.00     0.047 C 
BRANCH   6   7
ATOM      7  C   UNL     1       7.013   1.297  -0.233  1.00  0.00    -0.043 A 
ATOM      8  C   UNL     1       8.374   1.519  -0.380  1.00  0.00     0.008 A 
ATOM      9  C   UNL     1       6.470   0.221  -0.884  1.00  0.00     0.054 A 
ATOM     10  C   UNL     1       9.161   0.692  -1.149  1.00  0.00     0.051 A 
ATOM     11  C   UNL     1       7.240  -0.623  -1.661  1.00  0.00     0.166 A 
ATOM     12  C   UNL     1       8.588  -0.391  -1.797  1.00  0.00     0.165 A 
ATOM     13  O   UNL     1       6.914  -1.749  -2.396  1.00  0.00    -0.454 OA
ATOM     14  O   UNL     1       9.088  -1.394  -2.628  1.00  0.00    -0.454 OA
ATOM     15  C   UNL     1       8.018  -2.059  -3.259  1.00  0.00     0.468 C 
ENDBRANCH   6   7
ENDBRANCH   1   6
TORSDOF 4
ENDMDL
MODEL 3
REMARK VINA RESULT:      -7.5      0.956      2.113
REMARK SMILES O=C(O)CCc1ccc2c(c1)OCO2
REMARK SMILES IDX 4 1 2 2 1 3 3 4 5 6 6 7 7 8 11 9 8 10 10 11 9 12 12 13 14 14
REMARK SMILES IDX 13 15
REMARK H PARENT 3 5
REMARK Flexibility Score: inf
ROOT
ATOM      1  C   UNL     1       5.434   2.777   0.142  1.00  0.00     0.127 C 
ENDROOT
BRANCH   1   2
ATOM      2  C   UNL     1       6.161   3.771   0.916  1.00  0.00     0.303 C 
ATOM      3  O   UNL     1       6.193   3.839   2.146  1.00  0.00    -0.252 OA
BRANCH   2   4
ATOM      4  O   UNL     1       6.889   4.736   0.203  1.00  0.00    -0.481 OA
ATOM      5  H   UNL     1       7.395   4.406  -0.605  1.00  0.00     0.296 HD
ENDBRANCH   2   4
ENDBRANCH   1   2
BRANCH   1   6
ATOM      6  C   UNL     1       5.408   1.435   0.762  1.00  0.00     0.047 C 
BRANCH   6   7
ATOM      7  C   UNL     1       6.235   0.391   0.154  1.00  0.00    -0.043 A 
ATOM      8  C   UNL     1       6.484   0.366  -1.210  1.00  0.00     0.008 A 
ATOM      9  C   UNL     1       6.758  -0.620   0.915  1.00  0.00     0.054 A 
ATOM     10  C   UNL     1       7.232  -0.635  -1.789  1.00  0.00     0.051 A 
ATOM     11  C   UNL     1       7.512  -1.635   0.356  1.00  0.00     0.166 A 
ATOM     12  C   UNL     1       7.752  -1.646  -0.997  1.00  0.00     0.165 A 
ATOM     13  O   UNL     1       8.130  -2.738   0.919  1.00  0.00    -0.454 OA
ATOM     14  O   UNL     1       8.528  -2.776  -1.260  1.00  0.00    -0.454 OA
ATOM     15  C   UNL     1       8.510  -3.630  -0.139  1.00  0.00     0.468 C 
ENDBRANCH   6   7
ENDBRANCH   1   6
TORSDOF 4
ENDMDL
MODEL 4
REMARK VINA RESULT:      -7.5      1.798      5.274
REMARK SMILES O=C(O)CCc1ccc2c(c1)OCO2
REMARK SMILES IDX 4 1 2 2 1 3 3 4 5 6 6 7 7 8 11 9 8 10 10 11 9 12 12 13 14 14
REMARK SMILES IDX 13 15
REMARK H PARENT 3 5
REMARK Flexibility Score: inf
ROOT
ATOM      1  C   UNL     1       8.303  -0.316  -2.850  1.00  0.00     0.127 C 
ENDROOT
BRANCH   1   2
ATOM      2  C   UNL     1       8.468  -1.744  -3.070  1.00  0.00     0.303 C 
ATOM      3  O   UNL     1       9.537  -2.357  -3.033  1.00  0.00    -0.252 OA
BRANCH   2   4
ATOM      4  O   UNL     1       7.313  -2.491  -3.349  1.00  0.00    -0.481 OA
ATOM      5  H   UNL     1       7.147  -2.709  -4.319  1.00  0.00     0.296 HD
ENDBRANCH   2   4
ENDBRANCH   1   2
BRANCH   1   6
ATOM      6  C   UNL     1       8.757   0.143  -1.520  1.00  0.00     0.047 C 
BRANCH   6   7
ATOM      7  C   UNL     1       7.790   0.100  -0.422  1.00  0.00    -0.043 A 
ATOM      8  C   UNL     1       7.744  -0.967   0.463  1.00  0.00     0.008 A 
ATOM      9  C   UNL     1       6.869   1.101  -0.260  1.00  0.00     0.054 A 
ATOM     10  C   UNL     1       6.812  -1.026   1.474  1.00  0.00     0.051 A 
ATOM     11  C   UNL     1       5.924   1.063   0.748  1.00  0.00     0.166 A 
ATOM     12  C   UNL     1       5.892   0.000   1.618  1.00  0.00     0.165 A 
ATOM     13  O   UNL     1       4.916   1.945   1.096  1.00  0.00    -0.454 OA
ATOM     14  O   UNL     1       4.846   0.241   2.510  1.00  0.00    -0.454 OA
ATOM     15  C   UNL     1       4.035   1.281   2.014  1.00  0.00     0.468 C 
ENDBRANCH   6   7
ENDBRANCH   1   6
TORSDOF 4
ENDMDL
MODEL 5
REMARK VINA RESULT:      -7.4      1.961      2.853
REMARK SMILES O=C(O)CCc1ccc2c(c1)OCO2
REMARK SMILES IDX 4 1 2 2 1 3 3 4 5 6 6 7 7 8 11 9 8 10 10 11 9 12 12 13 14 14
REMARK SMILES IDX 13 15
REMARK H PARENT 3 5
REMARK Flexibility Score: inf
ROOT
ATOM      1  C   UNL     1       6.449   1.314   0.766  1.00  0.00     0.127 C 
ENDROOT
BRANCH   1   2
ATOM      2  C   UNL     1       5.184   1.337   1.485  1.00  0.00     0.303 C 
ATOM      3  O   UNL     1       4.274   2.149   1.309  1.00  0.00    -0.252 OA
BRANCH   2   4
ATOM      4  O   UNL     1       4.981   0.351   2.463  1.00  0.00    -0.481 OA
ATOM      5  H   UNL     1       4.049  -0.028   2.526  1.00  0.00     0.296 HD
ENDBRANCH   2   4
ENDBRANCH   1   2
BRANCH   1   6
ATOM      6  C   UNL     1       6.321   0.945  -0.660  1.00  0.00     0.047 C 
BRANCH   6   7
ATOM      7  C   UNL     1       7.039  -0.246  -1.119  1.00  0.00    -0.043 A 
ATOM      8  C   UNL     1       7.293  -0.466  -2.464  1.00  0.00     0.008 A 
ATOM      9  C   UNL     1       7.450  -1.202  -0.228  1.00  0.00     0.054 A 
ATOM     10  C   UNL     1       7.936  -1.603  -2.900  1.00  0.00     0.051 A 
ATOM     11  C   UNL     1       8.098  -2.350  -0.642  1.00  0.00     0.166 A 
ATOM     12  C   UNL     1       8.343  -2.555  -1.979  1.00  0.00     0.165 A 
ATOM     13  O   UNL     1       8.594  -3.431   0.065  1.00  0.00    -0.454 OA
ATOM     14  O   UNL     1       9.000  -3.782  -2.084  1.00  0.00    -0.454 OA
ATOM     15  C   UNL     1       8.886  -4.483  -0.868  1.00  0.00     0.468 C 
ENDBRANCH   6   7
ENDBRANCH   1   6
TORSDOF 4
ENDMDL
