@<TRIPOS>MOLECULE
/home/cewinharhar/GITHUB/reincatalyze/data/processed/docking_pred/2023-May-17-1006_maxeplen10_maxtrainstep1000_seadep16_gamma099_lrac9e-4_lrcr1e-3_sub6/e3e22a08cc3fa656d2264310e8071e645bf38a06_ligand_6.pdbqt
 15 16 0 0 0
SMALL
GASTEIGER

@<TRIPOS>ATOM
      1  C          6.4490    1.3140    0.7660 C.3     1  UNL1        0.1270
      2  C          5.1840    1.3370    1.4850 C.2     1  UNL1        0.3030
      3  O          4.2740    2.1490    1.3090 O.2     1  UNL1       -0.2520
      4  O          4.9810    0.3510    2.4630 O.3     1  UNL1       -0.4810
      5  H          4.0490   -0.0280    2.5260 H       1  UNL1        0.2960
      6  C          6.3210    0.9450   -0.6600 C.3     1  UNL1        0.0470
      7  C          7.0390   -0.2460   -1.1190 C.2     1  UNL1       -0.0430
      8  C          7.2930   -0.4660   -2.4640 C.2     1  UNL1        0.0080
      9  C          7.4500   -1.2020   -0.2280 C.2     1  UNL1        0.0540
     10  C          7.9360   -1.6030   -2.9000 C.2     1  UNL1        0.0510
     11  C          8.0980   -2.3500   -0.6420 C.2     1  UNL1        0.1660
     12  C          8.3430   -2.5550   -1.9790 C.2     1  UNL1        0.1650
     13  O          8.5940   -3.4310    0.0650 O.2     1  UNL1       -0.4540
     14  O          9.0000   -3.7820   -2.0840 O.2     1  UNL1       -0.4540
     15  C          8.8860   -4.4830   -0.8680 C.3     1  UNL1        0.4680
@<TRIPOS>BOND
     1    10     8    1
     2    10    12    2
     3     8     7    2
     4    14    12    1
     5    14    15    1
     6    12    11    1
     7     7     6    1
     8     7     9    1
     9    15    13    1
    10     6     1    1
    11    11     9    2
    12    11    13    1
    13     1     2    1
    14     3     2    2
    15     2     4    1
    16     4     5    1
