@<TRIPOS>MOLECULE
/home/cewinharhar/GITHUB/reincatalyze/data/processed/docking_pred/2023-May-17-1006_maxeplen10_maxtrainstep1000_seadep16_gamma099_lrac9e-4_lrcr1e-3_sub6/e3e22a08cc3fa656d2264310e8071e645bf38a06_ligand_6.pdbqt
 15 16 0 0 0
SMALL
GASTEIGER

@<TRIPOS>ATOM
      1  C          4.7420    1.8480    0.7000 C.3     1  UNL1        0.1270
      2  C          4.4320    1.1310    1.9270 C.2     1  UNL1        0.3030
      3  O          5.1570    0.2990    2.4740 O.2     1  UNL1       -0.2520
      4  O          3.2010    1.4090    2.5420 O.3     1  UNL1       -0.4810
      5  H          3.2280    1.5780    3.5350 H       1  UNL1        0.2960
      6  C          6.1710    2.1990    0.5540 C.3     1  UNL1        0.0470
      7  C          7.0130    1.2970   -0.2330 C.2     1  UNL1       -0.0430
      8  C          8.3740    1.5190   -0.3800 C.2     1  UNL1        0.0080
      9  C          6.4700    0.2210   -0.8840 C.2     1  UNL1        0.0540
     10  C          9.1610    0.6920   -1.1490 C.2     1  UNL1        0.0510
     11  C          7.2400   -0.6230   -1.6610 C.2     1  UNL1        0.1660
     12  C          8.5880   -0.3910   -1.7970 C.2     1  UNL1        0.1650
     13  O          6.9140   -1.7490   -2.3960 O.2     1  UNL1       -0.4540
     14  O          9.0880   -1.3940   -2.6280 O.2     1  UNL1       -0.4540
     15  C          8.0180   -2.0590   -3.2590 C.3     1  UNL1        0.4680
@<TRIPOS>BOND
     1    15    14    1
     2    15    13    1
     3    14    12    1
     4    13    11    1
     5    12    11    2
     6    12    10    1
     7    11     9    1
     8    10     8    2
     9     9     7    2
    10     8     7    1
    11     7     6    1
    12     6     1    1
    13     1     2    1
    14     2     3    2
    15     2     4    1
    16     4     5    1
