@<TRIPOS>MOLECULE
/home/cewinharhar/GITHUB/reincatalyze/data/processed/docking_pred/2023-May-17-1006_maxeplen10_maxtrainstep1000_seadep16_gamma099_lrac9e-4_lrcr1e-3_sub6/e3e22a08cc3fa656d2264310e8071e645bf38a06_ligand_6.pdbqt
 15 16 0 0 0
SMALL
GASTEIGER

@<TRIPOS>ATOM
      1  C          5.4180    2.8760    0.1700 C.3     1  UNL1        0.1270
      2  C          6.2780    3.8350    0.8450 C.2     1  UNL1        0.3030
      3  O          6.8650    4.7750    0.3060 O.2     1  UNL1       -0.2520
      4  O          6.4560    3.6790    2.2280 O.3     1  UNL1       -0.4810
      5  H          6.1660    2.7950    2.6170 H       1  UNL1        0.2960
      6  C          5.3380    1.5620    0.8440 C.3     1  UNL1        0.0470
      7  C          6.1150    0.4600    0.2720 C.2     1  UNL1       -0.0430
      8  C          6.5270   -0.6140    1.0460 C.2     1  UNL1        0.0080
      9  C          6.4930    0.4780   -1.0440 C.2     1  UNL1        0.0540
     10  C          7.2880   -1.6330    0.5190 C.2     1  UNL1        0.0510
     11  C          7.2560   -0.5340   -1.5950 C.2     1  UNL1        0.1660
     12  C          7.6560   -1.5930   -0.8160 C.2     1  UNL1        0.1650
     13  O          7.7450   -0.7220   -2.8760 O.2     1  UNL1       -0.4540
     14  O          8.4010   -2.4390   -1.6390 O.2     1  UNL1       -0.4540
     15  C          8.7300   -1.7660   -2.8320 C.3     1  UNL1        0.4680
@<TRIPOS>BOND
     1    13    15    1
     2    13    11    1
     3    15    14    1
     4    14    12    1
     5    11     9    1
     6    11    12    2
     7     9     7    2
     8    12    10    1
     9     1     6    1
    10     1     2    1
    11     7     6    1
    12     7     8    1
    13     3     2    2
    14    10     8    2
    15     2     4    1
    16     4     5    1
