@<TRIPOS>MOLECULE
/home/cewinharhar/GITHUB/reincatalyze/data/processed/docking_pred/2023-May-17-1006_maxeplen10_maxtrainstep1000_seadep16_gamma099_lrac9e-4_lrcr1e-3_sub6/e3fbdfe9b196bdc40f83d7817e536621cd4b8c1b_ligand_6.pdbqt
 15 16 0 0 0
SMALL
GASTEIGER

@<TRIPOS>ATOM
      1  C          5.7440    2.5550   -0.0460 C.3     1  UNL1        0.1270
      2  C          6.2040    3.6390    0.8080 C.2     1  UNL1        0.3030
      3  O          6.1100    3.6740    2.0360 O.2     1  UNL1       -0.2520
      4  O          6.8060    4.7420    0.1810 O.3     1  UNL1       -0.4810
      5  H          7.6370    4.5490   -0.3570 H       1  UNL1        0.2960
      6  C          5.7340    1.2330    0.6160 C.3     1  UNL1        0.0470
      7  C          6.4880    0.1510   -0.0200 C.2     1  UNL1       -0.0430
      8  C          6.5800    0.0450   -1.3990 C.2     1  UNL1        0.0080
      9  C          7.0960   -0.8160    0.7350 C.2     1  UNL1        0.0540
     10  C          7.2580   -0.9920   -2.0000 C.2     1  UNL1        0.0510
     11  C          7.7830   -1.8660    0.1540 C.2     1  UNL1        0.1660
     12  C          7.8670   -1.9570   -1.2140 C.2     1  UNL1        0.1650
     13  O          8.4630   -2.9370    0.7080 O.2     1  UNL1       -0.4540
     14  O          8.6100   -3.1040   -1.4960 O.2     1  UNL1       -0.4540
     15  C          8.7210   -3.8910   -0.3330 C.3     1  UNL1        0.4680
@<TRIPOS>BOND
     1    10     8    1
     2    10    12    2
     3    14    12    1
     4    14    15    1
     5     8     7    2
     6    12    11    1
     7     5     4    1
     8    15    13    1
     9     1     6    1
    10     1     2    1
    11     7     6    1
    12     7     9    1
    13    11    13    1
    14    11     9    2
    15     4     2    1
    16     2     3    2
