@<TRIPOS>MOLECULE
/home/cewinharhar/GITHUB/reincatalyze/data/processed/docking_pred/2023-May-17-1006_maxeplen10_maxtrainstep1000_seadep16_gamma099_lrac9e-4_lrcr1e-3_sub6/e3fbdfe9b196bdc40f83d7817e536621cd4b8c1b_ligand_6.pdbqt
 15 16 0 0 0
SMALL
GASTEIGER

@<TRIPOS>ATOM
      1  C          5.4330    2.8670    0.1140 C.3     1  UNL1        0.1270
      2  C          6.2560    3.8500    0.8010 C.2     1  UNL1        0.3030
      3  O          6.9210    4.7340    0.2580 O.2     1  UNL1       -0.2520
      4  O          6.2980    3.7890    2.2030 O.3     1  UNL1       -0.4810
      5  H          5.9450    2.9420    2.6230 H       1  UNL1        0.2960
      6  C          5.3620    1.5590    0.8000 C.3     1  UNL1        0.0470
      7  C          6.1350    0.4530    0.2320 C.2     1  UNL1       -0.0430
      8  C          6.5600   -0.6110    1.0120 C.2     1  UNL1        0.0080
      9  C          6.4950    0.4570   -1.0900 C.2     1  UNL1        0.0540
     10  C          7.3180   -1.6330    0.4860 C.2     1  UNL1        0.0510
     11  C          7.2540   -0.5580   -1.6390 C.2     1  UNL1        0.1660
     12  C          7.6680   -1.6070   -0.8540 C.2     1  UNL1        0.1650
     13  O          7.7270   -0.7600   -2.9240 O.2     1  UNL1       -0.4540
     14  O          8.4060   -2.4600   -1.6760 O.2     1  UNL1       -0.4540
     15  C          8.7160   -1.7990   -2.8810 C.3     1  UNL1        0.4680
@<TRIPOS>BOND
     1    13    15    1
     2    13    11    1
     3    15    14    1
     4    14    12    1
     5    11     9    1
     6    11    12    2
     7     9     7    2
     8    12    10    1
     9     1     6    1
    10     1     2    1
    11     7     6    1
    12     7     8    1
    13     3     2    2
    14    10     8    2
    15     2     4    1
    16     4     5    1
