@<TRIPOS>MOLECULE
/home/cewinharhar/GITHUB/reincatalyze/data/processed/docking_pred/2023-May-17-1006_maxeplen10_maxtrainstep1000_seadep16_gamma099_lrac9e-4_lrcr1e-3_sub6/e3fbdfe9b196bdc40f83d7817e536621cd4b8c1b_ligand_6.pdbqt
 15 16 0 0 0
SMALL
GASTEIGER

@<TRIPOS>ATOM
      1  C          4.6970    1.8750    0.6840 C.3     1  UNL1        0.1270
      2  C          4.3900    1.1730    1.9200 C.2     1  UNL1        0.3030
      3  O          5.1160    0.3450    2.4740 O.2     1  UNL1       -0.2520
      4  O          3.1630    1.4620    2.5380 O.3     1  UNL1       -0.4810
      5  H          3.2120    1.9540    3.4170 H       1  UNL1        0.2960
      6  C          6.1230    2.2400    0.5390 C.3     1  UNL1        0.0470
      7  C          6.9780    1.3350   -0.2320 C.2     1  UNL1       -0.0430
      8  C          8.3390    1.5630   -0.3670 C.2     1  UNL1        0.0080
      9  C          6.4470    0.2510   -0.8790 C.2     1  UNL1        0.0540
     10  C          9.1380    0.7330   -1.1210 C.2     1  UNL1        0.0510
     11  C          7.2300   -0.5960   -1.6410 C.2     1  UNL1        0.1660
     12  C          8.5780   -0.3580   -1.7640 C.2     1  UNL1        0.1650
     13  O          6.9170   -1.7300   -2.3690 O.2     1  UNL1       -0.4540
     14  O          9.0910   -1.3660   -2.5820 O.2     1  UNL1       -0.4540
     15  C          8.0310   -2.0420   -3.2180 C.3     1  UNL1        0.4680
@<TRIPOS>BOND
     1    15    14    1
     2    15    13    1
     3    14    12    1
     4    13    11    1
     5    12    11    2
     6    12    10    1
     7    11     9    1
     8    10     8    2
     9     9     7    2
    10     8     7    1
    11     7     6    1
    12     6     1    1
    13     1     2    1
    14     2     3    2
    15     2     4    1
    16     4     5    1
