@<TRIPOS>MOLECULE
/home/cewinharhar/GITHUB/reincatalyze/data/processed/docking_pred/2023-May-17-1006_maxeplen10_maxtrainstep1000_seadep16_gamma099_lrac9e-4_lrcr1e-3_sub6/e3fbdfe9b196bdc40f83d7817e536621cd4b8c1b_ligand_6.pdbqt
 15 16 0 0 0
SMALL
GASTEIGER

@<TRIPOS>ATOM
      1  C          8.3090   -0.3180   -2.8570 C.3     1  UNL1        0.1270
      2  C          8.4690   -1.7480   -3.0720 C.2     1  UNL1        0.3030
      3  O          9.5350   -2.3640   -3.0320 O.2     1  UNL1       -0.2520
      4  O          7.3110   -2.4910   -3.3490 O.3     1  UNL1       -0.4810
      5  H          6.9870   -3.1010   -2.6140 H       1  UNL1        0.2960
      6  C          8.7620    0.1430   -1.5280 C.3     1  UNL1        0.0470
      7  C          7.7930    0.1040   -0.4300 C.2     1  UNL1       -0.0430
      8  C          7.7420   -0.9630    0.4540 C.2     1  UNL1        0.0080
      9  C          6.8780    1.1100   -0.2680 C.2     1  UNL1        0.0540
     10  C          6.8080   -1.0180    1.4640 C.2     1  UNL1        0.0510
     11  C          5.9310    1.0760    0.7390 C.2     1  UNL1        0.1660
     12  C          5.8930    0.0130    1.6080 C.2     1  UNL1        0.1650
     13  O          4.9270    1.9630    1.0860 O.2     1  UNL1       -0.4540
     14  O          4.8470    0.2580    2.4990 O.2     1  UNL1       -0.4540
     15  C          4.0420    1.3020    2.0030 C.3     1  UNL1        0.4680
@<TRIPOS>BOND
     1     4     2    1
     2     4     5    1
     3     2     3    2
     4     2     1    1
     5     1     6    1
     6     6     7    1
     7     7     9    2
     8     7     8    1
     9     9    11    1
    10     8    10    2
    11    11    13    1
    12    11    12    2
    13    13    15    1
    14    10    12    1
    15    12    14    1
    16    15    14    1
