MODEL 1
REMARK VINA RESULT:      -7.6      0.000      0.000
REMARK SMILES O=C(O)CCc1ccc2c(c1)OCO2
REMARK SMILES IDX 4 1 2 2 1 3 3 4 5 6 6 7 7 8 11 9 8 10 10 11 9 12 12 13 14 14
REMARK SMILES IDX 13 15
REMARK H PARENT 3 5
REMARK Flexibility Score: inf
ROOT
ATOM      1  C   UNL     1       5.433   2.867   0.114  1.00  0.00     0.127 C 
ENDROOT
BRANCH   1   2
ATOM      2  C   UNL     1       6.256   3.850   0.801  1.00  0.00     0.303 C 
ATOM      3  O   UNL     1       6.921   4.734   0.258  1.00  0.00    -0.252 OA
BRANCH   2   4
ATOM      4  O   UNL     1       6.298   3.789   2.203  1.00  0.00    -0.481 OA
ATOM      5  H   UNL     1       5.945   2.942   2.623  1.00  0.00     0.296 HD
ENDBRANCH   2   4
ENDBRANCH   1   2
BRANCH   1   6
ATOM      6  C   UNL     1       5.362   1.559   0.800  1.00  0.00     0.047 C 
BRANCH   6   7
ATOM      7  C   UNL     1       6.135   0.453   0.232  1.00  0.00    -0.043 A 
ATOM      8  C   UNL     1       6.560  -0.611   1.012  1.00  0.00     0.008 A 
ATOM      9  C   UNL     1       6.495   0.457  -1.090  1.00  0.00     0.054 A 
ATOM     10  C   UNL     1       7.318  -1.633   0.486  1.00  0.00     0.051 A 
ATOM     11  C   UNL     1       7.254  -0.558  -1.639  1.00  0.00     0.166 A 
ATOM     12  C   UNL     1       7.668  -1.607  -0.854  1.00  0.00     0.165 A 
ATOM     13  O   UNL     1       7.727  -0.760  -2.924  1.00  0.00    -0.454 OA
ATOM     14  O   UNL     1       8.406  -2.460  -1.676  1.00  0.00    -0.454 OA
ATOM     15  C   UNL     1       8.716  -1.799  -2.881  1.00  0.00     0.468 C 
ENDBRANCH   6   7
ENDBRANCH   1   6
TORSDOF 4
ENDMDL
MODEL 2
REMARK VINA RESULT:      -7.6      2.127      2.521
REMARK SMILES O=C(O)CCc1ccc2c(c1)OCO2
REMARK SMILES IDX 4 1 2 2 1 3 3 4 5 6 6 7 7 8 11 9 8 10 10 11 9 12 12 13 14 14
REMARK SMILES IDX 13 15
REMARK H PARENT 3 5
REMARK Flexibility Score: inf
ROOT
ATOM      1  C   UNL     1       4.697   1.875   0.684  1.00  0.00     0.127 C 
ENDROOT
BRANCH   1   2
ATOM      2  C   UNL     1       4.390   1.173   1.920  1.00  0.00     0.303 C 
ATOM      3  O   UNL     1       5.116   0.345   2.474  1.00  0.00    -0.252 OA
BRANCH   2   4
ATOM      4  O   UNL     1       3.163   1.462   2.538  1.00  0.00    -0.481 OA
ATOM      5  H   UNL     1       3.212   1.954   3.417  1.00  0.00     0.296 HD
ENDBRANCH   2   4
ENDBRANCH   1   2
BRANCH   1   6
ATOM      6  C   UNL     1       6.123   2.240   0.539  1.00  0.00     0.047 C 
BRANCH   6   7
ATOM      7  C   UNL     1       6.978   1.335  -0.232  1.00  0.00    -0.043 A 
ATOM      8  C   UNL     1       8.339   1.563  -0.367  1.00  0.00     0.008 A 
ATOM      9  C   UNL     1       6.447   0.251  -0.879  1.00  0.00     0.054 A 
ATOM     10  C   UNL     1       9.138   0.733  -1.121  1.00  0.00     0.051 A 
ATOM     11  C   UNL     1       7.230  -0.596  -1.641  1.00  0.00     0.166 A 
ATOM     12  C   UNL     1       8.578  -0.358  -1.764  1.00  0.00     0.165 A 
ATOM     13  O   UNL     1       6.917  -1.730  -2.369  1.00  0.00    -0.454 OA
ATOM     14  O   UNL     1       9.091  -1.366  -2.582  1.00  0.00    -0.454 OA
ATOM     15  C   UNL     1       8.031  -2.042  -3.218  1.00  0.00     0.468 C 
ENDBRANCH   6   7
ENDBRANCH   1   6
TORSDOF 4
ENDMDL
MODEL 3
REMARK VINA RESULT:      -7.5      1.978      2.880
REMARK SMILES O=C(O)CCc1ccc2c(c1)OCO2
REMARK SMILES IDX 4 1 2 2 1 3 3 4 5 6 6 7 7 8 11 9 8 10 10 11 9 12 12 13 14 14
REMARK SMILES IDX 13 15
REMARK H PARENT 3 5
REMARK Flexibility Score: inf
ROOT
ATOM      1  C   UNL     1       6.421   1.288   0.750  1.00  0.00     0.127 C 
ENDROOT
BRANCH   1   2
ATOM      2  C   UNL     1       5.172   1.297   1.496  1.00  0.00     0.303 C 
ATOM      3  O   UNL     1       4.250   2.099   1.341  1.00  0.00    -0.252 OA
BRANCH   2   4
ATOM      4  O   UNL     1       5.001   0.309   2.478  1.00  0.00    -0.481 OA
ATOM      5  H   UNL     1       5.101   0.610   3.435  1.00  0.00     0.296 HD
ENDBRANCH   2   4
ENDBRANCH   1   2
BRANCH   1   6
ATOM      6  C   UNL     1       6.275   0.869  -0.660  1.00  0.00     0.047 C 
BRANCH   6   7
ATOM      7  C   UNL     1       7.011  -0.320  -1.093  1.00  0.00    -0.043 A 
ATOM      8  C   UNL     1       7.298  -0.548  -2.430  1.00  0.00     0.008 A 
ATOM      9  C   UNL     1       7.407  -1.267  -0.187  1.00  0.00     0.054 A 
ATOM     10  C   UNL     1       7.959  -1.683  -2.843  1.00  0.00     0.051 A 
ATOM     11  C   UNL     1       8.072  -2.414  -0.578  1.00  0.00     0.166 A 
ATOM     12  C   UNL     1       8.351  -2.626  -1.906  1.00  0.00     0.165 A 
ATOM     13  O   UNL     1       8.559  -3.487   0.149  1.00  0.00    -0.454 OA
ATOM     14  O   UNL     1       9.018  -3.849  -1.988  1.00  0.00    -0.454 OA
ATOM     15  C   UNL     1       8.880  -4.543  -0.770  1.00  0.00     0.468 C 
ENDBRANCH   6   7
ENDBRANCH   1   6
TORSDOF 4
ENDMDL
MODEL 4
REMARK VINA RESULT:      -7.4      1.791      5.284
REMARK SMILES O=C(O)CCc1ccc2c(c1)OCO2
REMARK SMILES IDX 4 1 2 2 1 3 3 4 5 6 6 7 7 8 11 9 8 10 10 11 9 12 12 13 14 14
REMARK SMILES IDX 13 15
REMARK H PARENT 3 5
REMARK Flexibility Score: inf
ROOT
ATOM      1  C   UNL     1       8.309  -0.318  -2.857  1.00  0.00     0.127 C 
ENDROOT
BRANCH   1   2
ATOM      2  C   UNL     1       8.469  -1.748  -3.072  1.00  0.00     0.303 C 
ATOM      3  O   UNL     1       9.535  -2.364  -3.032  1.00  0.00    -0.252 OA
BRANCH   2   4
ATOM      4  O   UNL     1       7.311  -2.491  -3.349  1.00  0.00    -0.481 OA
ATOM      5  H   UNL     1       6.987  -3.101  -2.614  1.00  0.00     0.296 HD
ENDBRANCH   2   4
ENDBRANCH   1   2
BRANCH   1   6
ATOM      6  C   UNL     1       8.762   0.143  -1.528  1.00  0.00     0.047 C 
BRANCH   6   7
ATOM      7  C   UNL     1       7.793   0.104  -0.430  1.00  0.00    -0.043 A 
ATOM      8  C   UNL     1       7.742  -0.963   0.454  1.00  0.00     0.008 A 
ATOM      9  C   UNL     1       6.878   1.110  -0.268  1.00  0.00     0.054 A 
ATOM     10  C   UNL     1       6.808  -1.018   1.464  1.00  0.00     0.051 A 
ATOM     11  C   UNL     1       5.931   1.076   0.739  1.00  0.00     0.166 A 
ATOM     12  C   UNL     1       5.893   0.013   1.608  1.00  0.00     0.165 A 
ATOM     13  O   UNL     1       4.927   1.963   1.086  1.00  0.00    -0.454 OA
ATOM     14  O   UNL     1       4.847   0.258   2.499  1.00  0.00    -0.454 OA
ATOM     15  C   UNL     1       4.042   1.302   2.003  1.00  0.00     0.468 C 
ENDBRANCH   6   7
ENDBRANCH   1   6
TORSDOF 4
ENDMDL
MODEL 5
REMARK VINA RESULT:      -7.4      1.055      2.146
REMARK SMILES O=C(O)CCc1ccc2c(c1)OCO2
REMARK SMILES IDX 4 1 2 2 1 3 3 4 5 6 6 7 7 8 11 9 8 10 10 11 9 12 12 13 14 14
REMARK SMILES IDX 13 15
REMARK H PARENT 3 5
REMARK Flexibility Score: inf
ROOT
ATOM      1  C   UNL     1       5.744   2.555  -0.046  1.00  0.00     0.127 C 
ENDROOT
BRANCH   1   2
ATOM      2  C   UNL     1       6.204   3.639   0.808  1.00  0.00     0.303 C 
ATOM      3  O   UNL     1       6.110   3.674   2.036  1.00  0.00    -0.252 OA
BRANCH   2   4
ATOM      4  O   UNL     1       6.806   4.742   0.181  1.00  0.00    -0.481 OA
ATOM      5  H   UNL     1       7.637   4.549  -0.357  1.00  0.00     0.296 HD
ENDBRANCH   2   4
ENDBRANCH   1   2
BRANCH   1   6
ATOM      6  C   UNL     1       5.734   1.233   0.616  1.00  0.00     0.047 C 
BRANCH   6   7
ATOM      7  C   UNL     1       6.488   0.151  -0.020  1.00  0.00    -0.043 A 
ATOM      8  C   UNL     1       6.580   0.045  -1.399  1.00  0.00     0.008 A 
ATOM      9  C   UNL     1       7.096  -0.816   0.735  1.00  0.00     0.054 A 
ATOM     10  C   UNL     1       7.258  -0.992  -2.000  1.00  0.00     0.051 A 
ATOM     11  C   UNL     1       7.783  -1.866   0.154  1.00  0.00     0.166 A 
ATOM     12  C   UNL     1       7.867  -1.957  -1.214  1.00  0.00     0.165 A 
ATOM     13  O   UNL     1       8.463  -2.937   0.708  1.00  0.00    -0.454 OA
ATOM     14  O   UNL     1       8.610  -3.104  -1.496  1.00  0.00    -0.454 OA
ATOM     15  C   UNL     1       8.721  -3.891  -0.333  1.00  0.00     0.468 C 
ENDBRANCH   6   7
ENDBRANCH   1   6
TORSDOF 4
ENDMDL
