MODEL 1
REMARK VINA RESULT:      -7.7      0.000      0.000
REMARK SMILES O=C(O)CCc1ccc2c(c1)OCO2
REMARK SMILES IDX 4 1 2 2 1 3 3 4 5 6 6 7 7 8 11 9 8 10 10 11 9 12 12 13 14 14
REMARK SMILES IDX 13 15
REMARK H PARENT 3 5
REMARK Flexibility Score: inf
ROOT
ATOM      1  C   UNL     1       5.418   2.873   0.119  1.00  0.00     0.127 C 
ENDROOT
BRANCH   1   2
ATOM      2  C   UNL     1       6.247   3.861   0.792  1.00  0.00     0.303 C 
ATOM      3  O   UNL     1       6.891   4.754   0.239  1.00  0.00    -0.252 OA
BRANCH   2   4
ATOM      4  O   UNL     1       6.320   3.793   2.192  1.00  0.00    -0.481 OA
ATOM      5  H   UNL     1       6.747   2.964   2.576  1.00  0.00     0.296 HD
ENDBRANCH   2   4
ENDBRANCH   1   2
BRANCH   1   6
ATOM      6  C   UNL     1       5.355   1.569   0.813  1.00  0.00     0.047 C 
BRANCH   6   7
ATOM      7  C   UNL     1       6.136   0.464   0.251  1.00  0.00    -0.043 A 
ATOM      8  C   UNL     1       6.588  -0.579   1.044  1.00  0.00     0.008 A 
ATOM      9  C   UNL     1       6.476   0.451  -1.075  1.00  0.00     0.054 A 
ATOM     10  C   UNL     1       7.353  -1.600   0.524  1.00  0.00     0.051 A 
ATOM     11  C   UNL     1       7.242  -0.563  -1.618  1.00  0.00     0.166 A 
ATOM     12  C   UNL     1       7.683  -1.592  -0.821  1.00  0.00     0.165 A 
ATOM     13  O   UNL     1       7.699  -0.780  -2.906  1.00  0.00    -0.454 OA
ATOM     14  O   UNL     1       8.421  -2.448  -1.640  1.00  0.00    -0.454 OA
ATOM     15  C   UNL     1       8.704  -1.804  -2.860  1.00  0.00     0.468 C 
ENDBRANCH   6   7
ENDBRANCH   1   6
TORSDOF 4
ENDMDL
MODEL 2
REMARK VINA RESULT:      -7.7      2.138      2.522
REMARK SMILES O=C(O)CCc1ccc2c(c1)OCO2
REMARK SMILES IDX 4 1 2 2 1 3 3 4 5 6 6 7 7 8 11 9 8 10 10 11 9 12 12 13 14 14
REMARK SMILES IDX 13 15
REMARK H PARENT 3 5
REMARK Flexibility Score: inf
ROOT
ATOM      1  C   UNL     1       4.706   1.857   0.690  1.00  0.00     0.127 C 
ENDROOT
BRANCH   1   2
ATOM      2  C   UNL     1       4.413   1.143   1.923  1.00  0.00     0.303 C 
ATOM      3  O   UNL     1       5.150   0.319   2.466  1.00  0.00    -0.252 OA
BRANCH   2   4
ATOM      4  O   UNL     1       3.187   1.415   2.549  1.00  0.00    -0.481 OA
ATOM      5  H   UNL     1       2.664   0.615   2.871  1.00  0.00     0.296 HD
ENDBRANCH   2   4
ENDBRANCH   1   2
BRANCH   1   6
ATOM      6  C   UNL     1       6.129   2.228   0.534  1.00  0.00     0.047 C 
BRANCH   6   7
ATOM      7  C   UNL     1       6.984   1.322  -0.236  1.00  0.00    -0.043 A 
ATOM      8  C   UNL     1       8.346   1.547  -0.366  1.00  0.00     0.008 A 
ATOM      9  C   UNL     1       6.452   0.240  -0.886  1.00  0.00     0.054 A 
ATOM     10  C   UNL     1       9.145   0.716  -1.119  1.00  0.00     0.051 A 
ATOM     11  C   UNL     1       7.234  -0.608  -1.647  1.00  0.00     0.166 A 
ATOM     12  C   UNL     1       8.583  -0.373  -1.766  1.00  0.00     0.165 A 
ATOM     13  O   UNL     1       6.920  -1.740  -2.377  1.00  0.00    -0.454 OA
ATOM     14  O   UNL     1       9.096  -1.381  -2.584  1.00  0.00    -0.454 OA
ATOM     15  C   UNL     1       8.036  -2.053  -3.224  1.00  0.00     0.468 C 
ENDBRANCH   6   7
ENDBRANCH   1   6
TORSDOF 4
ENDMDL
MODEL 3
REMARK VINA RESULT:      -7.6      1.995      2.983
REMARK SMILES O=C(O)CCc1ccc2c(c1)OCO2
REMARK SMILES IDX 4 1 2 2 1 3 3 4 5 6 6 7 7 8 11 9 8 10 10 11 9 12 12 13 14 14
REMARK SMILES IDX 13 15
REMARK H PARENT 3 5
REMARK Flexibility Score: inf
ROOT
ATOM      1  C   UNL     1       6.464   1.274   0.768  1.00  0.00     0.127 C 
ENDROOT
BRANCH   1   2
ATOM      2  C   UNL     1       5.258   1.169   1.574  1.00  0.00     0.303 C 
ATOM      3  O   UNL     1       5.054   0.332   2.455  1.00  0.00    -0.252 OA
BRANCH   2   4
ATOM      4  O   UNL     1       4.236   2.100   1.328  1.00  0.00    -0.481 OA
ATOM      5  H   UNL     1       4.436   3.057   1.578  1.00  0.00     0.296 HD
ENDBRANCH   2   4
ENDBRANCH   1   2
BRANCH   1   6
ATOM      6  C   UNL     1       6.289   0.842  -0.635  1.00  0.00     0.047 C 
BRANCH   6   7
ATOM      7  C   UNL     1       7.017  -0.351  -1.072  1.00  0.00    -0.043 A 
ATOM      8  C   UNL     1       7.279  -0.589  -2.413  1.00  0.00     0.008 A 
ATOM      9  C   UNL     1       7.428  -1.292  -0.166  1.00  0.00     0.054 A 
ATOM     10  C   UNL     1       7.932  -1.728  -2.829  1.00  0.00     0.051 A 
ATOM     11  C   UNL     1       8.085  -2.442  -0.560  1.00  0.00     0.166 A 
ATOM     12  C   UNL     1       8.339  -2.664  -1.892  1.00  0.00     0.165 A 
ATOM     13  O   UNL     1       8.584  -3.510   0.165  1.00  0.00    -0.454 OA
ATOM     14  O   UNL     1       9.004  -3.888  -1.977  1.00  0.00    -0.454 OA
ATOM     15  C   UNL     1       8.888  -4.573  -0.751  1.00  0.00     0.468 C 
ENDBRANCH   6   7
ENDBRANCH   1   6
TORSDOF 4
ENDMDL
MODEL 4
REMARK VINA RESULT:      -7.5      1.801      5.281
REMARK SMILES O=C(O)CCc1ccc2c(c1)OCO2
REMARK SMILES IDX 4 1 2 2 1 3 3 4 5 6 6 7 7 8 11 9 8 10 10 11 9 12 12 13 14 14
REMARK SMILES IDX 13 15
REMARK H PARENT 3 5
REMARK Flexibility Score: inf
ROOT
ATOM      1  C   UNL     1       8.300  -0.328  -2.854  1.00  0.00     0.127 C 
ENDROOT
BRANCH   1   2
ATOM      2  C   UNL     1       8.471  -1.756  -3.072  1.00  0.00     0.303 C 
ATOM      3  O   UNL     1       9.542  -2.364  -3.035  1.00  0.00    -0.252 OA
BRANCH   2   4
ATOM      4  O   UNL     1       7.318  -2.507  -3.349  1.00  0.00    -0.481 OA
ATOM      5  H   UNL     1       6.479  -1.981  -3.542  1.00  0.00     0.296 HD
ENDBRANCH   2   4
ENDBRANCH   1   2
BRANCH   1   6
ATOM      6  C   UNL     1       8.755   0.134  -1.525  1.00  0.00     0.047 C 
BRANCH   6   7
ATOM      7  C   UNL     1       7.789   0.091  -0.426  1.00  0.00    -0.043 A 
ATOM      8  C   UNL     1       7.746  -0.976   0.460  1.00  0.00     0.008 A 
ATOM      9  C   UNL     1       6.868   1.091  -0.263  1.00  0.00     0.054 A 
ATOM     10  C   UNL     1       6.814  -1.036   1.472  1.00  0.00     0.051 A 
ATOM     11  C   UNL     1       5.924   1.053   0.746  1.00  0.00     0.166 A 
ATOM     12  C   UNL     1       5.894  -0.010   1.617  1.00  0.00     0.165 A 
ATOM     13  O   UNL     1       4.915   1.934   1.095  1.00  0.00    -0.454 OA
ATOM     14  O   UNL     1       4.848   0.230   2.510  1.00  0.00    -0.454 OA
ATOM     15  C   UNL     1       4.036   1.269   2.014  1.00  0.00     0.468 C 
ENDBRANCH   6   7
ENDBRANCH   1   6
TORSDOF 4
ENDMDL
