@<TRIPOS>MOLECULE
/home/cewinharhar/GITHUB/reincatalyze/data/processed/docking_pred/2023-May-17-1006_maxeplen10_maxtrainstep1000_seadep16_gamma099_lrac9e-4_lrcr1e-3_sub6/e69dee760b6a4f483691253cffcee702e9155e2b_ligand_6.pdbqt
 15 16 0 0 0
SMALL
GASTEIGER

@<TRIPOS>ATOM
      1  C          5.4180    2.8730    0.1190 C.3     1  UNL1        0.1270
      2  C          6.2470    3.8610    0.7920 C.2     1  UNL1        0.3030
      3  O          6.8910    4.7540    0.2390 O.2     1  UNL1       -0.2520
      4  O          6.3200    3.7930    2.1920 O.3     1  UNL1       -0.4810
      5  H          6.7470    2.9640    2.5760 H       1  UNL1        0.2960
      6  C          5.3550    1.5690    0.8130 C.3     1  UNL1        0.0470
      7  C          6.1360    0.4640    0.2510 C.2     1  UNL1       -0.0430
      8  C          6.5880   -0.5790    1.0440 C.2     1  UNL1        0.0080
      9  C          6.4760    0.4510   -1.0750 C.2     1  UNL1        0.0540
     10  C          7.3530   -1.6000    0.5240 C.2     1  UNL1        0.0510
     11  C          7.2420   -0.5630   -1.6180 C.2     1  UNL1        0.1660
     12  C          7.6830   -1.5920   -0.8210 C.2     1  UNL1        0.1650
     13  O          7.6990   -0.7800   -2.9060 O.2     1  UNL1       -0.4540
     14  O          8.4210   -2.4480   -1.6400 O.2     1  UNL1       -0.4540
     15  C          8.7040   -1.8040   -2.8600 C.3     1  UNL1        0.4680
@<TRIPOS>BOND
     1    13    15    1
     2    13    11    1
     3    15    14    1
     4    14    12    1
     5    11     9    1
     6    11    12    2
     7     9     7    2
     8    12    10    1
     9     1     2    1
    10     1     6    1
    11     3     2    2
    12     7     6    1
    13     7     8    1
    14    10     8    2
    15     2     4    1
    16     4     5    1
