@<TRIPOS>MOLECULE
/home/cewinharhar/GITHUB/reincatalyze/data/processed/docking_pred/2023-May-17-1006_maxeplen10_maxtrainstep1000_seadep16_gamma099_lrac9e-4_lrcr1e-3_sub6/e69dee760b6a4f483691253cffcee702e9155e2b_ligand_6.pdbqt
 15 16 0 0 0
SMALL
GASTEIGER

@<TRIPOS>ATOM
      1  C          6.4640    1.2740    0.7680 C.3     1  UNL1        0.1270
      2  C          5.2580    1.1690    1.5740 C.2     1  UNL1        0.3030
      3  O          5.0540    0.3320    2.4550 O.2     1  UNL1       -0.2520
      4  O          4.2360    2.1000    1.3280 O.3     1  UNL1       -0.4810
      5  H          4.4360    3.0570    1.5780 H       1  UNL1        0.2960
      6  C          6.2890    0.8420   -0.6350 C.3     1  UNL1        0.0470
      7  C          7.0170   -0.3510   -1.0720 C.2     1  UNL1       -0.0430
      8  C          7.2790   -0.5890   -2.4130 C.2     1  UNL1        0.0080
      9  C          7.4280   -1.2920   -0.1660 C.2     1  UNL1        0.0540
     10  C          7.9320   -1.7280   -2.8290 C.2     1  UNL1        0.0510
     11  C          8.0850   -2.4420   -0.5600 C.2     1  UNL1        0.1660
     12  C          8.3390   -2.6640   -1.8920 C.2     1  UNL1        0.1650
     13  O          8.5840   -3.5100    0.1650 O.2     1  UNL1       -0.4540
     14  O          9.0040   -3.8880   -1.9770 O.2     1  UNL1       -0.4540
     15  C          8.8880   -4.5730   -0.7510 C.3     1  UNL1        0.4680
@<TRIPOS>BOND
     1    10     8    1
     2    10    12    2
     3     8     7    2
     4    14    12    1
     5    14    15    1
     6    12    11    1
     7     7     6    1
     8     7     9    1
     9    15    13    1
    10     6     1    1
    11    11     9    2
    12    11    13    1
    13     1     2    1
    14     4     2    1
    15     4     5    1
    16     2     3    2
