@<TRIPOS>MOLECULE
/home/cewinharhar/GITHUB/reincatalyze/data/processed/docking_pred/2023-May-17-1006_maxeplen10_maxtrainstep1000_seadep16_gamma099_lrac9e-4_lrcr1e-3_sub6/e69dee760b6a4f483691253cffcee702e9155e2b_ligand_6.pdbqt
 15 16 0 0 0
SMALL
GASTEIGER

@<TRIPOS>ATOM
      1  C          4.7060    1.8570    0.6900 C.3     1  UNL1        0.1270
      2  C          4.4130    1.1430    1.9230 C.2     1  UNL1        0.3030
      3  O          5.1500    0.3190    2.4660 O.2     1  UNL1       -0.2520
      4  O          3.1870    1.4150    2.5490 O.3     1  UNL1       -0.4810
      5  H          2.6640    0.6150    2.8710 H       1  UNL1        0.2960
      6  C          6.1290    2.2280    0.5340 C.3     1  UNL1        0.0470
      7  C          6.9840    1.3220   -0.2360 C.2     1  UNL1       -0.0430
      8  C          8.3460    1.5470   -0.3660 C.2     1  UNL1        0.0080
      9  C          6.4520    0.2400   -0.8860 C.2     1  UNL1        0.0540
     10  C          9.1450    0.7160   -1.1190 C.2     1  UNL1        0.0510
     11  C          7.2340   -0.6080   -1.6470 C.2     1  UNL1        0.1660
     12  C          8.5830   -0.3730   -1.7660 C.2     1  UNL1        0.1650
     13  O          6.9200   -1.7400   -2.3770 O.2     1  UNL1       -0.4540
     14  O          9.0960   -1.3810   -2.5840 O.2     1  UNL1       -0.4540
     15  C          8.0360   -2.0530   -3.2240 C.3     1  UNL1        0.4680
@<TRIPOS>BOND
     1    15    14    1
     2    15    13    1
     3    14    12    1
     4    13    11    1
     5    12    11    2
     6    12    10    1
     7    11     9    1
     8    10     8    2
     9     9     7    2
    10     8     7    1
    11     7     6    1
    12     6     1    1
    13     1     2    1
    14     2     3    2
    15     2     4    1
    16     4     5    1
