@<TRIPOS>MOLECULE
/home/cewinharhar/GITHUB/reincatalyze/data/processed/docking_pred/2023-May-17-1006_maxeplen10_maxtrainstep1000_seadep16_gamma099_lrac9e-4_lrcr1e-3_sub6/e69dee760b6a4f483691253cffcee702e9155e2b_ligand_6.pdbqt
 15 16 0 0 0
SMALL
GASTEIGER

@<TRIPOS>ATOM
      1  C          8.3000   -0.3280   -2.8540 C.3     1  UNL1        0.1270
      2  C          8.4710   -1.7560   -3.0720 C.2     1  UNL1        0.3030
      3  O          9.5420   -2.3640   -3.0350 O.2     1  UNL1       -0.2520
      4  O          7.3180   -2.5070   -3.3490 O.3     1  UNL1       -0.4810
      5  H          6.4790   -1.9810   -3.5420 H       1  UNL1        0.2960
      6  C          8.7550    0.1340   -1.5250 C.3     1  UNL1        0.0470
      7  C          7.7890    0.0910   -0.4260 C.2     1  UNL1       -0.0430
      8  C          7.7460   -0.9760    0.4600 C.2     1  UNL1        0.0080
      9  C          6.8680    1.0910   -0.2630 C.2     1  UNL1        0.0540
     10  C          6.8140   -1.0360    1.4720 C.2     1  UNL1        0.0510
     11  C          5.9240    1.0530    0.7460 C.2     1  UNL1        0.1660
     12  C          5.8940   -0.0100    1.6170 C.2     1  UNL1        0.1650
     13  O          4.9150    1.9340    1.0950 O.2     1  UNL1       -0.4540
     14  O          4.8480    0.2300    2.5100 O.2     1  UNL1       -0.4540
     15  C          4.0360    1.2690    2.0140 C.3     1  UNL1        0.4680
@<TRIPOS>BOND
     1     5     4    1
     2     4     2    1
     3     2     3    2
     4     2     1    1
     5     1     6    1
     6     6     7    1
     7     7     9    2
     8     7     8    1
     9     9    11    1
    10     8    10    2
    11    11    13    1
    12    11    12    2
    13    13    15    1
    14    10    12    1
    15    12    14    1
    16    15    14    1
