@<TRIPOS>MOLECULE
/home/cewinharhar/GITHUB/reincatalyze/data/processed/docking_pred/2023-May-17-1006_maxeplen10_maxtrainstep1000_seadep16_gamma099_lrac9e-4_lrcr1e-3_sub6/e72dfb9ce69b60d9dd63e32278a4acfac8a78322_ligand_6.pdbqt
 15 16 0 0 0
SMALL
GASTEIGER

@<TRIPOS>ATOM
      1  C          5.4170    2.8620    0.1390 C.3     1  UNL1        0.1270
      2  C          6.2510    3.8390    0.8200 C.2     1  UNL1        0.3030
      3  O          6.8820    4.7480    0.2760 O.2     1  UNL1       -0.2520
      4  O          6.3470    3.7420    2.2170 O.3     1  UNL1       -0.4810
      5  H          5.5880    3.2710    2.6840 H       1  UNL1        0.2960
      6  C          5.3480    1.5520    0.8210 C.3     1  UNL1        0.0470
      7  C          6.1290    0.4510    0.2540 C.2     1  UNL1       -0.0430
      8  C          6.5950   -0.5890    1.0440 C.2     1  UNL1        0.0080
      9  C          6.4580    0.4370   -1.0750 C.2     1  UNL1        0.0540
     10  C          7.3610   -1.6060    0.5190 C.2     1  UNL1        0.0510
     11  C          7.2240   -0.5740   -1.6240 C.2     1  UNL1        0.1660
     12  C          7.6780   -1.5990   -0.8290 C.2     1  UNL1        0.1650
     13  O          7.6700   -0.7910   -2.9160 O.2     1  UNL1       -0.4540
     14  O          8.4120   -2.4530   -1.6540 O.2     1  UNL1       -0.4540
     15  C          8.6810   -1.8090   -2.8780 C.3     1  UNL1        0.4680
@<TRIPOS>BOND
     1    13    15    1
     2    13    11    1
     3    15    14    1
     4    14    12    1
     5    11     9    1
     6    11    12    2
     7     9     7    2
     8    12    10    1
     9     1     2    1
    10     1     6    1
    11     7     6    1
    12     7     8    1
    13     3     2    2
    14    10     8    2
    15     2     4    1
    16     4     5    1
