@<TRIPOS>MOLECULE
/home/cewinharhar/GITHUB/reincatalyze/data/processed/docking_pred/2023-May-17-1006_maxeplen10_maxtrainstep1000_seadep16_gamma099_lrac9e-4_lrcr1e-3_sub6/e72dfb9ce69b60d9dd63e32278a4acfac8a78322_ligand_6.pdbqt
 15 16 0 0 0
SMALL
GASTEIGER

@<TRIPOS>ATOM
      1  C          8.2990   -0.3130   -2.8360 C.3     1  UNL1        0.1270
      2  C          8.4650   -1.7410   -3.0610 C.2     1  UNL1        0.3030
      3  O          9.5330   -2.3540   -3.0200 O.2     1  UNL1       -0.2520
      4  O          7.3120   -2.4860   -3.3510 O.3     1  UNL1       -0.4810
      5  H          6.7160   -2.7070   -2.5680 H       1  UNL1        0.2960
      6  C          8.7610    0.1420   -1.5080 C.3     1  UNL1        0.0470
      7  C          7.7960    0.1080   -0.4070 C.2     1  UNL1       -0.0430
      8  C          7.7680   -0.9390    0.5010 C.2     1  UNL1        0.0080
      9  C          6.8610    1.0990   -0.2650 C.2     1  UNL1        0.0540
     10  C          6.8380   -0.9900    1.5150 C.2     1  UNL1        0.0510
     11  C          5.9180    1.0690    0.7450 C.2     1  UNL1        0.1660
     12  C          5.9040    0.0250    1.6390 C.2     1  UNL1        0.1650
     13  O          4.8980    1.9430    1.0760 O.2     1  UNL1       -0.4540
     14  O          4.8550    0.2700    2.5270 O.2     1  UNL1       -0.4540
     15  C          4.0280    1.2860    2.0100 C.3     1  UNL1        0.4680
@<TRIPOS>BOND
     1     4     2    1
     2     4     5    1
     3     2     3    2
     4     2     1    1
     5     1     6    1
     6     6     7    1
     7     7     9    2
     8     7     8    1
     9     9    11    1
    10     8    10    2
    11    11    13    1
    12    11    12    2
    13    13    15    1
    14    10    12    1
    15    12    14    1
    16    15    14    1
