@<TRIPOS>MOLECULE
/home/cewinharhar/GITHUB/reincatalyze/data/processed/docking_pred/2023-May-17-1006_maxeplen10_maxtrainstep1000_seadep16_gamma099_lrac9e-4_lrcr1e-3_sub6/e72dfb9ce69b60d9dd63e32278a4acfac8a78322_ligand_6.pdbqt
 15 16 0 0 0
SMALL
GASTEIGER

@<TRIPOS>ATOM
      1  C          5.3310    2.8050    0.2560 C.3     1  UNL1        0.1270
      2  C          6.1700    3.7430    0.9860 C.2     1  UNL1        0.3030
      3  O          6.3190    3.7720    2.2090 O.2     1  UNL1       -0.2520
      4  O          6.8720    4.6990    0.2340 O.3     1  UNL1       -0.4810
      5  H          7.0100    4.4840   -0.7410 H       1  UNL1        0.2960
      6  C          5.2970    1.4490    0.8430 C.3     1  UNL1        0.0470
      7  C          6.1440    0.4240    0.2300 C.2     1  UNL1       -0.0430
      8  C          6.3960    0.4130   -1.1330 C.2     1  UNL1        0.0080
      9  C          6.6840   -0.5820    0.9860 C.2     1  UNL1        0.0540
     10  C          7.1630   -0.5710   -1.7160 C.2     1  UNL1        0.0510
     11  C          7.4570   -1.5800    0.4230 C.2     1  UNL1        0.1660
     12  C          7.7000   -1.5780   -0.9300 C.2     1  UNL1        0.1650
     13  O          8.0940   -2.6750    0.9800 O.2     1  UNL1       -0.4540
     14  O          8.4970   -2.6910   -1.1980 O.2     1  UNL1       -0.4540
     15  C          8.4920   -3.5530   -0.0830 C.3     1  UNL1        0.4680
@<TRIPOS>BOND
     1    10     8    1
     2    10    12    2
     3    14    12    1
     4    14    15    1
     5     8     7    2
     6    12    11    1
     7     5     4    1
     8    15    13    1
     9     7     6    1
    10     7     9    1
    11     4     2    1
    12     1     6    1
    13     1     2    1
    14    11    13    1
    15    11     9    2
    16     2     3    2
