@<TRIPOS>MOLECULE
/home/cewinharhar/GITHUB/reincatalyze/data/processed/docking_pred/2023-May-17-1006_maxeplen10_maxtrainstep1000_seadep16_gamma099_lrac9e-4_lrcr1e-3_sub6/e72dfb9ce69b60d9dd63e32278a4acfac8a78322_ligand_6.pdbqt
 15 16 0 0 0
SMALL
GASTEIGER

@<TRIPOS>ATOM
      1  C          4.7070    1.8580    0.6980 C.3     1  UNL1        0.1270
      2  C          4.4130    1.1380    1.9280 C.2     1  UNL1        0.3030
      3  O          5.1490    0.3090    2.4670 O.2     1  UNL1       -0.2520
      4  O          3.1870    1.4090    2.5550 O.3     1  UNL1       -0.4810
      5  H          2.9980    0.8960    3.4030 H       1  UNL1        0.2960
      6  C          6.1320    2.2230    0.5430 C.3     1  UNL1        0.0470
      7  C          6.9820    1.3160   -0.2310 C.2     1  UNL1       -0.0430
      8  C          8.3450    1.5360   -0.3630 C.2     1  UNL1        0.0080
      9  C          6.4450    0.2380   -0.8830 C.2     1  UNL1        0.0540
     10  C          9.1400    0.7050   -1.1200 C.2     1  UNL1        0.0510
     11  C          7.2240   -0.6110   -1.6480 C.2     1  UNL1        0.1660
     12  C          8.5730   -0.3810   -1.7690 C.2     1  UNL1        0.1650
     13  O          6.9040   -1.7400   -2.3810 O.2     1  UNL1       -0.4540
     14  O          9.0810   -1.3880   -2.5900 O.2     1  UNL1       -0.4540
     15  C          8.0180   -2.0550   -3.2300 C.3     1  UNL1        0.4680
@<TRIPOS>BOND
     1    15    14    1
     2    15    13    1
     3    14    12    1
     4    13    11    1
     5    12    11    2
     6    12    10    1
     7    11     9    1
     8    10     8    2
     9     9     7    2
    10     8     7    1
    11     7     6    1
    12     6     1    1
    13     1     2    1
    14     2     3    2
    15     2     4    1
    16     4     5    1
