@<TRIPOS>MOLECULE
/home/cewinharhar/GITHUB/reincatalyze/data/processed/docking_pred/2023-May-17-1006_maxeplen10_maxtrainstep1000_seadep16_gamma099_lrac9e-4_lrcr1e-3_sub6/e72dfb9ce69b60d9dd63e32278a4acfac8a78322_ligand_6.pdbqt
 15 16 0 0 0
SMALL
GASTEIGER

@<TRIPOS>ATOM
      1  C          6.3740    1.3370    0.6380 C.3     1  UNL1        0.1270
      2  C          5.2790    1.1400    1.5750 C.2     1  UNL1        0.3030
      3  O          5.2080    0.2430    2.4170 O.2     1  UNL1       -0.2520
      4  O          4.2100    2.0480    1.5170 O.3     1  UNL1       -0.4810
      5  H          3.4210    1.7710    0.9540 H       1  UNL1        0.2960
      6  C          6.1080    0.8080   -0.7160 C.3     1  UNL1        0.0470
      7  C          6.9040   -0.3360   -1.1650 C.2     1  UNL1       -0.0430
      8  C          7.2360   -0.5090   -2.5000 C.2     1  UNL1        0.0080
      9  C          7.3130   -1.2960   -0.2780 C.2     1  UNL1        0.0540
     10  C          7.9540   -1.6030   -2.9290 C.2     1  UNL1        0.0510
     11  C          8.0350   -2.4020   -0.6850 C.2     1  UNL1        0.1660
     12  C          8.3580   -2.5600   -2.0110 C.2     1  UNL1        0.1650
     13  O          8.5440   -3.4780    0.0210 O.2     1  UNL1       -0.4540
     14  O          9.0760   -3.7520   -2.1120 O.2     1  UNL1       -0.4540
     15  C          8.9330   -4.4900   -0.9200 C.3     1  UNL1        0.4680
@<TRIPOS>BOND
     1    10     8    1
     2    10    12    2
     3     8     7    2
     4    14    12    1
     5    14    15    1
     6    12    11    1
     7     7     6    1
     8     7     9    1
     9    15    13    1
    10     6     1    1
    11    11     9    2
    12    11    13    1
    13     1     2    1
    14     5     4    1
    15     4     2    1
    16     2     3    2
