MODEL 1
REMARK VINA RESULT:      -7.7      0.000      0.000
REMARK SMILES O=C(O)CCc1ccc2c(c1)OCO2
REMARK SMILES IDX 4 1 2 2 1 3 3 4 5 6 6 7 7 8 11 9 8 10 10 11 9 12 12 13 14 14
REMARK SMILES IDX 13 15
REMARK H PARENT 3 5
REMARK Flexibility Score: inf
ROOT
ATOM      1  C   UNL     1       5.417   2.862   0.139  1.00  0.00     0.127 C 
ENDROOT
BRANCH   1   2
ATOM      2  C   UNL     1       6.251   3.839   0.820  1.00  0.00     0.303 C 
ATOM      3  O   UNL     1       6.882   4.748   0.276  1.00  0.00    -0.252 OA
BRANCH   2   4
ATOM      4  O   UNL     1       6.347   3.742   2.217  1.00  0.00    -0.481 OA
ATOM      5  H   UNL     1       5.588   3.271   2.684  1.00  0.00     0.296 HD
ENDBRANCH   2   4
ENDBRANCH   1   2
BRANCH   1   6
ATOM      6  C   UNL     1       5.348   1.552   0.821  1.00  0.00     0.047 C 
BRANCH   6   7
ATOM      7  C   UNL     1       6.129   0.451   0.254  1.00  0.00    -0.043 A 
ATOM      8  C   UNL     1       6.595  -0.589   1.044  1.00  0.00     0.008 A 
ATOM      9  C   UNL     1       6.458   0.437  -1.075  1.00  0.00     0.054 A 
ATOM     10  C   UNL     1       7.361  -1.606   0.519  1.00  0.00     0.051 A 
ATOM     11  C   UNL     1       7.224  -0.574  -1.624  1.00  0.00     0.166 A 
ATOM     12  C   UNL     1       7.678  -1.599  -0.829  1.00  0.00     0.165 A 
ATOM     13  O   UNL     1       7.670  -0.791  -2.916  1.00  0.00    -0.454 OA
ATOM     14  O   UNL     1       8.412  -2.453  -1.654  1.00  0.00    -0.454 OA
ATOM     15  C   UNL     1       8.681  -1.809  -2.878  1.00  0.00     0.468 C 
ENDBRANCH   6   7
ENDBRANCH   1   6
TORSDOF 4
ENDMDL
MODEL 2
REMARK VINA RESULT:      -7.6      2.129      2.514
REMARK SMILES O=C(O)CCc1ccc2c(c1)OCO2
REMARK SMILES IDX 4 1 2 2 1 3 3 4 5 6 6 7 7 8 11 9 8 10 10 11 9 12 12 13 14 14
REMARK SMILES IDX 13 15
REMARK H PARENT 3 5
REMARK Flexibility Score: inf
ROOT
ATOM      1  C   UNL     1       4.707   1.858   0.698  1.00  0.00     0.127 C 
ENDROOT
BRANCH   1   2
ATOM      2  C   UNL     1       4.413   1.138   1.928  1.00  0.00     0.303 C 
ATOM      3  O   UNL     1       5.149   0.309   2.467  1.00  0.00    -0.252 OA
BRANCH   2   4
ATOM      4  O   UNL     1       3.187   1.409   2.555  1.00  0.00    -0.481 OA
ATOM      5  H   UNL     1       2.998   0.896   3.403  1.00  0.00     0.296 HD
ENDBRANCH   2   4
ENDBRANCH   1   2
BRANCH   1   6
ATOM      6  C   UNL     1       6.132   2.223   0.543  1.00  0.00     0.047 C 
BRANCH   6   7
ATOM      7  C   UNL     1       6.982   1.316  -0.231  1.00  0.00    -0.043 A 
ATOM      8  C   UNL     1       8.345   1.536  -0.363  1.00  0.00     0.008 A 
ATOM      9  C   UNL     1       6.445   0.238  -0.883  1.00  0.00     0.054 A 
ATOM     10  C   UNL     1       9.140   0.705  -1.120  1.00  0.00     0.051 A 
ATOM     11  C   UNL     1       7.224  -0.611  -1.648  1.00  0.00     0.166 A 
ATOM     12  C   UNL     1       8.573  -0.381  -1.769  1.00  0.00     0.165 A 
ATOM     13  O   UNL     1       6.904  -1.740  -2.381  1.00  0.00    -0.454 OA
ATOM     14  O   UNL     1       9.081  -1.388  -2.590  1.00  0.00    -0.454 OA
ATOM     15  C   UNL     1       8.018  -2.055  -3.230  1.00  0.00     0.468 C 
ENDBRANCH   6   7
ENDBRANCH   1   6
TORSDOF 4
ENDMDL
MODEL 3
REMARK VINA RESULT:      -7.5      1.796      5.279
REMARK SMILES O=C(O)CCc1ccc2c(c1)OCO2
REMARK SMILES IDX 4 1 2 2 1 3 3 4 5 6 6 7 7 8 11 9 8 10 10 11 9 12 12 13 14 14
REMARK SMILES IDX 13 15
REMARK H PARENT 3 5
REMARK Flexibility Score: inf
ROOT
ATOM      1  C   UNL     1       8.299  -0.313  -2.836  1.00  0.00     0.127 C 
ENDROOT
BRANCH   1   2
ATOM      2  C   UNL     1       8.465  -1.741  -3.061  1.00  0.00     0.303 C 
ATOM      3  O   UNL     1       9.533  -2.354  -3.020  1.00  0.00    -0.252 OA
BRANCH   2   4
ATOM      4  O   UNL     1       7.312  -2.486  -3.351  1.00  0.00    -0.481 OA
ATOM      5  H   UNL     1       6.716  -2.707  -2.568  1.00  0.00     0.296 HD
ENDBRANCH   2   4
ENDBRANCH   1   2
BRANCH   1   6
ATOM      6  C   UNL     1       8.761   0.142  -1.508  1.00  0.00     0.047 C 
BRANCH   6   7
ATOM      7  C   UNL     1       7.796   0.108  -0.407  1.00  0.00    -0.043 A 
ATOM      8  C   UNL     1       7.768  -0.939   0.501  1.00  0.00     0.008 A 
ATOM      9  C   UNL     1       6.861   1.099  -0.265  1.00  0.00     0.054 A 
ATOM     10  C   UNL     1       6.838  -0.990   1.515  1.00  0.00     0.051 A 
ATOM     11  C   UNL     1       5.918   1.069   0.745  1.00  0.00     0.166 A 
ATOM     12  C   UNL     1       5.904   0.025   1.639  1.00  0.00     0.165 A 
ATOM     13  O   UNL     1       4.898   1.943   1.076  1.00  0.00    -0.454 OA
ATOM     14  O   UNL     1       4.855   0.270   2.527  1.00  0.00    -0.454 OA
ATOM     15  C   UNL     1       4.028   1.286   2.010  1.00  0.00     0.468 C 
ENDBRANCH   6   7
ENDBRANCH   1   6
TORSDOF 4
ENDMDL
MODEL 4
REMARK VINA RESULT:      -7.5      0.947      2.118
REMARK SMILES O=C(O)CCc1ccc2c(c1)OCO2
REMARK SMILES IDX 4 1 2 2 1 3 3 4 5 6 6 7 7 8 11 9 8 10 10 11 9 12 12 13 14 14
REMARK SMILES IDX 13 15
REMARK H PARENT 3 5
REMARK Flexibility Score: inf
ROOT
ATOM      1  C   UNL     1       5.331   2.805   0.256  1.00  0.00     0.127 C 
ENDROOT
BRANCH   1   2
ATOM      2  C   UNL     1       6.170   3.743   0.986  1.00  0.00     0.303 C 
ATOM      3  O   UNL     1       6.319   3.772   2.209  1.00  0.00    -0.252 OA
BRANCH   2   4
ATOM      4  O   UNL     1       6.872   4.699   0.234  1.00  0.00    -0.481 OA
ATOM      5  H   UNL     1       7.010   4.484  -0.741  1.00  0.00     0.296 HD
ENDBRANCH   2   4
ENDBRANCH   1   2
BRANCH   1   6
ATOM      6  C   UNL     1       5.297   1.449   0.843  1.00  0.00     0.047 C 
BRANCH   6   7
ATOM      7  C   UNL     1       6.144   0.424   0.230  1.00  0.00    -0.043 A 
ATOM      8  C   UNL     1       6.396   0.413  -1.133  1.00  0.00     0.008 A 
ATOM      9  C   UNL     1       6.684  -0.582   0.986  1.00  0.00     0.054 A 
ATOM     10  C   UNL     1       7.163  -0.571  -1.716  1.00  0.00     0.051 A 
ATOM     11  C   UNL     1       7.457  -1.580   0.423  1.00  0.00     0.166 A 
ATOM     12  C   UNL     1       7.700  -1.578  -0.930  1.00  0.00     0.165 A 
ATOM     13  O   UNL     1       8.094  -2.675   0.980  1.00  0.00    -0.454 OA
ATOM     14  O   UNL     1       8.497  -2.691  -1.198  1.00  0.00    -0.454 OA
ATOM     15  C   UNL     1       8.492  -3.553  -0.083  1.00  0.00     0.468 C 
ENDBRANCH   6   7
ENDBRANCH   1   6
TORSDOF 4
ENDMDL
MODEL 5
REMARK VINA RESULT:      -7.4      1.974      2.951
REMARK SMILES O=C(O)CCc1ccc2c(c1)OCO2
REMARK SMILES IDX 4 1 2 2 1 3 3 4 5 6 6 7 7 8 11 9 8 10 10 11 9 12 12 13 14 14
REMARK SMILES IDX 13 15
REMARK H PARENT 3 5
REMARK Flexibility Score: inf
ROOT
ATOM      1  C   UNL     1       6.374   1.337   0.638  1.00  0.00     0.127 C 
ENDROOT
BRANCH   1   2
ATOM      2  C   UNL     1       5.279   1.140   1.575  1.00  0.00     0.303 C 
ATOM      3  O   UNL     1       5.208   0.243   2.417  1.00  0.00    -0.252 OA
BRANCH   2   4
ATOM      4  O   UNL     1       4.210   2.048   1.517  1.00  0.00    -0.481 OA
ATOM      5  H   UNL     1       3.421   1.771   0.954  1.00  0.00     0.296 HD
ENDBRANCH   2   4
ENDBRANCH   1   2
BRANCH   1   6
ATOM      6  C   UNL     1       6.108   0.808  -0.716  1.00  0.00     0.047 C 
BRANCH   6   7
ATOM      7  C   UNL     1       6.904  -0.336  -1.165  1.00  0.00    -0.043 A 
ATOM      8  C   UNL     1       7.236  -0.509  -2.500  1.00  0.00     0.008 A 
ATOM      9  C   UNL     1       7.313  -1.296  -0.278  1.00  0.00     0.054 A 
ATOM     10  C   UNL     1       7.954  -1.603  -2.929  1.00  0.00     0.051 A 
ATOM     11  C   UNL     1       8.035  -2.402  -0.685  1.00  0.00     0.166 A 
ATOM     12  C   UNL     1       8.358  -2.560  -2.011  1.00  0.00     0.165 A 
ATOM     13  O   UNL     1       8.544  -3.478   0.021  1.00  0.00    -0.454 OA
ATOM     14  O   UNL     1       9.076  -3.752  -2.112  1.00  0.00    -0.454 OA
ATOM     15  C   UNL     1       8.933  -4.490  -0.920  1.00  0.00     0.468 C 
ENDBRANCH   6   7
ENDBRANCH   1   6
TORSDOF 4
ENDMDL
