@<TRIPOS>MOLECULE
/home/cewinharhar/GITHUB/reincatalyze/data/processed/docking_pred/2023-May-17-1006_maxeplen10_maxtrainstep1000_seadep16_gamma099_lrac9e-4_lrcr1e-3_sub6/e8fc6854485d68a8d0bf78bf523603f1a9cbeca9_ligand_6.pdbqt
 15 16 0 0 0
SMALL
GASTEIGER

@<TRIPOS>ATOM
      1  C          8.2980   -0.3210   -2.8530 C.3     1  UNL1        0.1270
      2  C          8.4670   -1.7490   -3.0690 C.2     1  UNL1        0.3030
      3  O          9.5370   -2.3600   -3.0260 O.2     1  UNL1       -0.2520
      4  O          7.3150   -2.4990   -3.3510 O.3     1  UNL1       -0.4810
      5  H          6.5730   -2.4500   -2.6690 H       1  UNL1        0.2960
      6  C          8.7540    0.1430   -1.5250 C.3     1  UNL1        0.0470
      7  C          7.7880    0.1040   -0.4260 C.2     1  UNL1       -0.0430
      8  C          7.7420   -0.9600    0.4620 C.2     1  UNL1        0.0080
      9  C          6.8690    1.1080   -0.2650 C.2     1  UNL1        0.0540
     10  C          6.8100   -1.0150    1.4740 C.2     1  UNL1        0.0510
     11  C          5.9250    1.0740    0.7440 C.2     1  UNL1        0.1660
     12  C          5.8930    0.0130    1.6170 C.2     1  UNL1        0.1650
     13  O          4.9190    1.9580    1.0910 O.2     1  UNL1       -0.4540
     14  O          4.8480    0.2580    2.5100 O.2     1  UNL1       -0.4540
     15  C          4.0380    1.2970    2.0120 C.3     1  UNL1        0.4680
@<TRIPOS>BOND
     1     4     2    1
     2     4     5    1
     3     2     3    2
     4     2     1    1
     5     1     6    1
     6     6     7    1
     7     7     9    2
     8     7     8    1
     9     9    11    1
    10     8    10    2
    11    11    13    1
    12    11    12    2
    13    13    15    1
    14    10    12    1
    15    12    14    1
    16    15    14    1
