MODEL 1
REMARK VINA RESULT:      -7.7      0.000      0.000
REMARK SMILES O=C(O)CCc1ccc2c(c1)OCO2
REMARK SMILES IDX 4 1 2 2 1 3 3 4 5 6 6 7 7 8 11 9 8 10 10 11 9 12 12 13 14 14
REMARK SMILES IDX 13 15
REMARK H PARENT 3 5
REMARK Flexibility Score: inf
ROOT
ATOM      1  C   UNL     1       5.405   2.868   0.126  1.00  0.00     0.127 C 
ENDROOT
BRANCH   1   2
ATOM      2  C   UNL     1       6.234   3.843   0.817  1.00  0.00     0.303 C 
ATOM      3  O   UNL     1       6.854   4.764   0.283  1.00  0.00    -0.252 OA
BRANCH   2   4
ATOM      4  O   UNL     1       6.339   3.726   2.212  1.00  0.00    -0.481 OA
ATOM      5  H   UNL     1       6.717   4.525   2.698  1.00  0.00     0.296 HD
ENDBRANCH   2   4
ENDBRANCH   1   2
BRANCH   1   6
ATOM      6  C   UNL     1       5.325   1.558   0.807  1.00  0.00     0.047 C 
BRANCH   6   7
ATOM      7  C   UNL     1       6.107   0.454   0.246  1.00  0.00    -0.043 A 
ATOM      8  C   UNL     1       6.579  -0.578   1.042  1.00  0.00     0.008 A 
ATOM      9  C   UNL     1       6.429   0.430  -1.085  1.00  0.00     0.054 A 
ATOM     10  C   UNL     1       7.345  -1.597   0.522  1.00  0.00     0.051 A 
ATOM     11  C   UNL     1       7.196  -0.583  -1.629  1.00  0.00     0.166 A 
ATOM     12  C   UNL     1       7.656  -1.600  -0.828  1.00  0.00     0.165 A 
ATOM     13  O   UNL     1       7.637  -0.809  -2.921  1.00  0.00    -0.454 OA
ATOM     14  O   UNL     1       8.389  -2.459  -1.648  1.00  0.00    -0.454 OA
ATOM     15  C   UNL     1       8.651  -1.825  -2.879  1.00  0.00     0.468 C 
ENDBRANCH   6   7
ENDBRANCH   1   6
TORSDOF 4
ENDMDL
MODEL 2
REMARK VINA RESULT:      -7.6      2.110      2.505
REMARK SMILES O=C(O)CCc1ccc2c(c1)OCO2
REMARK SMILES IDX 4 1 2 2 1 3 3 4 5 6 6 7 7 8 11 9 8 10 10 11 9 12 12 13 14 14
REMARK SMILES IDX 13 15
REMARK H PARENT 3 5
REMARK Flexibility Score: inf
ROOT
ATOM      1  C   UNL     1       4.667   1.871   0.670  1.00  0.00     0.127 C 
ENDROOT
BRANCH   1   2
ATOM      2  C   UNL     1       4.399   1.167   1.914  1.00  0.00     0.303 C 
ATOM      3  O   UNL     1       5.155   0.360   2.459  1.00  0.00    -0.252 OA
BRANCH   2   4
ATOM      4  O   UNL     1       3.176   1.428   2.551  1.00  0.00    -0.481 OA
ATOM      5  H   UNL     1       2.500   1.954   2.019  1.00  0.00     0.296 HD
ENDBRANCH   2   4
ENDBRANCH   1   2
BRANCH   1   6
ATOM      6  C   UNL     1       6.082   2.261   0.493  1.00  0.00     0.047 C 
BRANCH   6   7
ATOM      7  C   UNL     1       6.947   1.349  -0.259  1.00  0.00    -0.043 A 
ATOM      8  C   UNL     1       8.310   1.575  -0.376  1.00  0.00     0.008 A 
ATOM      9  C   UNL     1       6.424   0.261  -0.905  1.00  0.00     0.054 A 
ATOM     10  C   UNL     1       9.119   0.739  -1.114  1.00  0.00     0.051 A 
ATOM     11  C   UNL     1       7.216  -0.592  -1.650  1.00  0.00     0.166 A 
ATOM     12  C   UNL     1       8.566  -0.357  -1.757  1.00  0.00     0.165 A 
ATOM     13  O   UNL     1       6.911  -1.732  -2.374  1.00  0.00    -0.454 OA
ATOM     14  O   UNL     1       9.089  -1.371  -2.560  1.00  0.00    -0.454 OA
ATOM     15  C   UNL     1       8.037  -2.050  -3.206  1.00  0.00     0.468 C 
ENDBRANCH   6   7
ENDBRANCH   1   6
TORSDOF 4
ENDMDL
MODEL 3
REMARK VINA RESULT:      -7.5      1.979      2.964
REMARK SMILES O=C(O)CCc1ccc2c(c1)OCO2
REMARK SMILES IDX 4 1 2 2 1 3 3 4 5 6 6 7 7 8 11 9 8 10 10 11 9 12 12 13 14 14
REMARK SMILES IDX 13 15
REMARK H PARENT 3 5
REMARK Flexibility Score: inf
ROOT
ATOM      1  C   UNL     1       6.445   1.279   0.754  1.00  0.00     0.127 C 
ENDROOT
BRANCH   1   2
ATOM      2  C   UNL     1       5.259   1.137   1.584  1.00  0.00     0.303 C 
ATOM      3  O   UNL     1       5.080   0.265   2.436  1.00  0.00    -0.252 OA
BRANCH   2   4
ATOM      4  O   UNL     1       4.229   2.073   1.402  1.00  0.00    -0.481 OA
ATOM      5  H   UNL     1       3.645   1.940   0.590  1.00  0.00     0.296 HD
ENDBRANCH   2   4
ENDBRANCH   1   2
BRANCH   1   6
ATOM      6  C   UNL     1       6.246   0.866  -0.652  1.00  0.00     0.047 C 
BRANCH   6   7
ATOM      7  C   UNL     1       6.987  -0.305  -1.125  1.00  0.00    -0.043 A 
ATOM      8  C   UNL     1       7.256  -0.498  -2.471  1.00  0.00     0.008 A 
ATOM      9  C   UNL     1       7.405  -1.271  -0.247  1.00  0.00     0.054 A 
ATOM     10  C   UNL     1       7.921  -1.617  -2.921  1.00  0.00     0.051 A 
ATOM     11  C   UNL     1       8.074  -2.401  -0.676  1.00  0.00     0.166 A 
ATOM     12  C   UNL     1       8.335  -2.578  -2.013  1.00  0.00     0.165 A 
ATOM     13  O   UNL     1       8.582  -3.486   0.017  1.00  0.00    -0.454 OA
ATOM     14  O   UNL     1       9.012  -3.793  -2.134  1.00  0.00    -0.454 OA
ATOM     15  C   UNL     1       8.898  -4.517  -0.931  1.00  0.00     0.468 C 
ENDBRANCH   6   7
ENDBRANCH   1   6
TORSDOF 4
ENDMDL
MODEL 4
REMARK VINA RESULT:      -7.5      1.787      5.282
REMARK SMILES O=C(O)CCc1ccc2c(c1)OCO2
REMARK SMILES IDX 4 1 2 2 1 3 3 4 5 6 6 7 7 8 11 9 8 10 10 11 9 12 12 13 14 14
REMARK SMILES IDX 13 15
REMARK H PARENT 3 5
REMARK Flexibility Score: inf
ROOT
ATOM      1  C   UNL     1       8.298  -0.321  -2.853  1.00  0.00     0.127 C 
ENDROOT
BRANCH   1   2
ATOM      2  C   UNL     1       8.467  -1.749  -3.069  1.00  0.00     0.303 C 
ATOM      3  O   UNL     1       9.537  -2.360  -3.026  1.00  0.00    -0.252 OA
BRANCH   2   4
ATOM      4  O   UNL     1       7.315  -2.499  -3.351  1.00  0.00    -0.481 OA
ATOM      5  H   UNL     1       6.573  -2.450  -2.669  1.00  0.00     0.296 HD
ENDBRANCH   2   4
ENDBRANCH   1   2
BRANCH   1   6
ATOM      6  C   UNL     1       8.754   0.143  -1.525  1.00  0.00     0.047 C 
BRANCH   6   7
ATOM      7  C   UNL     1       7.788   0.104  -0.426  1.00  0.00    -0.043 A 
ATOM      8  C   UNL     1       7.742  -0.960   0.462  1.00  0.00     0.008 A 
ATOM      9  C   UNL     1       6.869   1.108  -0.265  1.00  0.00     0.054 A 
ATOM     10  C   UNL     1       6.810  -1.015   1.474  1.00  0.00     0.051 A 
ATOM     11  C   UNL     1       5.925   1.074   0.744  1.00  0.00     0.166 A 
ATOM     12  C   UNL     1       5.893   0.013   1.617  1.00  0.00     0.165 A 
ATOM     13  O   UNL     1       4.919   1.958   1.091  1.00  0.00    -0.454 OA
ATOM     14  O   UNL     1       4.848   0.258   2.510  1.00  0.00    -0.454 OA
ATOM     15  C   UNL     1       4.038   1.297   2.012  1.00  0.00     0.468 C 
ENDBRANCH   6   7
ENDBRANCH   1   6
TORSDOF 4
ENDMDL
MODEL 5
REMARK VINA RESULT:      -7.4      0.956      2.124
REMARK SMILES O=C(O)CCc1ccc2c(c1)OCO2
REMARK SMILES IDX 4 1 2 2 1 3 3 4 5 6 6 7 7 8 11 9 8 10 10 11 9 12 12 13 14 14
REMARK SMILES IDX 13 15
REMARK H PARENT 3 5
REMARK Flexibility Score: inf
ROOT
ATOM      1  C   UNL     1       5.316   2.884   0.208  1.00  0.00     0.127 C 
ENDROOT
BRANCH   1   2
ATOM      2  C   UNL     1       6.123   3.864   0.918  1.00  0.00     0.303 C 
ATOM      3  O   UNL     1       6.193   3.983   2.143  1.00  0.00    -0.252 OA
BRANCH   2   4
ATOM      4  O   UNL     1       6.887   4.752   0.145  1.00  0.00    -0.481 OA
ATOM      5  H   UNL     1       6.632   5.726   0.203  1.00  0.00     0.296 HD
ENDBRANCH   2   4
ENDBRANCH   1   2
BRANCH   1   6
ATOM      6  C   UNL     1       5.304   1.547   0.838  1.00  0.00     0.047 C 
BRANCH   6   7
ATOM      7  C   UNL     1       6.152   0.510   0.245  1.00  0.00    -0.043 A 
ATOM      8  C   UNL     1       6.456   0.510  -1.108  1.00  0.00     0.008 A 
ATOM      9  C   UNL     1       6.640  -0.517   1.008  1.00  0.00     0.054 A 
ATOM     10  C   UNL     1       7.223  -0.484  -1.674  1.00  0.00     0.051 A 
ATOM     11  C   UNL     1       7.413  -1.524   0.462  1.00  0.00     0.166 A 
ATOM     12  C   UNL     1       7.707  -1.511  -0.880  1.00  0.00     0.165 A 
ATOM     13  O   UNL     1       8.003  -2.640   1.029  1.00  0.00    -0.454 OA
ATOM     14  O   UNL     1       8.490  -2.639  -1.132  1.00  0.00    -0.454 OA
ATOM     15  C   UNL     1       8.423  -3.514  -0.029  1.00  0.00     0.468 C 
ENDBRANCH   6   7
ENDBRANCH   1   6
TORSDOF 4
ENDMDL
