@<TRIPOS>MOLECULE
/home/cewinharhar/GITHUB/reincatalyze/data/processed/docking_pred/2023-May-17-1006_maxeplen10_maxtrainstep1000_seadep16_gamma099_lrac9e-4_lrcr1e-3_sub6/e8fc6854485d68a8d0bf78bf523603f1a9cbeca9_ligand_6.pdbqt
 15 16 0 0 0
SMALL
GASTEIGER

@<TRIPOS>ATOM
      1  C          6.4450    1.2790    0.7540 C.3     1  UNL1        0.1270
      2  C          5.2590    1.1370    1.5840 C.2     1  UNL1        0.3030
      3  O          5.0800    0.2650    2.4360 O.2     1  UNL1       -0.2520
      4  O          4.2290    2.0730    1.4020 O.3     1  UNL1       -0.4810
      5  H          3.6450    1.9400    0.5900 H       1  UNL1        0.2960
      6  C          6.2460    0.8660   -0.6520 C.3     1  UNL1        0.0470
      7  C          6.9870   -0.3050   -1.1250 C.2     1  UNL1       -0.0430
      8  C          7.2560   -0.4980   -2.4710 C.2     1  UNL1        0.0080
      9  C          7.4050   -1.2710   -0.2470 C.2     1  UNL1        0.0540
     10  C          7.9210   -1.6170   -2.9210 C.2     1  UNL1        0.0510
     11  C          8.0740   -2.4010   -0.6760 C.2     1  UNL1        0.1660
     12  C          8.3350   -2.5780   -2.0130 C.2     1  UNL1        0.1650
     13  O          8.5820   -3.4860    0.0170 O.2     1  UNL1       -0.4540
     14  O          9.0120   -3.7930   -2.1340 O.2     1  UNL1       -0.4540
     15  C          8.8980   -4.5170   -0.9310 C.3     1  UNL1        0.4680
@<TRIPOS>BOND
     1    10     8    1
     2    10    12    2
     3     8     7    2
     4    14    12    1
     5    14    15    1
     6    12    11    1
     7     7     6    1
     8     7     9    1
     9    15    13    1
    10    11     9    2
    11    11    13    1
    12     6     1    1
    13     5     4    1
    14     1     2    1
    15     4     2    1
    16     2     3    2
