@<TRIPOS>MOLECULE
/home/cewinharhar/GITHUB/reincatalyze/data/processed/docking_pred/2023-May-17-1006_maxeplen10_maxtrainstep1000_seadep16_gamma099_lrac9e-4_lrcr1e-3_sub6/e8fc6854485d68a8d0bf78bf523603f1a9cbeca9_ligand_6.pdbqt
 15 16 0 0 0
SMALL
GASTEIGER

@<TRIPOS>ATOM
      1  C          5.4050    2.8680    0.1260 C.3     1  UNL1        0.1270
      2  C          6.2340    3.8430    0.8170 C.2     1  UNL1        0.3030
      3  O          6.8540    4.7640    0.2830 O.2     1  UNL1       -0.2520
      4  O          6.3390    3.7260    2.2120 O.3     1  UNL1       -0.4810
      5  H          6.7170    4.5250    2.6980 H       1  UNL1        0.2960
      6  C          5.3250    1.5580    0.8070 C.3     1  UNL1        0.0470
      7  C          6.1070    0.4540    0.2460 C.2     1  UNL1       -0.0430
      8  C          6.5790   -0.5780    1.0420 C.2     1  UNL1        0.0080
      9  C          6.4290    0.4300   -1.0850 C.2     1  UNL1        0.0540
     10  C          7.3450   -1.5970    0.5220 C.2     1  UNL1        0.0510
     11  C          7.1960   -0.5830   -1.6290 C.2     1  UNL1        0.1660
     12  C          7.6560   -1.6000   -0.8280 C.2     1  UNL1        0.1650
     13  O          7.6370   -0.8090   -2.9210 O.2     1  UNL1       -0.4540
     14  O          8.3890   -2.4590   -1.6480 O.2     1  UNL1       -0.4540
     15  C          8.6510   -1.8250   -2.8790 C.3     1  UNL1        0.4680
@<TRIPOS>BOND
     1    13    15    1
     2    13    11    1
     3    15    14    1
     4    14    12    1
     5    11     9    1
     6    11    12    2
     7     9     7    2
     8    12    10    1
     9     1     6    1
    10     1     2    1
    11     7     6    1
    12     7     8    1
    13     3     2    2
    14    10     8    2
    15     2     4    1
    16     4     5    1
