@<TRIPOS>MOLECULE
/home/cewinharhar/GITHUB/reincatalyze/data/processed/docking_pred/2023-May-17-1006_maxeplen10_maxtrainstep1000_seadep16_gamma099_lrac9e-4_lrcr1e-3_sub6/e8fc6854485d68a8d0bf78bf523603f1a9cbeca9_ligand_6.pdbqt
 15 16 0 0 0
SMALL
GASTEIGER

@<TRIPOS>ATOM
      1  C          5.3160    2.8840    0.2080 C.3     1  UNL1        0.1270
      2  C          6.1230    3.8640    0.9180 C.2     1  UNL1        0.3030
      3  O          6.1930    3.9830    2.1430 O.2     1  UNL1       -0.2520
      4  O          6.8870    4.7520    0.1450 O.3     1  UNL1       -0.4810
      5  H          6.6320    5.7260    0.2030 H       1  UNL1        0.2960
      6  C          5.3040    1.5470    0.8380 C.3     1  UNL1        0.0470
      7  C          6.1520    0.5100    0.2450 C.2     1  UNL1       -0.0430
      8  C          6.4560    0.5100   -1.1080 C.2     1  UNL1        0.0080
      9  C          6.6400   -0.5170    1.0080 C.2     1  UNL1        0.0540
     10  C          7.2230   -0.4840   -1.6740 C.2     1  UNL1        0.0510
     11  C          7.4130   -1.5240    0.4620 C.2     1  UNL1        0.1660
     12  C          7.7070   -1.5110   -0.8800 C.2     1  UNL1        0.1650
     13  O          8.0030   -2.6400    1.0290 O.2     1  UNL1       -0.4540
     14  O          8.4900   -2.6390   -1.1320 O.2     1  UNL1       -0.4540
     15  C          8.4230   -3.5140   -0.0290 C.3     1  UNL1        0.4680
@<TRIPOS>BOND
     1    10     8    1
     2    10    12    2
     3    14    12    1
     4    14    15    1
     5     8     7    2
     6    12    11    1
     7    15    13    1
     8     4     5    1
     9     4     2    1
    10     1     6    1
    11     1     2    1
    12     7     6    1
    13     7     9    1
    14    11     9    2
    15    11    13    1
    16     2     3    2
