@<TRIPOS>MOLECULE
/home/cewinharhar/GITHUB/reincatalyze/data/processed/docking_pred/2023-May-17-1006_maxeplen10_maxtrainstep1000_seadep16_gamma099_lrac9e-4_lrcr1e-3_sub6/e8fc6854485d68a8d0bf78bf523603f1a9cbeca9_ligand_6.pdbqt
 15 16 0 0 0
SMALL
GASTEIGER

@<TRIPOS>ATOM
      1  C          4.6670    1.8710    0.6700 C.3     1  UNL1        0.1270
      2  C          4.3990    1.1670    1.9140 C.2     1  UNL1        0.3030
      3  O          5.1550    0.3600    2.4590 O.2     1  UNL1       -0.2520
      4  O          3.1760    1.4280    2.5510 O.3     1  UNL1       -0.4810
      5  H          2.5000    1.9540    2.0190 H       1  UNL1        0.2960
      6  C          6.0820    2.2610    0.4930 C.3     1  UNL1        0.0470
      7  C          6.9470    1.3490   -0.2590 C.2     1  UNL1       -0.0430
      8  C          8.3100    1.5750   -0.3760 C.2     1  UNL1        0.0080
      9  C          6.4240    0.2610   -0.9050 C.2     1  UNL1        0.0540
     10  C          9.1190    0.7390   -1.1140 C.2     1  UNL1        0.0510
     11  C          7.2160   -0.5920   -1.6500 C.2     1  UNL1        0.1660
     12  C          8.5660   -0.3570   -1.7570 C.2     1  UNL1        0.1650
     13  O          6.9110   -1.7320   -2.3740 O.2     1  UNL1       -0.4540
     14  O          9.0890   -1.3710   -2.5600 O.2     1  UNL1       -0.4540
     15  C          8.0370   -2.0500   -3.2060 C.3     1  UNL1        0.4680
@<TRIPOS>BOND
     1    15    14    1
     2    15    13    1
     3    14    12    1
     4    13    11    1
     5    12    11    2
     6    12    10    1
     7    11     9    1
     8    10     8    2
     9     9     7    2
    10     8     7    1
    11     7     6    1
    12     6     1    1
    13     1     2    1
    14     2     3    2
    15     2     4    1
    16     5     4    1
