@<TRIPOS>MOLECULE
/home/cewinharhar/GITHUB/reincatalyze/data/processed/docking_pred/2023-May-17-1006_maxeplen10_maxtrainstep1000_seadep16_gamma099_lrac9e-4_lrcr1e-3_sub6/e9ca5ba4bc0452251e134010a3e53239cf47eed8_ligand_6.pdbqt
 15 16 0 0 0
SMALL
GASTEIGER

@<TRIPOS>ATOM
      1  C          6.1940    0.1600    0.7290 C.3     1  UNL1        0.1270
      2  C          5.2900    0.9880    1.5110 C.2     1  UNL1        0.3030
      3  O          4.4940    0.5790    2.3580 O.2     1  UNL1       -0.2520
      4  O          5.3240    2.3730    1.2830 O.3     1  UNL1       -0.4810
      5  H          4.5070    2.7730    0.8480 H       1  UNL1        0.2960
      6  C          6.3110   -1.2300    1.2200 C.3     1  UNL1        0.0470
      7  C          7.4260   -1.5390    2.1190 C.2     1  UNL1       -0.0430
      8  C          7.3870   -1.2030    3.4630 C.2     1  UNL1        0.0080
      9  C          8.5620   -2.1380    1.6440 C.2     1  UNL1        0.0540
     10  C          8.4480   -1.4610    4.3020 C.2     1  UNL1        0.0510
     11  C          9.6400   -2.4070    2.4670 C.2     1  UNL1        0.1660
     12  C          9.5870   -2.0690    3.7980 C.2     1  UNL1        0.1650
     13  O         10.8670   -2.9940    2.2120 O.2     1  UNL1       -0.4540
     14  O         10.8030   -2.4590    4.3610 O.2     1  UNL1       -0.4540
     15  C         11.7250   -2.7460    3.3360 C.3     1  UNL1        0.4680
@<TRIPOS>BOND
     1     1     6    1
     2     1     2    1
     3     5     4    1
     4     6     7    1
     5     4     2    1
     6     2     3    2
     7     9     7    2
     8     9    11    1
     9     7     8    1
    10    13    11    1
    11    13    15    1
    12    11    12    2
    13    15    14    1
    14     8    10    2
    15    12    10    1
    16    12    14    1
