@<TRIPOS>MOLECULE
/home/cewinharhar/GITHUB/reincatalyze/data/processed/docking_pred/2023-May-17-1006_maxeplen10_maxtrainstep1000_seadep16_gamma099_lrac9e-4_lrcr1e-3_sub6/e9ca5ba4bc0452251e134010a3e53239cf47eed8_ligand_6.pdbqt
 15 16 0 0 0
SMALL
GASTEIGER

@<TRIPOS>ATOM
      1  C          5.1480    2.7840    0.0540 C.3     1  UNL1        0.1270
      2  C          6.1210    3.6620    0.6850 C.2     1  UNL1        0.3030
      3  O          6.8700    4.4430    0.0950 O.2     1  UNL1       -0.2520
      4  O          6.2170    3.6180    2.0840 O.3     1  UNL1       -0.4810
      5  H          6.4350    2.7200    2.4870 H       1  UNL1        0.2960
      6  C          5.7390    1.5770   -0.5610 C.3     1  UNL1        0.0470
      7  C          6.2920    0.5610    0.3370 C.2     1  UNL1       -0.0430
      8  C          5.5800    0.0970    1.4330 C.2     1  UNL1        0.0080
      9  C          7.5540    0.0650    0.1420 C.2     1  UNL1        0.0540
     10  C          6.1140   -0.8310    2.2990 C.2     1  UNL1        0.0510
     11  C          8.1090   -0.8670    0.9970 C.2     1  UNL1        0.1660
     12  C          7.3920   -1.3190    2.0780 C.2     1  UNL1        0.1650
     13  O          9.3420   -1.4960    0.9960 O.2     1  UNL1       -0.4540
     14  O          8.2030   -2.2380    2.7450 O.2     1  UNL1       -0.4540
     15  C          9.5250   -2.1290    2.2710 C.3     1  UNL1        0.4680
@<TRIPOS>BOND
     1     6     1    1
     2     6     7    1
     3     1     2    1
     4     3     2    2
     5     9     7    2
     6     9    11    1
     7     7     8    1
     8     2     4    1
     9    13    11    1
    10    13    15    1
    11    11    12    2
    12     8    10    2
    13    12    10    1
    14    12    14    1
    15     4     5    1
    16    15    14    1
