@<TRIPOS>MOLECULE
/home/cewinharhar/GITHUB/reincatalyze/data/processed/docking_pred/2023-May-17-1006_maxeplen10_maxtrainstep1000_seadep16_gamma099_lrac9e-4_lrcr1e-3_sub6/e9ca5ba4bc0452251e134010a3e53239cf47eed8_ligand_6.pdbqt
 15 16 0 0 0
SMALL
GASTEIGER

@<TRIPOS>ATOM
      1  C          5.4260    2.8740    0.1170 C.3     1  UNL1        0.1270
      2  C          6.1660    3.8320    0.9230 C.2     1  UNL1        0.3030
      3  O          6.1610    3.8890    2.1540 O.2     1  UNL1       -0.2520
      4  O          6.9530    4.7750    0.2430 O.3     1  UNL1       -0.4810
      5  H          6.5060    5.2630   -0.5180 H       1  UNL1        0.2960
      6  C          5.2860    1.5430    0.7440 C.3     1  UNL1        0.0470
      7  C          6.0560    0.4390    0.1670 C.2     1  UNL1       -0.0430
      8  C          6.4200   -0.6640    0.9250 C.2     1  UNL1        0.0080
      9  C          6.4740    0.4820   -1.1360 C.2     1  UNL1        0.0540
     10  C          7.1740   -1.6860    0.3940 C.2     1  UNL1        0.0510
     11  C          7.2320   -0.5320   -1.6900 C.2     1  UNL1        0.1660
     12  C          7.5840   -1.6200   -0.9280 C.2     1  UNL1        0.1650
     13  O          7.7560   -0.6990   -2.9600 O.2     1  UNL1       -0.4540
     14  O          8.3360   -2.4610   -1.7500 O.2     1  UNL1       -0.4540
     15  C          8.7160   -1.7650   -2.9140 C.3     1  UNL1        0.4680
@<TRIPOS>BOND
     1    13    15    1
     2    13    11    1
     3    15    14    1
     4    14    12    1
     5    11     9    1
     6    11    12    2
     7     9     7    2
     8    12    10    1
     9     5     4    1
    10     1     6    1
    11     1     2    1
    12     7     6    1
    13     7     8    1
    14     4     2    1
    15    10     8    2
    16     2     3    2
