MODEL 1
REMARK VINA RESULT:      -7.4      0.000      0.000
REMARK SMILES O=C(O)CCc1ccc2c(c1)OCO2
REMARK SMILES IDX 4 1 2 2 1 3 3 4 5 6 6 7 7 8 11 9 8 10 10 11 9 12 12 13 14 14
REMARK SMILES IDX 13 15
REMARK H PARENT 3 5
REMARK Flexibility Score: inf
ROOT
ATOM      1  C   UNL     1       4.770   1.887   0.721  1.00  0.00     0.127 C 
ENDROOT
BRANCH   1   2
ATOM      2  C   UNL     1       4.436   1.150   1.930  1.00  0.00     0.303 C 
ATOM      3  O   UNL     1       5.146   0.302   2.473  1.00  0.00    -0.252 OA
BRANCH   2   4
ATOM      4  O   UNL     1       3.198   1.426   2.531  1.00  0.00    -0.481 OA
ATOM      5  H   UNL     1       2.944   2.400   2.600  1.00  0.00     0.296 HD
ENDBRANCH   2   4
ENDBRANCH   1   2
BRANCH   1   6
ATOM      6  C   UNL     1       6.207   2.210   0.594  1.00  0.00     0.047 C 
BRANCH   6   7
ATOM      7  C   UNL     1       7.036   1.307  -0.207  1.00  0.00    -0.043 A 
ATOM      8  C   UNL     1       8.392   1.535  -0.386  1.00  0.00     0.008 A 
ATOM      9  C   UNL     1       6.483   0.225  -0.839  1.00  0.00     0.054 A 
ATOM     10  C   UNL     1       9.165   0.707  -1.169  1.00  0.00     0.051 A 
ATOM     11  C   UNL     1       7.240  -0.620  -1.629  1.00  0.00     0.166 A 
ATOM     12  C   UNL     1       8.583  -0.382  -1.797  1.00  0.00     0.165 A 
ATOM     13  O   UNL     1       6.901  -1.752  -2.350  1.00  0.00    -0.454 OA
ATOM     14  O   UNL     1       9.068  -1.388  -2.634  1.00  0.00    -0.454 OA
ATOM     15  C   UNL     1       7.987  -2.061  -3.236  1.00  0.00     0.468 C 
ENDBRANCH   6   7
ENDBRANCH   1   6
TORSDOF 4
ENDMDL
MODEL 2
REMARK VINA RESULT:      -7.3      2.141      2.565
REMARK SMILES O=C(O)CCc1ccc2c(c1)OCO2
REMARK SMILES IDX 4 1 2 2 1 3 3 4 5 6 6 7 7 8 11 9 8 10 10 11 9 12 12 13 14 14
REMARK SMILES IDX 13 15
REMARK H PARENT 3 5
REMARK Flexibility Score: inf
ROOT
ATOM      1  C   UNL     1       5.426   2.874   0.117  1.00  0.00     0.127 C 
ENDROOT
BRANCH   1   2
ATOM      2  C   UNL     1       6.166   3.832   0.923  1.00  0.00     0.303 C 
ATOM      3  O   UNL     1       6.161   3.889   2.154  1.00  0.00    -0.252 OA
BRANCH   2   4
ATOM      4  O   UNL     1       6.953   4.775   0.243  1.00  0.00    -0.481 OA
ATOM      5  H   UNL     1       6.506   5.263  -0.518  1.00  0.00     0.296 HD
ENDBRANCH   2   4
ENDBRANCH   1   2
BRANCH   1   6
ATOM      6  C   UNL     1       5.286   1.543   0.744  1.00  0.00     0.047 C 
BRANCH   6   7
ATOM      7  C   UNL     1       6.056   0.439   0.167  1.00  0.00    -0.043 A 
ATOM      8  C   UNL     1       6.420  -0.664   0.925  1.00  0.00     0.008 A 
ATOM      9  C   UNL     1       6.474   0.482  -1.136  1.00  0.00     0.054 A 
ATOM     10  C   UNL     1       7.174  -1.686   0.394  1.00  0.00     0.051 A 
ATOM     11  C   UNL     1       7.232  -0.532  -1.690  1.00  0.00     0.166 A 
ATOM     12  C   UNL     1       7.584  -1.620  -0.928  1.00  0.00     0.165 A 
ATOM     13  O   UNL     1       7.756  -0.699  -2.960  1.00  0.00    -0.454 OA
ATOM     14  O   UNL     1       8.336  -2.461  -1.750  1.00  0.00    -0.454 OA
ATOM     15  C   UNL     1       8.716  -1.765  -2.914  1.00  0.00     0.468 C 
ENDBRANCH   6   7
ENDBRANCH   1   6
TORSDOF 4
ENDMDL
MODEL 3
REMARK VINA RESULT:      -7.2      1.850      2.396
REMARK SMILES O=C(O)CCc1ccc2c(c1)OCO2
REMARK SMILES IDX 4 1 2 2 1 3 3 4 5 6 6 7 7 8 11 9 8 10 10 11 9 12 12 13 14 14
REMARK SMILES IDX 13 15
REMARK H PARENT 3 5
REMARK Flexibility Score: inf
ROOT
ATOM      1  C   UNL     1       6.389   1.257   0.702  1.00  0.00     0.127 C 
ENDROOT
BRANCH   1   2
ATOM      2  C   UNL     1       5.254   1.101   1.598  1.00  0.00     0.303 C 
ATOM      3  O   UNL     1       5.118   0.206   2.434  1.00  0.00    -0.252 OA
BRANCH   2   4
ATOM      4  O   UNL     1       4.223   2.049   1.504  1.00  0.00    -0.481 OA
ATOM      5  H   UNL     1       4.511   3.012   1.423  1.00  0.00     0.296 HD
ENDBRANCH   2   4
ENDBRANCH   1   2
BRANCH   1   6
ATOM      6  C   UNL     1       6.150   0.746  -0.665  1.00  0.00     0.047 C 
BRANCH   6   7
ATOM      7  C   UNL     1       6.929  -0.415  -1.100  1.00  0.00    -0.043 A 
ATOM      8  C   UNL     1       7.233  -0.624  -2.436  1.00  0.00     0.008 A 
ATOM      9  C   UNL     1       7.350  -1.354  -0.196  1.00  0.00     0.054 A 
ATOM     10  C   UNL     1       7.935  -1.734  -2.851  1.00  0.00     0.051 A 
ATOM     11  C   UNL     1       8.056  -2.475  -0.590  1.00  0.00     0.166 A 
ATOM     12  C   UNL     1       8.351  -2.669  -1.918  1.00  0.00     0.165 A 
ATOM     13  O   UNL     1       8.574  -3.536   0.133  1.00  0.00    -0.454 OA
ATOM     14  O   UNL     1       9.060  -3.868  -2.002  1.00  0.00    -0.454 OA
ATOM     15  C   UNL     1       8.937  -4.574  -0.789  1.00  0.00     0.468 C 
ENDBRANCH   6   7
ENDBRANCH   1   6
TORSDOF 4
ENDMDL
MODEL 4
REMARK VINA RESULT:      -7.1      4.269      4.807
REMARK SMILES O=C(O)CCc1ccc2c(c1)OCO2
REMARK SMILES IDX 4 1 2 2 1 3 3 4 5 6 6 7 7 8 11 9 8 10 10 11 9 12 12 13 14 14
REMARK SMILES IDX 13 15
REMARK H PARENT 3 5
REMARK Flexibility Score: inf
ROOT
ATOM      1  C   UNL     1       6.194   0.160   0.729  1.00  0.00     0.127 C 
ENDROOT
BRANCH   1   2
ATOM      2  C   UNL     1       5.290   0.988   1.511  1.00  0.00     0.303 C 
ATOM      3  O   UNL     1       4.494   0.579   2.358  1.00  0.00    -0.252 OA
BRANCH   2   4
ATOM      4  O   UNL     1       5.324   2.373   1.283  1.00  0.00    -0.481 OA
ATOM      5  H   UNL     1       4.507   2.773   0.848  1.00  0.00     0.296 HD
ENDBRANCH   2   4
ENDBRANCH   1   2
BRANCH   1   6
ATOM      6  C   UNL     1       6.311  -1.230   1.220  1.00  0.00     0.047 C 
BRANCH   6   7
ATOM      7  C   UNL     1       7.426  -1.539   2.119  1.00  0.00    -0.043 A 
ATOM      8  C   UNL     1       7.387  -1.203   3.463  1.00  0.00     0.008 A 
ATOM      9  C   UNL     1       8.562  -2.138   1.644  1.00  0.00     0.054 A 
ATOM     10  C   UNL     1       8.448  -1.461   4.302  1.00  0.00     0.051 A 
ATOM     11  C   UNL     1       9.640  -2.407   2.467  1.00  0.00     0.166 A 
ATOM     12  C   UNL     1       9.587  -2.069   3.798  1.00  0.00     0.165 A 
ATOM     13  O   UNL     1      10.867  -2.994   2.212  1.00  0.00    -0.454 OA
ATOM     14  O   UNL     1      10.803  -2.459   4.361  1.00  0.00    -0.454 OA
ATOM     15  C   UNL     1      11.725  -2.746   3.336  1.00  0.00     0.468 C 
ENDBRANCH   6   7
ENDBRANCH   1   6
TORSDOF 4
ENDMDL
MODEL 5
REMARK VINA RESULT:      -7.1      2.981      3.778
REMARK SMILES O=C(O)CCc1ccc2c(c1)OCO2
REMARK SMILES IDX 4 1 2 2 1 3 3 4 5 6 6 7 7 8 11 9 8 10 10 11 9 12 12 13 14 14
REMARK SMILES IDX 13 15
REMARK H PARENT 3 5
REMARK Flexibility Score: inf
ROOT
ATOM      1  C   UNL     1       5.148   2.784   0.054  1.00  0.00     0.127 C 
ENDROOT
BRANCH   1   2
ATOM      2  C   UNL     1       6.121   3.662   0.685  1.00  0.00     0.303 C 
ATOM      3  O   UNL     1       6.870   4.443   0.095  1.00  0.00    -0.252 OA
BRANCH   2   4
ATOM      4  O   UNL     1       6.217   3.618   2.084  1.00  0.00    -0.481 OA
ATOM      5  H   UNL     1       6.435   2.720   2.487  1.00  0.00     0.296 HD
ENDBRANCH   2   4
ENDBRANCH   1   2
BRANCH   1   6
ATOM      6  C   UNL     1       5.739   1.577  -0.561  1.00  0.00     0.047 C 
BRANCH   6   7
ATOM      7  C   UNL     1       6.292   0.561   0.337  1.00  0.00    -0.043 A 
ATOM      8  C   UNL     1       5.580   0.097   1.433  1.00  0.00     0.008 A 
ATOM      9  C   UNL     1       7.554   0.065   0.142  1.00  0.00     0.054 A 
ATOM     10  C   UNL     1       6.114  -0.831   2.299  1.00  0.00     0.051 A 
ATOM     11  C   UNL     1       8.109  -0.867   0.997  1.00  0.00     0.166 A 
ATOM     12  C   UNL     1       7.392  -1.319   2.078  1.00  0.00     0.165 A 
ATOM     13  O   UNL     1       9.342  -1.496   0.996  1.00  0.00    -0.454 OA
ATOM     14  O   UNL     1       8.203  -2.238   2.745  1.00  0.00    -0.454 OA
ATOM     15  C   UNL     1       9.525  -2.129   2.271  1.00  0.00     0.468 C 
ENDBRANCH   6   7
ENDBRANCH   1   6
TORSDOF 4
ENDMDL
