@<TRIPOS>MOLECULE
/home/cewinharhar/GITHUB/reincatalyze/data/processed/docking_pred/2023-May-17-1006_maxeplen10_maxtrainstep1000_seadep16_gamma099_lrac9e-4_lrcr1e-3_sub6/e9ca5ba4bc0452251e134010a3e53239cf47eed8_ligand_6.pdbqt
 15 16 0 0 0
SMALL
GASTEIGER

@<TRIPOS>ATOM
      1  C          6.3890    1.2570    0.7020 C.3     1  UNL1        0.1270
      2  C          5.2540    1.1010    1.5980 C.2     1  UNL1        0.3030
      3  O          5.1180    0.2060    2.4340 O.2     1  UNL1       -0.2520
      4  O          4.2230    2.0490    1.5040 O.3     1  UNL1       -0.4810
      5  H          4.5110    3.0120    1.4230 H       1  UNL1        0.2960
      6  C          6.1500    0.7460   -0.6650 C.3     1  UNL1        0.0470
      7  C          6.9290   -0.4150   -1.1000 C.2     1  UNL1       -0.0430
      8  C          7.2330   -0.6240   -2.4360 C.2     1  UNL1        0.0080
      9  C          7.3500   -1.3540   -0.1960 C.2     1  UNL1        0.0540
     10  C          7.9350   -1.7340   -2.8510 C.2     1  UNL1        0.0510
     11  C          8.0560   -2.4750   -0.5900 C.2     1  UNL1        0.1660
     12  C          8.3510   -2.6690   -1.9180 C.2     1  UNL1        0.1650
     13  O          8.5740   -3.5360    0.1330 O.2     1  UNL1       -0.4540
     14  O          9.0600   -3.8680   -2.0020 O.2     1  UNL1       -0.4540
     15  C          8.9370   -4.5740   -0.7890 C.3     1  UNL1        0.4680
@<TRIPOS>BOND
     1    10     8    1
     2    10    12    2
     3     8     7    2
     4    14    12    1
     5    14    15    1
     6    12    11    1
     7     7     6    1
     8     7     9    1
     9    15    13    1
    10     6     1    1
    11    11     9    2
    12    11    13    1
    13     1     2    1
    14     5     4    1
    15     4     2    1
    16     2     3    2
