@<TRIPOS>MOLECULE
/home/cewinharhar/GITHUB/reincatalyze/data/processed/docking_pred/2023-May-17-1006_maxeplen10_maxtrainstep1000_seadep16_gamma099_lrac9e-4_lrcr1e-3_sub6/ea9f39b4277e7ba3f00603e8654b95ed05d2571c_ligand_6.pdbqt
 15 16 0 0 0
SMALL
GASTEIGER

@<TRIPOS>ATOM
      1  C          4.6980    1.8280    0.7230 C.3     1  UNL1        0.1270
      2  C          4.2990    1.1770    1.9610 C.2     1  UNL1        0.3030
      3  O          3.2350    1.3560    2.5560 O.2     1  UNL1       -0.2520
      4  O          5.2030    0.2660    2.5300 O.3     1  UNL1       -0.4810
      5  H          4.9280   -0.7040    2.5110 H       1  UNL1        0.2960
      6  C          6.1420    2.1310    0.6430 C.3     1  UNL1        0.0470
      7  C          6.9740    1.2510   -0.1800 C.2     1  UNL1       -0.0430
      8  C          8.3140    1.5240   -0.4070 C.2     1  UNL1        0.0080
      9  C          6.4380    0.1450   -0.7850 C.2     1  UNL1        0.0540
     10  C          9.0890    0.7170   -1.2100 C.2     1  UNL1        0.0510
     11  C          7.1970   -0.6800   -1.5940 C.2     1  UNL1        0.1660
     12  C          8.5240   -0.3970   -1.8100 C.2     1  UNL1        0.1650
     13  O          6.8740   -1.8290   -2.2940 O.2     1  UNL1       -0.4540
     14  O          9.0160   -1.3930   -2.6560 O.2     1  UNL1       -0.4540
     15  C          7.9390   -2.1080   -3.2150 C.3     1  UNL1        0.4680
@<TRIPOS>BOND
     1    15    14    1
     2    15    13    1
     3    14    12    1
     4    13    11    1
     5    12    11    2
     6    12    10    1
     7    11     9    1
     8    10     8    2
     9     9     7    2
    10     8     7    1
    11     7     6    1
    12     6     1    1
    13     1     2    1
    14     2     4    1
    15     2     3    2
    16     5     4    1
