@<TRIPOS>MOLECULE
/home/cewinharhar/GITHUB/reincatalyze/data/processed/docking_pred/2023-May-17-1006_maxeplen10_maxtrainstep1000_seadep16_gamma099_lrac9e-4_lrcr1e-3_sub6/ea9f39b4277e7ba3f00603e8654b95ed05d2571c_ligand_6.pdbqt
 15 16 0 0 0
SMALL
GASTEIGER

@<TRIPOS>ATOM
      1  C          5.7120    2.7110    0.4570 C.3     1  UNL1        0.1270
      2  C          6.2830    3.9040    1.0640 C.2     1  UNL1        0.3030
      3  O          6.1920    4.2170    2.2530 O.2     1  UNL1       -0.2520
      4  O          6.9980    4.7740    0.2270 O.3     1  UNL1       -0.4810
      5  H          7.9960    4.8040    0.3640 H       1  UNL1        0.2960
      6  C          6.0310    1.4600    1.1770 C.3     1  UNL1        0.0470
      7  C          6.6160    0.3630    0.4030 C.2     1  UNL1       -0.0430
      8  C          6.4040    0.2450   -0.9620 C.2     1  UNL1        0.0080
      9  C          7.3640   -0.6060    1.0180 C.2     1  UNL1        0.0540
     10  C          6.9230   -0.8060   -1.6840 C.2     1  UNL1        0.0510
     11  C          7.8960   -1.6690    0.3130 C.2     1  UNL1        0.1660
     12  C          7.6780   -1.7730   -1.0400 C.2     1  UNL1        0.1650
     13  O          8.6680   -2.7450    0.7160 O.2     1  UNL1       -0.4540
     14  O          8.3290   -2.9320   -1.4650 O.2     1  UNL1       -0.4540
     15  C          8.6830   -3.7110   -0.3460 C.3     1  UNL1        0.4680
@<TRIPOS>BOND
     1    10    12    2
     2    10     8    1
     3    14    12    1
     4    14    15    1
     5    12    11    1
     6     8     7    2
     7    15    13    1
     8     4     5    1
     9     4     2    1
    10    11    13    1
    11    11     9    2
    12     7     9    1
    13     7     6    1
    14     1     2    1
    15     1     6    1
    16     2     3    2
