@<TRIPOS>MOLECULE
/home/cewinharhar/GITHUB/reincatalyze/data/processed/docking_pred/2023-May-17-1006_maxeplen10_maxtrainstep1000_seadep16_gamma099_lrac9e-4_lrcr1e-3_sub6/ea9f39b4277e7ba3f00603e8654b95ed05d2571c_ligand_6.pdbqt
 15 16 0 0 0
SMALL
GASTEIGER

@<TRIPOS>ATOM
      1  C          6.4000    1.2750    0.7360 C.3     1  UNL1        0.1270
      2  C          5.1400    1.3190    1.4600 C.2     1  UNL1        0.3030
      3  O          4.2290    2.1260    1.2660 O.2     1  UNL1       -0.2520
      4  O          4.9420    0.3620    2.4680 O.3     1  UNL1       -0.4810
      5  H          4.0470    0.3830    2.9320 H       1  UNL1        0.2960
      6  C          6.2660    0.8600   -0.6770 C.3     1  UNL1        0.0470
      7  C          7.0020   -0.3310   -1.1050 C.2     1  UNL1       -0.0430
      8  C          7.2890   -0.5640   -2.4420 C.2     1  UNL1        0.0080
      9  C          7.3980   -1.2750   -0.1950 C.2     1  UNL1        0.0540
     10  C          7.9500   -1.7010   -2.8500 C.2     1  UNL1        0.0510
     11  C          8.0630   -2.4230   -0.5810 C.2     1  UNL1        0.1660
     12  C          8.3410   -2.6400   -1.9090 C.2     1  UNL1        0.1650
     13  O          8.5490   -3.4930    0.1490 O.2     1  UNL1       -0.4540
     14  O          9.0080   -3.8640   -1.9860 O.2     1  UNL1       -0.4540
     15  C          8.8700   -4.5530   -0.7650 C.3     1  UNL1        0.4680
@<TRIPOS>BOND
     1    10     8    1
     2    10    12    2
     3     8     7    2
     4    14    12    1
     5    14    15    1
     6    12    11    1
     7     7     6    1
     8     7     9    1
     9    15    13    1
    10     6     1    1
    11    11     9    2
    12    11    13    1
    13     1     2    1
    14     3     2    2
    15     2     4    1
    16     4     5    1
