@<TRIPOS>MOLECULE
/home/cewinharhar/GITHUB/reincatalyze/data/processed/docking_pred/2023-May-17-1006_maxeplen10_maxtrainstep1000_seadep16_gamma099_lrac9e-4_lrcr1e-3_sub6/ea9f39b4277e7ba3f00603e8654b95ed05d2571c_ligand_6.pdbqt
 15 16 0 0 0
SMALL
GASTEIGER

@<TRIPOS>ATOM
      1  C          8.4500   -0.3780   -3.0310 C.3     1  UNL1        0.1270
      2  C          8.5400   -1.8260   -3.1390 C.2     1  UNL1        0.3030
      3  O          9.5770   -2.4880   -3.0720 O.2     1  UNL1       -0.2520
      4  O          7.3430   -2.5320   -3.3380 O.3     1  UNL1       -0.4810
      5  H          7.3600   -3.5120   -3.1000 H       1  UNL1        0.2960
      6  C          9.0070    0.1650   -1.7740 C.3     1  UNL1        0.0470
      7  C          8.1210    0.2190   -0.6080 C.2     1  UNL1       -0.0430
      8  C          8.3420   -0.5750    0.5070 C.2     1  UNL1        0.0080
      9  C          7.0190    1.0320   -0.6030 C.2     1  UNL1        0.0540
     10  C          7.4900   -0.5520    1.5880 C.2     1  UNL1        0.0510
     11  C          6.1510    1.0720    0.4710 C.2     1  UNL1        0.1660
     12  C          6.3830    0.2810    1.5700 C.2     1  UNL1        0.1650
     13  O          4.9970    1.8030    0.6930 O.2     1  UNL1       -0.4540
     14  O          5.3520    0.5360    2.4750 O.2     1  UNL1       -0.4540
     15  C          4.3180    1.2380    1.8250 C.3     1  UNL1        0.4680
@<TRIPOS>BOND
     1     4     2    1
     2     4     5    1
     3     2     3    2
     4     2     1    1
     5     1     6    1
     6     6     7    1
     7     7     9    2
     8     7     8    1
     9     9    11    1
    10    11    13    1
    11    11    12    2
    12     8    10    2
    13    13    15    1
    14    12    10    1
    15    12    14    1
    16    15    14    1
