MODEL 1
REMARK VINA RESULT:      -8.0      0.000      0.000
REMARK SMILES O=C(O)CCc1ccc2c(c1)OCO2
REMARK SMILES IDX 4 1 2 2 1 3 3 4 5 6 6 7 7 8 11 9 8 10 10 11 9 12 12 13 14 14
REMARK SMILES IDX 13 15
REMARK H PARENT 3 5
REMARK Flexibility Score: inf
ROOT
ATOM      1  C   UNL     1       4.698   1.828   0.723  1.00  0.00     0.127 C 
ENDROOT
BRANCH   1   2
ATOM      2  C   UNL     1       4.299   1.177   1.961  1.00  0.00     0.303 C 
ATOM      3  O   UNL     1       3.235   1.356   2.556  1.00  0.00    -0.252 OA
BRANCH   2   4
ATOM      4  O   UNL     1       5.203   0.266   2.530  1.00  0.00    -0.481 OA
ATOM      5  H   UNL     1       4.928  -0.704   2.511  1.00  0.00     0.296 HD
ENDBRANCH   2   4
ENDBRANCH   1   2
BRANCH   1   6
ATOM      6  C   UNL     1       6.142   2.131   0.643  1.00  0.00     0.047 C 
BRANCH   6   7
ATOM      7  C   UNL     1       6.974   1.251  -0.180  1.00  0.00    -0.043 A 
ATOM      8  C   UNL     1       8.314   1.524  -0.407  1.00  0.00     0.008 A 
ATOM      9  C   UNL     1       6.438   0.145  -0.785  1.00  0.00     0.054 A 
ATOM     10  C   UNL     1       9.089   0.717  -1.210  1.00  0.00     0.051 A 
ATOM     11  C   UNL     1       7.197  -0.680  -1.594  1.00  0.00     0.166 A 
ATOM     12  C   UNL     1       8.524  -0.397  -1.810  1.00  0.00     0.165 A 
ATOM     13  O   UNL     1       6.874  -1.829  -2.294  1.00  0.00    -0.454 OA
ATOM     14  O   UNL     1       9.016  -1.393  -2.656  1.00  0.00    -0.454 OA
ATOM     15  C   UNL     1       7.939  -2.108  -3.215  1.00  0.00     0.468 C 
ENDBRANCH   6   7
ENDBRANCH   1   6
TORSDOF 4
ENDMDL
MODEL 2
REMARK VINA RESULT:      -7.8      1.839      2.357
REMARK SMILES O=C(O)CCc1ccc2c(c1)OCO2
REMARK SMILES IDX 4 1 2 2 1 3 3 4 5 6 6 7 7 8 11 9 8 10 10 11 9 12 12 13 14 14
REMARK SMILES IDX 13 15
REMARK H PARENT 3 5
REMARK Flexibility Score: inf
ROOT
ATOM      1  C   UNL     1       6.400   1.275   0.736  1.00  0.00     0.127 C 
ENDROOT
BRANCH   1   2
ATOM      2  C   UNL     1       5.140   1.319   1.460  1.00  0.00     0.303 C 
ATOM      3  O   UNL     1       4.229   2.126   1.266  1.00  0.00    -0.252 OA
BRANCH   2   4
ATOM      4  O   UNL     1       4.942   0.362   2.468  1.00  0.00    -0.481 OA
ATOM      5  H   UNL     1       4.047   0.383   2.932  1.00  0.00     0.296 HD
ENDBRANCH   2   4
ENDBRANCH   1   2
BRANCH   1   6
ATOM      6  C   UNL     1       6.266   0.860  -0.677  1.00  0.00     0.047 C 
BRANCH   6   7
ATOM      7  C   UNL     1       7.002  -0.331  -1.105  1.00  0.00    -0.043 A 
ATOM      8  C   UNL     1       7.289  -0.564  -2.442  1.00  0.00     0.008 A 
ATOM      9  C   UNL     1       7.398  -1.275  -0.195  1.00  0.00     0.054 A 
ATOM     10  C   UNL     1       7.950  -1.701  -2.850  1.00  0.00     0.051 A 
ATOM     11  C   UNL     1       8.063  -2.423  -0.581  1.00  0.00     0.166 A 
ATOM     12  C   UNL     1       8.341  -2.640  -1.909  1.00  0.00     0.165 A 
ATOM     13  O   UNL     1       8.549  -3.493   0.149  1.00  0.00    -0.454 OA
ATOM     14  O   UNL     1       9.008  -3.864  -1.986  1.00  0.00    -0.454 OA
ATOM     15  C   UNL     1       8.870  -4.553  -0.765  1.00  0.00     0.468 C 
ENDBRANCH   6   7
ENDBRANCH   1   6
TORSDOF 4
ENDMDL
MODEL 3
REMARK VINA RESULT:      -7.4      1.487      5.360
REMARK SMILES O=C(O)CCc1ccc2c(c1)OCO2
REMARK SMILES IDX 4 1 2 2 1 3 3 4 5 6 6 7 7 8 11 9 8 10 10 11 9 12 12 13 14 14
REMARK SMILES IDX 13 15
REMARK H PARENT 3 5
REMARK Flexibility Score: inf
ROOT
ATOM      1  C   UNL     1       8.450  -0.378  -3.031  1.00  0.00     0.127 C 
ENDROOT
BRANCH   1   2
ATOM      2  C   UNL     1       8.540  -1.826  -3.139  1.00  0.00     0.303 C 
ATOM      3  O   UNL     1       9.577  -2.488  -3.072  1.00  0.00    -0.252 OA
BRANCH   2   4
ATOM      4  O   UNL     1       7.343  -2.532  -3.338  1.00  0.00    -0.481 OA
ATOM      5  H   UNL     1       7.360  -3.512  -3.100  1.00  0.00     0.296 HD
ENDBRANCH   2   4
ENDBRANCH   1   2
BRANCH   1   6
ATOM      6  C   UNL     1       9.007   0.165  -1.774  1.00  0.00     0.047 C 
BRANCH   6   7
ATOM      7  C   UNL     1       8.121   0.219  -0.608  1.00  0.00    -0.043 A 
ATOM      8  C   UNL     1       8.342  -0.575   0.507  1.00  0.00     0.008 A 
ATOM      9  C   UNL     1       7.019   1.032  -0.603  1.00  0.00     0.054 A 
ATOM     10  C   UNL     1       7.490  -0.552   1.588  1.00  0.00     0.051 A 
ATOM     11  C   UNL     1       6.151   1.072   0.471  1.00  0.00     0.166 A 
ATOM     12  C   UNL     1       6.383   0.281   1.570  1.00  0.00     0.165 A 
ATOM     13  O   UNL     1       4.997   1.803   0.693  1.00  0.00    -0.454 OA
ATOM     14  O   UNL     1       5.352   0.536   2.475  1.00  0.00    -0.454 OA
ATOM     15  C   UNL     1       4.318   1.238   1.825  1.00  0.00     0.468 C 
ENDBRANCH   6   7
ENDBRANCH   1   6
TORSDOF 4
ENDMDL
MODEL 4
REMARK VINA RESULT:      -7.4      2.557      2.884
REMARK SMILES O=C(O)CCc1ccc2c(c1)OCO2
REMARK SMILES IDX 4 1 2 2 1 3 3 4 5 6 6 7 7 8 11 9 8 10 10 11 9 12 12 13 14 14
REMARK SMILES IDX 13 15
REMARK H PARENT 3 5
REMARK Flexibility Score: inf
ROOT
ATOM      1  C   UNL     1       5.712   2.711   0.457  1.00  0.00     0.127 C 
ENDROOT
BRANCH   1   2
ATOM      2  C   UNL     1       6.283   3.904   1.064  1.00  0.00     0.303 C 
ATOM      3  O   UNL     1       6.192   4.217   2.253  1.00  0.00    -0.252 OA
BRANCH   2   4
ATOM      4  O   UNL     1       6.998   4.774   0.227  1.00  0.00    -0.481 OA
ATOM      5  H   UNL     1       7.996   4.804   0.364  1.00  0.00     0.296 HD
ENDBRANCH   2   4
ENDBRANCH   1   2
BRANCH   1   6
ATOM      6  C   UNL     1       6.031   1.460   1.177  1.00  0.00     0.047 C 
BRANCH   6   7
ATOM      7  C   UNL     1       6.616   0.363   0.403  1.00  0.00    -0.043 A 
ATOM      8  C   UNL     1       6.404   0.245  -0.962  1.00  0.00     0.008 A 
ATOM      9  C   UNL     1       7.364  -0.606   1.018  1.00  0.00     0.054 A 
ATOM     10  C   UNL     1       6.923  -0.806  -1.684  1.00  0.00     0.051 A 
ATOM     11  C   UNL     1       7.896  -1.669   0.313  1.00  0.00     0.166 A 
ATOM     12  C   UNL     1       7.678  -1.773  -1.040  1.00  0.00     0.165 A 
ATOM     13  O   UNL     1       8.668  -2.745   0.716  1.00  0.00    -0.454 OA
ATOM     14  O   UNL     1       8.329  -2.932  -1.465  1.00  0.00    -0.454 OA
ATOM     15  C   UNL     1       8.683  -3.711  -0.346  1.00  0.00     0.468 C 
ENDBRANCH   6   7
ENDBRANCH   1   6
TORSDOF 4
ENDMDL
MODEL 5
REMARK VINA RESULT:      -7.2      2.218      2.473
REMARK SMILES O=C(O)CCc1ccc2c(c1)OCO2
REMARK SMILES IDX 4 1 2 2 1 3 3 4 5 6 6 7 7 8 11 9 8 10 10 11 9 12 12 13 14 14
REMARK SMILES IDX 13 15
REMARK H PARENT 3 5
REMARK Flexibility Score: inf
ROOT
ATOM      1  C   UNL     1       5.458   1.537  -0.301  1.00  0.00     0.127 C 
ENDROOT
BRANCH   1   2
ATOM      2  C   UNL     1       5.142   2.059   1.019  1.00  0.00     0.303 C 
ATOM      3  O   UNL     1       4.303   1.592   1.793  1.00  0.00    -0.252 OA
BRANCH   2   4
ATOM      4  O   UNL     1       5.851   3.190   1.452  1.00  0.00    -0.481 OA
ATOM      5  H   UNL     1       6.493   3.048   2.217  1.00  0.00     0.296 HD
ENDBRANCH   2   4
ENDBRANCH   1   2
BRANCH   1   6
ATOM      6  C   UNL     1       6.891   1.234  -0.499  1.00  0.00     0.047 C 
BRANCH   6   7
ATOM      7  C   UNL     1       7.326  -0.149  -0.289  1.00  0.00    -0.043 A 
ATOM      8  C   UNL     1       7.516  -0.663   0.984  1.00  0.00     0.008 A 
ATOM      9  C   UNL     1       7.598  -0.967  -1.353  1.00  0.00     0.054 A 
ATOM     10  C   UNL     1       7.960  -1.952   1.183  1.00  0.00     0.051 A 
ATOM     11  C   UNL     1       8.044  -2.263  -1.178  1.00  0.00     0.166 A 
ATOM     12  C   UNL     1       8.226  -2.760   0.090  1.00  0.00     0.165 A 
ATOM     13  O   UNL     1       8.374  -3.252  -2.088  1.00  0.00    -0.454 OA
ATOM     14  O   UNL     1       8.675  -4.074  -0.053  1.00  0.00    -0.454 OA
ATOM     15  C   UNL     1       9.071  -4.293  -1.388  1.00  0.00     0.468 C 
ENDBRANCH   6   7
ENDBRANCH   1   6
TORSDOF 4
ENDMDL
