@<TRIPOS>MOLECULE
/home/cewinharhar/GITHUB/reincatalyze/data/processed/docking_pred/2023-May-17-1006_maxeplen10_maxtrainstep1000_seadep16_gamma099_lrac9e-4_lrcr1e-3_sub6/ea9f39b4277e7ba3f00603e8654b95ed05d2571c_ligand_6.pdbqt
 15 16 0 0 0
SMALL
GASTEIGER

@<TRIPOS>ATOM
      1  C          5.4580    1.5370   -0.3010 C.3     1  UNL1        0.1270
      2  C          5.1420    2.0590    1.0190 C.2     1  UNL1        0.3030
      3  O          4.3030    1.5920    1.7930 O.2     1  UNL1       -0.2520
      4  O          5.8510    3.1900    1.4520 O.3     1  UNL1       -0.4810
      5  H          6.4930    3.0480    2.2170 H       1  UNL1        0.2960
      6  C          6.8910    1.2340   -0.4990 C.3     1  UNL1        0.0470
      7  C          7.3260   -0.1490   -0.2890 C.2     1  UNL1       -0.0430
      8  C          7.5160   -0.6630    0.9840 C.2     1  UNL1        0.0080
      9  C          7.5980   -0.9670   -1.3530 C.2     1  UNL1        0.0540
     10  C          7.9600   -1.9520    1.1830 C.2     1  UNL1        0.0510
     11  C          8.0440   -2.2630   -1.1780 C.2     1  UNL1        0.1660
     12  C          8.2260   -2.7600    0.0900 C.2     1  UNL1        0.1650
     13  O          8.3740   -3.2520   -2.0880 O.2     1  UNL1       -0.4540
     14  O          8.6750   -4.0740   -0.0530 O.2     1  UNL1       -0.4540
     15  C          9.0710   -4.2930   -1.3880 C.3     1  UNL1        0.4680
@<TRIPOS>BOND
     1    13    15    1
     2    13    11    1
     3    15    14    1
     4     9    11    1
     5     9     7    2
     6    11    12    2
     7     6     1    1
     8     6     7    1
     9     1     2    1
    10     7     8    1
    11    14    12    1
    12    12    10    1
    13     8    10    2
    14     2     4    1
    15     2     3    2
    16     4     5    1
