@<TRIPOS>MOLECULE
/home/cewinharhar/GITHUB/reincatalyze/data/processed/docking_pred/2023-May-17-1006_maxeplen10_maxtrainstep1000_seadep16_gamma099_lrac9e-4_lrcr1e-3_sub6/eb9358f7bad4db9539b7d0967c6d7dee777b6146_ligand_6.pdbqt
 15 16 0 0 0
SMALL
GASTEIGER

@<TRIPOS>ATOM
      1  C          6.4400    1.3130    0.7340 C.3     1  UNL1        0.1270
      2  C          5.1750    1.3320    1.4530 C.2     1  UNL1        0.3030
      3  O          4.2710    2.1540    1.2920 O.2     1  UNL1       -0.2520
      4  O          4.9650    0.3300    2.4130 O.3     1  UNL1       -0.4810
      5  H          5.2460   -0.6020    2.1530 H       1  UNL1        0.2960
      6  C          6.3110    0.9640   -0.6970 C.3     1  UNL1        0.0470
      7  C          7.0320   -0.2180   -1.1730 C.2     1  UNL1       -0.0430
      8  C          7.3050   -0.4070   -2.5200 C.2     1  UNL1        0.0080
      9  C          7.4260   -1.1970   -0.3000 C.2     1  UNL1        0.0540
     10  C          7.9510   -1.5350   -2.9730 C.2     1  UNL1        0.0510
     11  C          8.0770   -2.3370   -0.7320 C.2     1  UNL1        0.1660
     12  C          8.3410   -2.5100   -2.0700 C.2     1  UNL1        0.1650
     13  O          8.5590   -3.4360   -0.0440 O.2     1  UNL1       -0.4540
     14  O          8.9950   -3.7370   -2.1950 O.2     1  UNL1       -0.4540
     15  C          8.8610   -4.4660   -0.9970 C.3     1  UNL1        0.4680
@<TRIPOS>BOND
     1    10     8    1
     2    10    12    2
     3     8     7    2
     4    14    12    1
     5    14    15    1
     6    12    11    1
     7     7     6    1
     8     7     9    1
     9    15    13    1
    10    11     9    2
    11    11    13    1
    12     6     1    1
    13     1     2    1
    14     3     2    2
    15     2     4    1
    16     5     4    1
