@<TRIPOS>MOLECULE
/home/cewinharhar/GITHUB/reincatalyze/data/processed/docking_pred/2023-May-17-1006_maxeplen10_maxtrainstep1000_seadep16_gamma099_lrac9e-4_lrcr1e-3_sub6/eb9358f7bad4db9539b7d0967c6d7dee777b6146_ligand_6.pdbqt
 15 16 0 0 0
SMALL
GASTEIGER

@<TRIPOS>ATOM
      1  C          4.6900    1.8850    0.6820 C.3     1  UNL1        0.1270
      2  C          4.4030    1.1720    1.9170 C.2     1  UNL1        0.3030
      3  O          5.1440    0.3500    2.4590 O.2     1  UNL1       -0.2520
      4  O          3.1770    1.4400    2.5460 O.3     1  UNL1       -0.4810
      5  H          2.3630    1.0080    2.1370 H       1  UNL1        0.2960
      6  C          6.1120    2.2570    0.5210 C.3     1  UNL1        0.0470
      7  C          6.9670    1.3470   -0.2440 C.2     1  UNL1       -0.0430
      8  C          8.3290    1.5690   -0.3720 C.2     1  UNL1        0.0080
      9  C          6.4340    0.2640   -0.8930 C.2     1  UNL1        0.0540
     10  C          9.1290    0.7340   -1.1210 C.2     1  UNL1        0.0510
     11  C          7.2170   -0.5870   -1.6490 C.2     1  UNL1        0.1660
     12  C          8.5660   -0.3560   -1.7660 C.2     1  UNL1        0.1650
     13  O          6.9020   -1.7210   -2.3770 O.2     1  UNL1       -0.4540
     14  O          9.0800   -1.3670   -2.5790 O.2     1  UNL1       -0.4540
     15  C          8.0200   -2.0390   -3.2200 C.3     1  UNL1        0.4680
@<TRIPOS>BOND
     1    15    14    1
     2    15    13    1
     3    14    12    1
     4    13    11    1
     5    12    11    2
     6    12    10    1
     7    11     9    1
     8    10     8    2
     9     9     7    2
    10     8     7    1
    11     7     6    1
    12     6     1    1
    13     1     2    1
    14     2     3    2
    15     2     4    1
    16     5     4    1
