@<TRIPOS>MOLECULE
/home/cewinharhar/GITHUB/reincatalyze/data/processed/docking_pred/2023-May-17-1006_maxeplen10_maxtrainstep1000_seadep16_gamma099_lrac9e-4_lrcr1e-3_sub6/eb9358f7bad4db9539b7d0967c6d7dee777b6146_ligand_6.pdbqt
 15 16 0 0 0
SMALL
GASTEIGER

@<TRIPOS>ATOM
      1  C          5.4220    2.8640    0.1280 C.3     1  UNL1        0.1270
      2  C          6.2590    3.8380    0.8120 C.2     1  UNL1        0.3030
      3  O          6.9130    4.7290    0.2680 O.2     1  UNL1       -0.2520
      4  O          6.3280    3.7580    2.2120 O.3     1  UNL1       -0.4810
      5  H          7.2010    4.0370    2.6310 H       1  UNL1        0.2960
      6  C          5.3540    1.5510    0.8040 C.3     1  UNL1        0.0470
      7  C          6.1310    0.4520    0.2270 C.2     1  UNL1       -0.0430
      8  C          6.5710   -0.6100    1.0020 C.2     1  UNL1        0.0080
      9  C          6.4810    0.4610   -1.0980 C.2     1  UNL1        0.0540
     10  C          7.3320   -1.6260    0.4680 C.2     1  UNL1        0.0510
     11  C          7.2430   -0.5480   -1.6550 C.2     1  UNL1        0.1660
     12  C          7.6710   -1.5950   -0.8750 C.2     1  UNL1        0.1650
     13  O          7.7070   -0.7440   -2.9440 O.2     1  UNL1       -0.4540
     14  O          8.4080   -2.4410   -1.7050 O.2     1  UNL1       -0.4540
     15  C          8.7040   -1.7760   -2.9110 C.3     1  UNL1        0.4680
@<TRIPOS>BOND
     1    13    15    1
     2    13    11    1
     3    15    14    1
     4    14    12    1
     5    11     9    1
     6    11    12    2
     7     9     7    2
     8    12    10    1
     9     1     6    1
    10     1     2    1
    11     7     6    1
    12     7     8    1
    13     3     2    2
    14    10     8    2
    15     2     4    1
    16     4     5    1
