@<TRIPOS>MOLECULE
/home/cewinharhar/GITHUB/reincatalyze/data/processed/docking_pred/2023-May-17-1006_maxeplen10_maxtrainstep1000_seadep16_gamma099_lrac9e-4_lrcr1e-3_sub6/eb9358f7bad4db9539b7d0967c6d7dee777b6146_ligand_6.pdbqt
 15 16 0 0 0
SMALL
GASTEIGER

@<TRIPOS>ATOM
      1  C          8.2990   -0.3230   -2.8610 C.3     1  UNL1        0.1270
      2  C          8.4700   -1.7520   -3.0670 C.2     1  UNL1        0.3030
      3  O          9.5410   -2.3610   -3.0180 O.2     1  UNL1       -0.2520
      4  O          7.3190   -2.5060   -3.3460 O.3     1  UNL1       -0.4810
      5  H          7.4700   -3.4140   -3.7570 H       1  UNL1        0.2960
      6  C          8.7510    0.1510   -1.5360 C.3     1  UNL1        0.0470
      7  C          7.7850    0.1110   -0.4360 C.2     1  UNL1       -0.0430
      8  C          7.7380   -0.9550    0.4490 C.2     1  UNL1        0.0080
      9  C          6.8670    1.1150   -0.2740 C.2     1  UNL1        0.0540
     10  C          6.8060   -1.0110    1.4620 C.2     1  UNL1        0.0510
     11  C          5.9230    1.0800    0.7350 C.2     1  UNL1        0.1660
     12  C          5.8890    0.0180    1.6060 C.2     1  UNL1        0.1650
     13  O          4.9170    1.9640    1.0840 O.2     1  UNL1       -0.4540
     14  O          4.8450    0.2620    2.4990 O.2     1  UNL1       -0.4540
     15  C          4.0350    1.3030    2.0030 C.3     1  UNL1        0.4680
@<TRIPOS>BOND
     1     5     4    1
     2     4     2    1
     3     2     3    2
     4     2     1    1
     5     1     6    1
     6     6     7    1
     7     7     9    2
     8     7     8    1
     9     9    11    1
    10     8    10    2
    11    11    13    1
    12    11    12    2
    13    13    15    1
    14    10    12    1
    15    12    14    1
    16    15    14    1
