@<TRIPOS>MOLECULE
/home/cewinharhar/GITHUB/reincatalyze/data/processed/docking_pred/2023-May-17-1006_maxeplen10_maxtrainstep1000_seadep16_gamma099_lrac9e-4_lrcr1e-3_sub6/eb9358f7bad4db9539b7d0967c6d7dee777b6146_ligand_6.pdbqt
 15 16 0 0 0
SMALL
GASTEIGER

@<TRIPOS>ATOM
      1  C          5.4040    2.7760    0.1980 C.3     1  UNL1        0.1270
      2  C          6.1960    3.7320    0.9550 C.2     1  UNL1        0.3030
      3  O          6.2860    3.7750    2.1830 O.2     1  UNL1       -0.2520
      4  O          6.9200    4.6890    0.2270 O.3     1  UNL1       -0.4810
      5  H          6.8020    4.6700   -0.7740 H       1  UNL1        0.2960
      6  C          5.3620    1.4240    0.7950 C.3     1  UNL1        0.0470
      7  C          6.1980    0.3880    0.1850 C.2     1  UNL1       -0.0430
      8  C          6.4470    0.3670   -1.1780 C.2     1  UNL1        0.0080
      9  C          6.7290   -0.6210    0.9450 C.2     1  UNL1        0.0540
     10  C          7.2030   -0.6270   -1.7590 C.2     1  UNL1        0.0510
     11  C          7.4910   -1.6280    0.3840 C.2     1  UNL1        0.1660
     12  C          7.7310   -1.6350   -0.9690 C.2     1  UNL1        0.1650
     13  O          8.1170   -2.7270    0.9460 O.2     1  UNL1       -0.4540
     14  O          8.5160   -2.7580   -1.2330 O.2     1  UNL1       -0.4540
     15  C          8.5050   -3.6140   -0.1140 C.3     1  UNL1        0.4680
@<TRIPOS>BOND
     1    10     8    1
     2    10    12    2
     3    14    12    1
     4    14    15    1
     5     8     7    2
     6    12    11    1
     7     5     4    1
     8    15    13    1
     9     7     6    1
    10     7     9    1
    11     1     6    1
    12     1     2    1
    13     4     2    1
    14    11     9    2
    15    11    13    1
    16     2     3    2
