@<TRIPOS>MOLECULE
/home/cewinharhar/GITHUB/reincatalyze/data/processed/docking_pred/2023-May-17-1006_maxeplen10_maxtrainstep1000_seadep16_gamma099_lrac9e-4_lrcr1e-3_sub6/f15420a79f585431148ea344134f913ab78e73cd_ligand_6.pdbqt
 15 16 0 0 0
SMALL
GASTEIGER

@<TRIPOS>ATOM
      1  C          8.2360   -2.7560   -3.6390 C.3     1  UNL1        0.1270
      2  C          9.3440   -3.6930   -3.5510 C.2     1  UNL1        0.3030
      3  O         10.5250   -3.3920   -3.3660 O.2     1  UNL1       -0.2520
      4  O          9.0470   -5.0580   -3.6880 O.3     1  UNL1       -0.4810
      5  H          9.8290   -5.6920   -3.6300 H       1  UNL1        0.2960
      6  C          8.5310   -1.4210   -3.0740 C.3     1  UNL1        0.0470
      7  C          7.7340   -0.9790   -1.9280 C.2     1  UNL1       -0.0430
      8  C          6.9780    0.1820   -1.9770 C.2     1  UNL1        0.0080
      9  C          7.7440   -1.6850   -0.7550 C.2     1  UNL1        0.0540
     10  C          6.2560    0.6180   -0.8880 C.2     1  UNL1        0.0510
     11  C          7.0270   -1.2660    0.3510 C.2     1  UNL1        0.1660
     12  C          6.2810   -0.1140    0.2880 C.2     1  UNL1        0.1650
     13  O          6.8900   -1.8090    1.6160 O.2     1  UNL1       -0.4540
     14  O          5.6810    0.0460    1.5380 O.2     1  UNL1       -0.4540
     15  C          6.2920   -0.8200    2.4670 C.3     1  UNL1        0.4680
@<TRIPOS>BOND
     1     4     5    1
     2     4     2    1
     3     1     2    1
     4     1     6    1
     5     2     3    2
     6     6     7    1
     7     8     7    2
     8     8    10    1
     9     7     9    1
    10    10    12    2
    11     9    11    2
    12    12    11    1
    13    12    14    1
    14    11    13    1
    15    14    15    1
    16    13    15    1
