MODEL 1
REMARK VINA RESULT:      -7.6      0.000      0.000
REMARK SMILES O=C(O)CCc1ccc2c(c1)OCO2
REMARK SMILES IDX 4 1 2 2 1 3 3 4 5 6 6 7 7 8 11 9 8 10 10 11 9 12 12 13 14 14
REMARK SMILES IDX 13 15
REMARK H PARENT 3 5
REMARK Flexibility Score: inf
ROOT
ATOM      1  C   UNL     1       4.705   1.851   0.693  1.00  0.00     0.127 C 
ENDROOT
BRANCH   1   2
ATOM      2  C   UNL     1       4.400   1.147   1.929  1.00  0.00     0.303 C 
ATOM      3  O   UNL     1       5.125   0.317   2.480  1.00  0.00    -0.252 OA
BRANCH   2   4
ATOM      4  O   UNL     1       3.173   1.435   2.548  1.00  0.00    -0.481 OA
ATOM      5  H   UNL     1       3.223   1.932   3.424  1.00  0.00     0.296 HD
ENDBRANCH   2   4
ENDBRANCH   1   2
BRANCH   1   6
ATOM      6  C   UNL     1       6.130   2.218   0.549  1.00  0.00     0.047 C 
BRANCH   6   7
ATOM      7  C   UNL     1       6.986   1.319  -0.228  1.00  0.00    -0.043 A 
ATOM      8  C   UNL     1       8.344   1.559  -0.377  1.00  0.00     0.008 A 
ATOM      9  C   UNL     1       6.459   0.229  -0.868  1.00  0.00     0.054 A 
ATOM     10  C   UNL     1       9.143   0.735  -1.137  1.00  0.00     0.051 A 
ATOM     11  C   UNL     1       7.241  -0.612  -1.635  1.00  0.00     0.166 A 
ATOM     12  C   UNL     1       8.586  -0.363  -1.773  1.00  0.00     0.165 A 
ATOM     13  O   UNL     1       6.931  -1.751  -2.358  1.00  0.00    -0.454 OA
ATOM     14  O   UNL     1       9.100  -1.368  -2.593  1.00  0.00    -0.454 OA
ATOM     15  C   UNL     1       8.040  -2.054  -3.218  1.00  0.00     0.468 C 
ENDBRANCH   6   7
ENDBRANCH   1   6
TORSDOF 4
ENDMDL
MODEL 2
REMARK VINA RESULT:      -7.5      2.481      2.824
REMARK SMILES O=C(O)CCc1ccc2c(c1)OCO2
REMARK SMILES IDX 4 1 2 2 1 3 3 4 5 6 6 7 7 8 11 9 8 10 10 11 9 12 12 13 14 14
REMARK SMILES IDX 13 15
REMARK H PARENT 3 5
REMARK Flexibility Score: inf
ROOT
ATOM      1  C   UNL     1       5.410   2.801   0.170  1.00  0.00     0.127 C 
ENDROOT
BRANCH   1   2
ATOM      2  C   UNL     1       6.183   3.756   0.948  1.00  0.00     0.303 C 
ATOM      3  O   UNL     1       6.264   3.781   2.177  1.00  0.00    -0.252 OA
BRANCH   2   4
ATOM      4  O   UNL     1       6.897   4.736   0.240  1.00  0.00    -0.481 OA
ATOM      5  H   UNL     1       6.465   5.080  -0.603  1.00  0.00     0.296 HD
ENDBRANCH   2   4
ENDBRANCH   1   2
BRANCH   1   6
ATOM      6  C   UNL     1       5.360   1.447   0.761  1.00  0.00     0.047 C 
BRANCH   6   7
ATOM      7  C   UNL     1       6.195   0.409   0.152  1.00  0.00    -0.043 A 
ATOM      8  C   UNL     1       6.437   0.383  -1.213  1.00  0.00     0.008 A 
ATOM      9  C   UNL     1       6.733  -0.594   0.914  1.00  0.00     0.054 A 
ATOM     10  C   UNL     1       7.193  -0.612  -1.792  1.00  0.00     0.051 A 
ATOM     11  C   UNL     1       7.495  -1.602   0.354  1.00  0.00     0.166 A 
ATOM     12  C   UNL     1       7.727  -1.615  -1.000  1.00  0.00     0.165 A 
ATOM     13  O   UNL     1       8.127  -2.697   0.918  1.00  0.00    -0.454 OA
ATOM     14  O   UNL     1       8.515  -2.737  -1.263  1.00  0.00    -0.454 OA
ATOM     15  C   UNL     1       8.511  -3.588  -0.140  1.00  0.00     0.468 C 
ENDBRANCH   6   7
ENDBRANCH   1   6
TORSDOF 4
ENDMDL
MODEL 3
REMARK VINA RESULT:      -7.5      1.855      2.490
REMARK SMILES O=C(O)CCc1ccc2c(c1)OCO2
REMARK SMILES IDX 4 1 2 2 1 3 3 4 5 6 6 7 7 8 11 9 8 10 10 11 9 12 12 13 14 14
REMARK SMILES IDX 13 15
REMARK H PARENT 3 5
REMARK Flexibility Score: inf
ROOT
ATOM      1  C   UNL     1       6.431   1.332   0.679  1.00  0.00     0.127 C 
ENDROOT
BRANCH   1   2
ATOM      2  C   UNL     1       5.191   1.358   1.438  1.00  0.00     0.303 C 
ATOM      3  O   UNL     1       4.269   2.159   1.278  1.00  0.00    -0.252 OA
BRANCH   2   4
ATOM      4  O   UNL     1       5.029   0.388   2.440  1.00  0.00    -0.481 OA
ATOM      5  H   UNL     1       5.316  -0.549   2.203  1.00  0.00     0.296 HD
ENDBRANCH   2   4
ENDBRANCH   1   2
BRANCH   1   6
ATOM      6  C   UNL     1       6.270   0.876  -0.719  1.00  0.00     0.047 C 
BRANCH   6   7
ATOM      7  C   UNL     1       7.010  -0.318  -1.131  1.00  0.00    -0.043 A 
ATOM      8  C   UNL     1       7.302  -0.566  -2.464  1.00  0.00     0.008 A 
ATOM      9  C   UNL     1       7.405  -1.251  -0.209  1.00  0.00     0.054 A 
ATOM     10  C   UNL     1       7.966  -1.707  -2.857  1.00  0.00     0.051 A 
ATOM     11  C   UNL     1       8.073  -2.402  -0.580  1.00  0.00     0.166 A 
ATOM     12  C   UNL     1       8.356  -2.634  -1.904  1.00  0.00     0.165 A 
ATOM     13  O   UNL     1       8.560  -3.462   0.165  1.00  0.00    -0.454 OA
ATOM     14  O   UNL     1       9.026  -3.857  -1.965  1.00  0.00    -0.454 OA
ATOM     15  C   UNL     1       8.885  -4.532  -0.736  1.00  0.00     0.468 C 
ENDBRANCH   6   7
ENDBRANCH   1   6
TORSDOF 4
ENDMDL
MODEL 4
REMARK VINA RESULT:      -7.5      1.442      5.383
REMARK SMILES O=C(O)CCc1ccc2c(c1)OCO2
REMARK SMILES IDX 4 1 2 2 1 3 3 4 5 6 6 7 7 8 11 9 8 10 10 11 9 12 12 13 14 14
REMARK SMILES IDX 13 15
REMARK H PARENT 3 5
REMARK Flexibility Score: inf
ROOT
ATOM      1  C   UNL     1       8.296  -0.323  -2.852  1.00  0.00     0.127 C 
ENDROOT
BRANCH   1   2
ATOM      2  C   UNL     1       8.464  -1.751  -3.071  1.00  0.00     0.303 C 
ATOM      3  O   UNL     1       9.533  -2.362  -3.028  1.00  0.00    -0.252 OA
BRANCH   2   4
ATOM      4  O   UNL     1       7.311  -2.499  -3.354  1.00  0.00    -0.481 OA
ATOM      5  H   UNL     1       6.464  -1.973  -3.505  1.00  0.00     0.296 HD
ENDBRANCH   2   4
ENDBRANCH   1   2
BRANCH   1   6
ATOM      6  C   UNL     1       8.760   0.140  -1.527  1.00  0.00     0.047 C 
BRANCH   6   7
ATOM      7  C   UNL     1       7.798   0.106  -0.423  1.00  0.00    -0.043 A 
ATOM      8  C   UNL     1       7.773  -0.942   0.485  1.00  0.00     0.008 A 
ATOM      9  C   UNL     1       6.863   1.097  -0.278  1.00  0.00     0.054 A 
ATOM     10  C   UNL     1       6.845  -0.993   1.502  1.00  0.00     0.051 A 
ATOM     11  C   UNL     1       5.923   1.066   0.735  1.00  0.00     0.166 A 
ATOM     12  C   UNL     1       5.911   0.022   1.628  1.00  0.00     0.165 A 
ATOM     13  O   UNL     1       4.903   1.940   1.068  1.00  0.00    -0.454 OA
ATOM     14  O   UNL     1       4.865   0.267   2.519  1.00  0.00    -0.454 OA
ATOM     15  C   UNL     1       4.036   1.283   2.005  1.00  0.00     0.468 C 
ENDBRANCH   6   7
ENDBRANCH   1   6
TORSDOF 4
ENDMDL
