@<TRIPOS>MOLECULE
/home/cewinharhar/GITHUB/reincatalyze/data/processed/docking_pred/2023-May-17-1006_maxeplen10_maxtrainstep1000_seadep16_gamma099_lrac9e-4_lrcr1e-3_sub6/f15420a79f585431148ea344134f913ab78e73cd_ligand_6.pdbqt
 15 16 0 0 0
SMALL
GASTEIGER

@<TRIPOS>ATOM
      1  C          6.4310    1.3320    0.6790 C.3     1  UNL1        0.1270
      2  C          5.1910    1.3580    1.4380 C.2     1  UNL1        0.3030
      3  O          4.2690    2.1590    1.2780 O.2     1  UNL1       -0.2520
      4  O          5.0290    0.3880    2.4400 O.3     1  UNL1       -0.4810
      5  H          5.3160   -0.5490    2.2030 H       1  UNL1        0.2960
      6  C          6.2700    0.8760   -0.7190 C.3     1  UNL1        0.0470
      7  C          7.0100   -0.3180   -1.1310 C.2     1  UNL1       -0.0430
      8  C          7.3020   -0.5660   -2.4640 C.2     1  UNL1        0.0080
      9  C          7.4050   -1.2510   -0.2090 C.2     1  UNL1        0.0540
     10  C          7.9660   -1.7070   -2.8570 C.2     1  UNL1        0.0510
     11  C          8.0730   -2.4020   -0.5800 C.2     1  UNL1        0.1660
     12  C          8.3560   -2.6340   -1.9040 C.2     1  UNL1        0.1650
     13  O          8.5600   -3.4620    0.1650 O.2     1  UNL1       -0.4540
     14  O          9.0260   -3.8570   -1.9650 O.2     1  UNL1       -0.4540
     15  C          8.8850   -4.5320   -0.7360 C.3     1  UNL1        0.4680
@<TRIPOS>BOND
     1    10     8    1
     2    10    12    2
     3     8     7    2
     4    14    12    1
     5    14    15    1
     6    12    11    1
     7     7     6    1
     8     7     9    1
     9    15    13    1
    10     6     1    1
    11    11     9    2
    12    11    13    1
    13     1     2    1
    14     3     2    2
    15     2     4    1
    16     5     4    1
