@<TRIPOS>MOLECULE
/home/cewinharhar/GITHUB/reincatalyze/data/processed/docking_pred/2023-May-17-1006_maxeplen10_maxtrainstep1000_seadep16_gamma099_lrac9e-4_lrcr1e-3_sub6/f15420a79f585431148ea344134f913ab78e73cd_ligand_6.pdbqt
 15 16 0 0 0
SMALL
GASTEIGER

@<TRIPOS>ATOM
      1  C          8.2960   -0.3230   -2.8520 C.3     1  UNL1        0.1270
      2  C          8.4640   -1.7510   -3.0710 C.2     1  UNL1        0.3030
      3  O          9.5330   -2.3620   -3.0280 O.2     1  UNL1       -0.2520
      4  O          7.3110   -2.4990   -3.3540 O.3     1  UNL1       -0.4810
      5  H          6.4640   -1.9730   -3.5050 H       1  UNL1        0.2960
      6  C          8.7600    0.1400   -1.5270 C.3     1  UNL1        0.0470
      7  C          7.7980    0.1060   -0.4230 C.2     1  UNL1       -0.0430
      8  C          7.7730   -0.9420    0.4850 C.2     1  UNL1        0.0080
      9  C          6.8630    1.0970   -0.2780 C.2     1  UNL1        0.0540
     10  C          6.8450   -0.9930    1.5020 C.2     1  UNL1        0.0510
     11  C          5.9230    1.0660    0.7350 C.2     1  UNL1        0.1660
     12  C          5.9110    0.0220    1.6280 C.2     1  UNL1        0.1650
     13  O          4.9030    1.9400    1.0680 O.2     1  UNL1       -0.4540
     14  O          4.8650    0.2670    2.5190 O.2     1  UNL1       -0.4540
     15  C          4.0360    1.2830    2.0050 C.3     1  UNL1        0.4680
@<TRIPOS>BOND
     1     5     4    1
     2     4     2    1
     3     2     3    2
     4     2     1    1
     5     1     6    1
     6     6     7    1
     7     7     9    2
     8     7     8    1
     9     9    11    1
    10     8    10    2
    11    11    13    1
    12    11    12    2
    13    13    15    1
    14    10    12    1
    15    12    14    1
    16    15    14    1
