@<TRIPOS>MOLECULE
/home/cewinharhar/GITHUB/reincatalyze/data/processed/docking_pred/2023-May-17-1006_maxeplen10_maxtrainstep1000_seadep16_gamma099_lrac9e-4_lrcr1e-3_sub6/f15420a79f585431148ea344134f913ab78e73cd_ligand_6.pdbqt
 15 16 0 0 0
SMALL
GASTEIGER

@<TRIPOS>ATOM
      1  C          5.4100    2.8010    0.1700 C.3     1  UNL1        0.1270
      2  C          6.1830    3.7560    0.9480 C.2     1  UNL1        0.3030
      3  O          6.2640    3.7810    2.1770 O.2     1  UNL1       -0.2520
      4  O          6.8970    4.7360    0.2400 O.3     1  UNL1       -0.4810
      5  H          6.4650    5.0800   -0.6030 H       1  UNL1        0.2960
      6  C          5.3600    1.4470    0.7610 C.3     1  UNL1        0.0470
      7  C          6.1950    0.4090    0.1520 C.2     1  UNL1       -0.0430
      8  C          6.4370    0.3830   -1.2130 C.2     1  UNL1        0.0080
      9  C          6.7330   -0.5940    0.9140 C.2     1  UNL1        0.0540
     10  C          7.1930   -0.6120   -1.7920 C.2     1  UNL1        0.0510
     11  C          7.4950   -1.6020    0.3540 C.2     1  UNL1        0.1660
     12  C          7.7270   -1.6150   -1.0000 C.2     1  UNL1        0.1650
     13  O          8.1270   -2.6970    0.9180 O.2     1  UNL1       -0.4540
     14  O          8.5150   -2.7370   -1.2630 O.2     1  UNL1       -0.4540
     15  C          8.5110   -3.5880   -0.1400 C.3     1  UNL1        0.4680
@<TRIPOS>BOND
     1    10     8    1
     2    10    12    2
     3    14    12    1
     4    14    15    1
     5     8     7    2
     6    12    11    1
     7     5     4    1
     8    15    13    1
     9     7     6    1
    10     7     9    1
    11     1     6    1
    12     1     2    1
    13     4     2    1
    14    11     9    2
    15    11    13    1
    16     2     3    2
