@<TRIPOS>MOLECULE
/home/cewinharhar/GITHUB/reincatalyze/data/processed/docking_pred/2023-May-17-1006_maxeplen10_maxtrainstep1000_seadep16_gamma099_lrac9e-4_lrcr1e-3_sub6/f1acaff2cf7a86b9bbc999bfeecc6491fc2a0881_ligand_6.pdbqt
 15 16 0 0 0
SMALL
GASTEIGER

@<TRIPOS>ATOM
      1  C          4.7320    1.8380    0.7040 C.3     1  UNL1        0.1270
      2  C          4.4200    1.1260    1.9330 C.2     1  UNL1        0.3030
      3  O          5.1420    0.2930    2.4830 O.2     1  UNL1       -0.2520
      4  O          3.1910    1.4110    2.5480 O.3     1  UNL1       -0.4810
      5  H          2.6420    2.1450    2.1270 H       1  UNL1        0.2960
      6  C          6.1610    2.1910    0.5610 C.3     1  UNL1        0.0470
      7  C          7.0050    1.2910   -0.2270 C.2     1  UNL1       -0.0430
      8  C          8.3650    1.5190   -0.3780 C.2     1  UNL1        0.0080
      9  C          6.4650    0.2120   -0.8750 C.2     1  UNL1        0.0540
     10  C          9.1530    0.6940   -1.1490 C.2     1  UNL1        0.0510
     11  C          7.2370   -0.6300   -1.6530 C.2     1  UNL1        0.1660
     12  C          8.5830   -0.3920   -1.7930 C.2     1  UNL1        0.1650
     13  O          6.9130   -1.7590   -2.3850 O.2     1  UNL1       -0.4540
     14  O          9.0850   -1.3940   -2.6240 O.2     1  UNL1       -0.4540
     15  C          8.0160   -2.0650   -3.2510 C.3     1  UNL1        0.4680
@<TRIPOS>BOND
     1    15    14    1
     2    15    13    1
     3    14    12    1
     4    13    11    1
     5    12    11    2
     6    12    10    1
     7    11     9    1
     8    10     8    2
     9     9     7    2
    10     8     7    1
    11     7     6    1
    12     6     1    1
    13     1     2    1
    14     2     3    2
    15     2     4    1
    16     5     4    1
