@<TRIPOS>MOLECULE
/home/cewinharhar/GITHUB/reincatalyze/data/processed/docking_pred/2023-May-17-1006_maxeplen10_maxtrainstep1000_seadep16_gamma099_lrac9e-4_lrcr1e-3_sub6/f1acaff2cf7a86b9bbc999bfeecc6491fc2a0881_ligand_6.pdbqt
 15 16 0 0 0
SMALL
GASTEIGER

@<TRIPOS>ATOM
      1  C          6.4220    1.3300    0.6920 C.3     1  UNL1        0.1270
      2  C          5.1930    1.3350    1.4710 C.2     1  UNL1        0.3030
      3  O          4.2610    2.1300    1.3360 O.2     1  UNL1       -0.2520
      4  O          5.0540    0.3500    2.4620 O.3     1  UNL1       -0.4810
      5  H          5.8950   -0.1440    2.7190 H       1  UNL1        0.2960
      6  C          6.2470    0.8700   -0.7020 C.3     1  UNL1        0.0470
      7  C          6.9970   -0.3150   -1.1230 C.2     1  UNL1       -0.0430
      8  C          7.3030   -0.5430   -2.4560 C.2     1  UNL1        0.0080
      9  C          7.3850   -1.2590   -0.2100 C.2     1  UNL1        0.0540
     10  C          7.9760   -1.6750   -2.8580 C.2     1  UNL1        0.0510
     11  C          8.0630   -2.4020   -0.5900 C.2     1  UNL1        0.1660
     12  C          8.3610   -2.6140   -1.9140 C.2     1  UNL1        0.1650
     13  O          8.5460   -3.4710    0.1440 O.2     1  UNL1       -0.4540
     14  O          9.0360   -3.8330   -1.9850 O.2     1  UNL1       -0.4540
     15  C          8.8860   -4.5260   -0.7680 C.3     1  UNL1        0.4680
@<TRIPOS>BOND
     1    10     8    1
     2    10    12    2
     3     8     7    2
     4    14    12    1
     5    14    15    1
     6    12    11    1
     7     7     6    1
     8     7     9    1
     9    15    13    1
    10     6     1    1
    11    11     9    2
    12    11    13    1
    13     1     2    1
    14     3     2    2
    15     2     4    1
    16     4     5    1
