@<TRIPOS>MOLECULE
/home/cewinharhar/GITHUB/reincatalyze/data/processed/docking_pred/2023-May-17-1006_maxeplen10_maxtrainstep1000_seadep16_gamma099_lrac9e-4_lrcr1e-3_sub6/f1acaff2cf7a86b9bbc999bfeecc6491fc2a0881_ligand_6.pdbqt
 15 16 0 0 0
SMALL
GASTEIGER

@<TRIPOS>ATOM
      1  C          5.4160    2.8680    0.1250 C.3     1  UNL1        0.1270
      2  C          6.2430    3.8510    0.8070 C.2     1  UNL1        0.3030
      3  O          6.8860    4.7490    0.2620 O.2     1  UNL1       -0.2520
      4  O          6.3170    3.7710    2.2070 O.3     1  UNL1       -0.4810
      5  H          5.6750    4.3540    2.7210 H       1  UNL1        0.2960
      6  C          5.3500    1.5590    0.8110 C.3     1  UNL1        0.0470
      7  C          6.1310    0.4580    0.2450 C.2     1  UNL1       -0.0430
      8  C          6.5850   -0.5880    1.0330 C.2     1  UNL1        0.0080
      9  C          6.4710    0.4500   -1.0820 C.2     1  UNL1        0.0540
     10  C          7.3510   -1.6060    0.5090 C.2     1  UNL1        0.0510
     11  C          7.2380   -0.5610   -1.6290 C.2     1  UNL1        0.1660
     12  C          7.6800   -1.5920   -0.8360 C.2     1  UNL1        0.1650
     13  O          7.6950   -0.7730   -2.9180 O.2     1  UNL1       -0.4540
     14  O          8.4190   -2.4450   -1.6590 O.2     1  UNL1       -0.4540
     15  C          8.7010   -1.7960   -2.8770 C.3     1  UNL1        0.4680
@<TRIPOS>BOND
     1    13    15    1
     2    13    11    1
     3    15    14    1
     4    14    12    1
     5    11     9    1
     6    11    12    2
     7     9     7    2
     8    12    10    1
     9     1     2    1
    10     1     6    1
    11     7     6    1
    12     7     8    1
    13     3     2    2
    14    10     8    2
    15     2     4    1
    16     4     5    1
