MODEL 1
REMARK VINA RESULT:      -7.7      0.000      0.000
REMARK SMILES O=C(O)CCc1ccc2c(c1)OCO2
REMARK SMILES IDX 4 1 2 2 1 3 3 4 5 6 6 7 7 8 11 9 8 10 10 11 9 12 12 13 14 14
REMARK SMILES IDX 13 15
REMARK H PARENT 3 5
REMARK Flexibility Score: inf
ROOT
ATOM      1  C   UNL     1       5.416   2.868   0.125  1.00  0.00     0.127 C 
ENDROOT
BRANCH   1   2
ATOM      2  C   UNL     1       6.243   3.851   0.807  1.00  0.00     0.303 C 
ATOM      3  O   UNL     1       6.886   4.749   0.262  1.00  0.00    -0.252 OA
BRANCH   2   4
ATOM      4  O   UNL     1       6.317   3.771   2.207  1.00  0.00    -0.481 OA
ATOM      5  H   UNL     1       5.675   4.354   2.721  1.00  0.00     0.296 HD
ENDBRANCH   2   4
ENDBRANCH   1   2
BRANCH   1   6
ATOM      6  C   UNL     1       5.350   1.559   0.811  1.00  0.00     0.047 C 
BRANCH   6   7
ATOM      7  C   UNL     1       6.131   0.458   0.245  1.00  0.00    -0.043 A 
ATOM      8  C   UNL     1       6.585  -0.588   1.033  1.00  0.00     0.008 A 
ATOM      9  C   UNL     1       6.471   0.450  -1.082  1.00  0.00     0.054 A 
ATOM     10  C   UNL     1       7.351  -1.606   0.509  1.00  0.00     0.051 A 
ATOM     11  C   UNL     1       7.238  -0.561  -1.629  1.00  0.00     0.166 A 
ATOM     12  C   UNL     1       7.680  -1.592  -0.836  1.00  0.00     0.165 A 
ATOM     13  O   UNL     1       7.695  -0.773  -2.918  1.00  0.00    -0.454 OA
ATOM     14  O   UNL     1       8.419  -2.445  -1.659  1.00  0.00    -0.454 OA
ATOM     15  C   UNL     1       8.701  -1.796  -2.877  1.00  0.00     0.468 C 
ENDBRANCH   6   7
ENDBRANCH   1   6
TORSDOF 4
ENDMDL
MODEL 2
REMARK VINA RESULT:      -7.6      2.141      2.524
REMARK SMILES O=C(O)CCc1ccc2c(c1)OCO2
REMARK SMILES IDX 4 1 2 2 1 3 3 4 5 6 6 7 7 8 11 9 8 10 10 11 9 12 12 13 14 14
REMARK SMILES IDX 13 15
REMARK H PARENT 3 5
REMARK Flexibility Score: inf
ROOT
ATOM      1  C   UNL     1       4.732   1.838   0.704  1.00  0.00     0.127 C 
ENDROOT
BRANCH   1   2
ATOM      2  C   UNL     1       4.420   1.126   1.933  1.00  0.00     0.303 C 
ATOM      3  O   UNL     1       5.142   0.293   2.483  1.00  0.00    -0.252 OA
BRANCH   2   4
ATOM      4  O   UNL     1       3.191   1.411   2.548  1.00  0.00    -0.481 OA
ATOM      5  H   UNL     1       2.642   2.145   2.127  1.00  0.00     0.296 HD
ENDBRANCH   2   4
ENDBRANCH   1   2
BRANCH   1   6
ATOM      6  C   UNL     1       6.161   2.191   0.561  1.00  0.00     0.047 C 
BRANCH   6   7
ATOM      7  C   UNL     1       7.005   1.291  -0.227  1.00  0.00    -0.043 A 
ATOM      8  C   UNL     1       8.365   1.519  -0.378  1.00  0.00     0.008 A 
ATOM      9  C   UNL     1       6.465   0.212  -0.875  1.00  0.00     0.054 A 
ATOM     10  C   UNL     1       9.153   0.694  -1.149  1.00  0.00     0.051 A 
ATOM     11  C   UNL     1       7.237  -0.630  -1.653  1.00  0.00     0.166 A 
ATOM     12  C   UNL     1       8.583  -0.392  -1.793  1.00  0.00     0.165 A 
ATOM     13  O   UNL     1       6.913  -1.759  -2.385  1.00  0.00    -0.454 OA
ATOM     14  O   UNL     1       9.085  -1.394  -2.624  1.00  0.00    -0.454 OA
ATOM     15  C   UNL     1       8.016  -2.065  -3.251  1.00  0.00     0.468 C 
ENDBRANCH   6   7
ENDBRANCH   1   6
TORSDOF 4
ENDMDL
MODEL 3
REMARK VINA RESULT:      -7.5      0.963      2.125
REMARK SMILES O=C(O)CCc1ccc2c(c1)OCO2
REMARK SMILES IDX 4 1 2 2 1 3 3 4 5 6 6 7 7 8 11 9 8 10 10 11 9 12 12 13 14 14
REMARK SMILES IDX 13 15
REMARK H PARENT 3 5
REMARK Flexibility Score: inf
ROOT
ATOM      1  C   UNL     1       5.387   2.759   0.089  1.00  0.00     0.127 C 
ENDROOT
BRANCH   1   2
ATOM      2  C   UNL     1       6.125   3.731   0.880  1.00  0.00     0.303 C 
ATOM      3  O   UNL     1       6.158   3.776   2.111  1.00  0.00    -0.252 OA
BRANCH   2   4
ATOM      4  O   UNL     1       6.863   4.702   0.185  1.00  0.00    -0.481 OA
ATOM      5  H   UNL     1       6.717   4.742  -0.812  1.00  0.00     0.296 HD
ENDBRANCH   2   4
ENDBRANCH   1   2
BRANCH   1   6
ATOM      6  C   UNL     1       5.336   1.410   0.690  1.00  0.00     0.047 C 
BRANCH   6   7
ATOM      7  C   UNL     1       6.201   0.378   0.113  1.00  0.00    -0.043 A 
ATOM      8  C   UNL     1       6.518   0.369  -1.236  1.00  0.00     0.008 A 
ATOM      9  C   UNL     1       6.694  -0.637   0.890  1.00  0.00     0.054 A 
ATOM     10  C   UNL     1       7.302  -0.620  -1.787  1.00  0.00     0.051 A 
ATOM     11  C   UNL     1       7.483  -1.640   0.360  1.00  0.00     0.166 A 
ATOM     12  C   UNL     1       7.790  -1.635  -0.980  1.00  0.00     0.165 A 
ATOM     13  O   UNL     1       8.081  -2.744   0.942  1.00  0.00    -0.454 OA
ATOM     14  O   UNL     1       8.588  -2.756  -1.214  1.00  0.00    -0.454 OA
ATOM     15  C   UNL     1       8.520  -3.622  -0.105  1.00  0.00     0.468 C 
ENDBRANCH   6   7
ENDBRANCH   1   6
TORSDOF 4
ENDMDL
MODEL 4
REMARK VINA RESULT:      -7.5      1.961      2.867
REMARK SMILES O=C(O)CCc1ccc2c(c1)OCO2
REMARK SMILES IDX 4 1 2 2 1 3 3 4 5 6 6 7 7 8 11 9 8 10 10 11 9 12 12 13 14 14
REMARK SMILES IDX 13 15
REMARK H PARENT 3 5
REMARK Flexibility Score: inf
ROOT
ATOM      1  C   UNL     1       6.422   1.330   0.692  1.00  0.00     0.127 C 
ENDROOT
BRANCH   1   2
ATOM      2  C   UNL     1       5.193   1.335   1.471  1.00  0.00     0.303 C 
ATOM      3  O   UNL     1       4.261   2.130   1.336  1.00  0.00    -0.252 OA
BRANCH   2   4
ATOM      4  O   UNL     1       5.054   0.350   2.462  1.00  0.00    -0.481 OA
ATOM      5  H   UNL     1       5.895  -0.144   2.719  1.00  0.00     0.296 HD
ENDBRANCH   2   4
ENDBRANCH   1   2
BRANCH   1   6
ATOM      6  C   UNL     1       6.247   0.870  -0.702  1.00  0.00     0.047 C 
BRANCH   6   7
ATOM      7  C   UNL     1       6.997  -0.315  -1.123  1.00  0.00    -0.043 A 
ATOM      8  C   UNL     1       7.303  -0.543  -2.456  1.00  0.00     0.008 A 
ATOM      9  C   UNL     1       7.385  -1.259  -0.210  1.00  0.00     0.054 A 
ATOM     10  C   UNL     1       7.976  -1.675  -2.858  1.00  0.00     0.051 A 
ATOM     11  C   UNL     1       8.063  -2.402  -0.590  1.00  0.00     0.166 A 
ATOM     12  C   UNL     1       8.361  -2.614  -1.914  1.00  0.00     0.165 A 
ATOM     13  O   UNL     1       8.546  -3.471   0.144  1.00  0.00    -0.454 OA
ATOM     14  O   UNL     1       9.036  -3.833  -1.985  1.00  0.00    -0.454 OA
ATOM     15  C   UNL     1       8.886  -4.526  -0.768  1.00  0.00     0.468 C 
ENDBRANCH   6   7
ENDBRANCH   1   6
TORSDOF 4
ENDMDL
MODEL 5
REMARK VINA RESULT:      -7.5      1.796      5.286
REMARK SMILES O=C(O)CCc1ccc2c(c1)OCO2
REMARK SMILES IDX 4 1 2 2 1 3 3 4 5 6 6 7 7 8 11 9 8 10 10 11 9 12 12 13 14 14
REMARK SMILES IDX 13 15
REMARK H PARENT 3 5
REMARK Flexibility Score: inf
ROOT
ATOM      1  C   UNL     1       8.314  -0.327  -2.834  1.00  0.00     0.127 C 
ENDROOT
BRANCH   1   2
ATOM      2  C   UNL     1       8.470  -1.753  -3.072  1.00  0.00     0.303 C 
ATOM      3  O   UNL     1       9.535  -2.372  -3.049  1.00  0.00    -0.252 OA
BRANCH   2   4
ATOM      4  O   UNL     1       7.309  -2.491  -3.351  1.00  0.00    -0.481 OA
ATOM      5  H   UNL     1       7.360  -3.483  -3.182  1.00  0.00     0.296 HD
ENDBRANCH   2   4
ENDBRANCH   1   2
BRANCH   1   6
ATOM      6  C   UNL     1       8.773   0.113  -1.499  1.00  0.00     0.047 C 
BRANCH   6   7
ATOM      7  C   UNL     1       7.801   0.078  -0.404  1.00  0.00    -0.043 A 
ATOM      8  C   UNL     1       7.747  -0.987   0.482  1.00  0.00     0.008 A 
ATOM      9  C   UNL     1       6.887   1.085  -0.246  1.00  0.00     0.054 A 
ATOM     10  C   UNL     1       6.810  -1.039   1.491  1.00  0.00     0.051 A 
ATOM     11  C   UNL     1       5.938   1.055   0.759  1.00  0.00     0.166 A 
ATOM     12  C   UNL     1       5.897  -0.007   1.630  1.00  0.00     0.165 A 
ATOM     13  O   UNL     1       4.935   1.943   1.102  1.00  0.00    -0.454 OA
ATOM     14  O   UNL     1       4.849   0.242   2.519  1.00  0.00    -0.454 OA
ATOM     15  C   UNL     1       4.046   1.286   2.018  1.00  0.00     0.468 C 
ENDBRANCH   6   7
ENDBRANCH   1   6
TORSDOF 4
ENDMDL
