@<TRIPOS>MOLECULE
/home/cewinharhar/GITHUB/reincatalyze/data/processed/docking_pred/2023-May-17-1006_maxeplen10_maxtrainstep1000_seadep16_gamma099_lrac9e-4_lrcr1e-3_sub6/f1acaff2cf7a86b9bbc999bfeecc6491fc2a0881_ligand_6.pdbqt
 15 16 0 0 0
SMALL
GASTEIGER

@<TRIPOS>ATOM
      1  C          5.3870    2.7590    0.0890 C.3     1  UNL1        0.1270
      2  C          6.1250    3.7310    0.8800 C.2     1  UNL1        0.3030
      3  O          6.1580    3.7760    2.1110 O.2     1  UNL1       -0.2520
      4  O          6.8630    4.7020    0.1850 O.3     1  UNL1       -0.4810
      5  H          6.7170    4.7420   -0.8120 H       1  UNL1        0.2960
      6  C          5.3360    1.4100    0.6900 C.3     1  UNL1        0.0470
      7  C          6.2010    0.3780    0.1130 C.2     1  UNL1       -0.0430
      8  C          6.5180    0.3690   -1.2360 C.2     1  UNL1        0.0080
      9  C          6.6940   -0.6370    0.8900 C.2     1  UNL1        0.0540
     10  C          7.3020   -0.6200   -1.7870 C.2     1  UNL1        0.0510
     11  C          7.4830   -1.6400    0.3600 C.2     1  UNL1        0.1660
     12  C          7.7900   -1.6350   -0.9800 C.2     1  UNL1        0.1650
     13  O          8.0810   -2.7440    0.9420 O.2     1  UNL1       -0.4540
     14  O          8.5880   -2.7560   -1.2140 O.2     1  UNL1       -0.4540
     15  C          8.5200   -3.6220   -0.1050 C.3     1  UNL1        0.4680
@<TRIPOS>BOND
     1    10     8    1
     2    10    12    2
     3     8     7    2
     4    14    12    1
     5    14    15    1
     6    12    11    1
     7     5     4    1
     8    15    13    1
     9     1     6    1
    10     1     2    1
    11     7     6    1
    12     7     9    1
    13     4     2    1
    14    11     9    2
    15    11    13    1
    16     2     3    2
