@<TRIPOS>MOLECULE
/home/cewinharhar/GITHUB/reincatalyze/data/processed/docking_pred/2023-May-17-1006_maxeplen10_maxtrainstep1000_seadep16_gamma099_lrac9e-4_lrcr1e-3_sub6/f1acaff2cf7a86b9bbc999bfeecc6491fc2a0881_ligand_6.pdbqt
 15 16 0 0 0
SMALL
GASTEIGER

@<TRIPOS>ATOM
      1  C          8.3140   -0.3270   -2.8340 C.3     1  UNL1        0.1270
      2  C          8.4700   -1.7530   -3.0720 C.2     1  UNL1        0.3030
      3  O          9.5350   -2.3720   -3.0490 O.2     1  UNL1       -0.2520
      4  O          7.3090   -2.4910   -3.3510 O.3     1  UNL1       -0.4810
      5  H          7.3600   -3.4830   -3.1820 H       1  UNL1        0.2960
      6  C          8.7730    0.1130   -1.4990 C.3     1  UNL1        0.0470
      7  C          7.8010    0.0780   -0.4040 C.2     1  UNL1       -0.0430
      8  C          7.7470   -0.9870    0.4820 C.2     1  UNL1        0.0080
      9  C          6.8870    1.0850   -0.2460 C.2     1  UNL1        0.0540
     10  C          6.8100   -1.0390    1.4910 C.2     1  UNL1        0.0510
     11  C          5.9380    1.0550    0.7590 C.2     1  UNL1        0.1660
     12  C          5.8970   -0.0070    1.6300 C.2     1  UNL1        0.1650
     13  O          4.9350    1.9430    1.1020 O.2     1  UNL1       -0.4540
     14  O          4.8490    0.2420    2.5190 O.2     1  UNL1       -0.4540
     15  C          4.0460    1.2860    2.0180 C.3     1  UNL1        0.4680
@<TRIPOS>BOND
     1     4     5    1
     2     4     2    1
     3     2     3    2
     4     2     1    1
     5     1     6    1
     6     6     7    1
     7     7     9    2
     8     7     8    1
     9     9    11    1
    10     8    10    2
    11    11    13    1
    12    11    12    2
    13    13    15    1
    14    10    12    1
    15    12    14    1
    16    15    14    1
