@<TRIPOS>MOLECULE
/home/cewinharhar/GITHUB/reincatalyze/data/processed/docking_pred/2023-May-17-1006_maxeplen10_maxtrainstep1000_seadep16_gamma099_lrac9e-4_lrcr1e-3_sub6/f32d20faebe3d2be17d1bcf3c85c7c889e58fe23_ligand_6.pdbqt
 15 16 0 0 0
SMALL
GASTEIGER

@<TRIPOS>ATOM
      1  C          5.3810    2.8990    0.0650 C.3     1  UNL1        0.1270
      2  C          6.2240    3.8420    0.7820 C.2     1  UNL1        0.3030
      3  O          6.8560    4.7700    0.2720 O.2     1  UNL1       -0.2520
      4  O          6.3290    3.6850    2.1730 O.3     1  UNL1       -0.4810
      5  H          5.8800    4.3910    2.7360 H       1  UNL1        0.2960
      6  C          5.2740    1.5750    0.7150 C.3     1  UNL1        0.0470
      7  C          6.0650    0.4780    0.1530 C.2     1  UNL1       -0.0430
      8  C          6.4600   -0.6020    0.9270 C.2     1  UNL1        0.0080
      9  C          6.4720    0.5080   -1.1550 C.2     1  UNL1        0.0540
     10  C          7.2340   -1.6160    0.4080 C.2     1  UNL1        0.0510
     11  C          7.2480   -0.4990   -1.6970 C.2     1  UNL1        0.1660
     12  C          7.6310   -1.5640   -0.9180 C.2     1  UNL1        0.1650
     13  O          7.7660   -0.6770   -2.9680 O.2     1  UNL1       -0.4540
     14  O          8.3960   -2.4030   -1.7300 O.2     1  UNL1       -0.4540
     15  C          8.7510   -1.7200   -2.9100 C.3     1  UNL1        0.4680
@<TRIPOS>BOND
     1    13    15    1
     2    13    11    1
     3    15    14    1
     4    14    12    1
     5    11     9    1
     6    11    12    2
     7     9     7    2
     8    12    10    1
     9     1     6    1
    10     1     2    1
    11     7     6    1
    12     7     8    1
    13     3     2    2
    14    10     8    2
    15     2     4    1
    16     4     5    1
