@<TRIPOS>MOLECULE
/home/cewinharhar/GITHUB/reincatalyze/data/processed/docking_pred/2023-May-17-1006_maxeplen10_maxtrainstep1000_seadep16_gamma099_lrac9e-4_lrcr1e-3_sub6/f32d20faebe3d2be17d1bcf3c85c7c889e58fe23_ligand_6.pdbqt
 15 16 0 0 0
SMALL
GASTEIGER

@<TRIPOS>ATOM
      1  C          5.0870    2.7310    0.0510 C.3     1  UNL1        0.1270
      2  C          6.0720    3.6130    0.6570 C.2     1  UNL1        0.3030
      3  O          6.8130    4.3860    0.0470 O.2     1  UNL1       -0.2520
      4  O          6.1900    3.5830    2.0550 O.3     1  UNL1       -0.4810
      5  H          6.5110    2.7150    2.4560 H       1  UNL1        0.2960
      6  C          5.6600    1.4940   -0.5210 C.3     1  UNL1        0.0470
      7  C          6.2830    0.5450    0.4040 C.2     1  UNL1       -0.0430
      8  C          5.6450    0.1420    1.5670 C.2     1  UNL1        0.0080
      9  C          7.5390    0.0540    0.1640 C.2     1  UNL1        0.0540
     10  C          6.2450   -0.7220    2.4560 C.2     1  UNL1        0.0510
     11  C          8.1600   -0.8140    1.0410 C.2     1  UNL1        0.1660
     12  C          7.5160   -1.2060    2.1900 C.2     1  UNL1        0.1650
     13  O          9.4010   -1.4260    1.0050 O.2     1  UNL1       -0.4540
     14  O          8.3810   -2.0700    2.8630 O.2     1  UNL1       -0.4540
     15  C          9.6700   -1.9740    2.3040 C.3     1  UNL1        0.4680
@<TRIPOS>BOND
     1     6     1    1
     2     6     7    1
     3     3     2    2
     4     1     2    1
     5     9     7    2
     6     9    11    1
     7     7     8    1
     8     2     4    1
     9    13    11    1
    10    13    15    1
    11    11    12    2
    12     8    10    2
    13     4     5    1
    14    12    10    1
    15    12    14    1
    16    15    14    1
