@<TRIPOS>MOLECULE
/home/cewinharhar/GITHUB/reincatalyze/data/processed/docking_pred/2023-May-17-1006_maxeplen10_maxtrainstep1000_seadep16_gamma099_lrac9e-4_lrcr1e-3_sub6/f32d20faebe3d2be17d1bcf3c85c7c889e58fe23_ligand_6.pdbqt
 15 16 0 0 0
SMALL
GASTEIGER

@<TRIPOS>ATOM
      1  C          6.4030    1.3040    0.6940 C.3     1  UNL1        0.1270
      2  C          5.2740    1.1320    1.5950 C.2     1  UNL1        0.3030
      3  O          5.1710    0.2560    2.4560 O.2     1  UNL1       -0.2520
      4  O          4.2100    2.0390    1.4750 O.3     1  UNL1       -0.4810
      5  H          3.4140    1.8730    2.0710 H       1  UNL1        0.2960
      6  C          6.1620    0.8000   -0.6750 C.3     1  UNL1        0.0470
      7  C          6.9290   -0.3680   -1.1110 C.2     1  UNL1       -0.0430
      8  C          7.2210   -0.5860   -2.4490 C.2     1  UNL1        0.0080
      9  C          7.3510   -1.3070   -0.2070 C.2     1  UNL1        0.0540
     10  C          7.9110   -1.7020   -2.8640 C.2     1  UNL1        0.0510
     11  C          8.0450   -2.4350   -0.6010 C.2     1  UNL1        0.1660
     12  C          8.3280   -2.6370   -1.9300 C.2     1  UNL1        0.1650
     13  O          8.5600   -3.4960    0.1230 O.2     1  UNL1       -0.4540
     14  O          9.0270   -3.8420   -2.0150 O.2     1  UNL1       -0.4540
     15  C          8.9080   -4.5410   -0.7980 C.3     1  UNL1        0.4680
@<TRIPOS>BOND
     1    10     8    1
     2    10    12    2
     3     8     7    2
     4    14    12    1
     5    14    15    1
     6    12    11    1
     7     7     6    1
     8     7     9    1
     9    15    13    1
    10     6     1    1
    11    11     9    2
    12    11    13    1
    13     1     2    1
    14     4     2    1
    15     4     5    1
    16     2     3    2
