@<TRIPOS>MOLECULE
/home/cewinharhar/GITHUB/reincatalyze/data/processed/docking_pred/2023-May-17-1006_maxeplen10_maxtrainstep1000_seadep16_gamma099_lrac9e-4_lrcr1e-3_sub6/f32d20faebe3d2be17d1bcf3c85c7c889e58fe23_ligand_6.pdbqt
 15 16 0 0 0
SMALL
GASTEIGER

@<TRIPOS>ATOM
      1  C          5.5260    2.7640    0.0640 C.3     1  UNL1        0.1270
      2  C          6.1830    3.7660    0.8880 C.2     1  UNL1        0.3030
      3  O          6.1630    3.8080    2.1190 O.2     1  UNL1       -0.2520
      4  O          6.9020    4.7740    0.2250 O.3     1  UNL1       -0.4810
      5  H          7.9040    4.7540    0.3390 H       1  UNL1        0.2960
      6  C          5.5240    1.4090    0.6560 C.3     1  UNL1        0.0470
      7  C          6.3160    0.3760   -0.0160 C.2     1  UNL1       -0.0430
      8  C          6.4170    0.3250   -1.3980 C.2     1  UNL1        0.0080
      9  C          6.9510   -0.6000    0.7060 C.2     1  UNL1        0.0540
     10  C          7.1320   -0.6670   -2.0320 C.2     1  UNL1        0.0510
     11  C          7.6740   -1.6040    0.0910 C.2     1  UNL1        0.1660
     12  C          7.7670   -1.6420   -1.2800 C.2     1  UNL1        0.1650
     13  O          8.3840   -2.6730    0.6080 O.2     1  UNL1       -0.4540
     14  O          8.5480   -2.7530   -1.6000 O.2     1  UNL1       -0.4540
     15  C          8.6780   -3.5790   -0.4670 C.3     1  UNL1        0.4680
@<TRIPOS>BOND
     1    10     8    1
     2    10    12    2
     3    14    12    1
     4    14    15    1
     5     8     7    2
     6    12    11    1
     7    15    13    1
     8     7     6    1
     9     7     9    1
    10     1     6    1
    11     1     2    1
    12    11    13    1
    13    11     9    2
    14     4     5    1
    15     4     2    1
    16     2     3    2
