@<TRIPOS>MOLECULE
/home/cewinharhar/GITHUB/reincatalyze/data/processed/docking_pred/2023-May-17-1006_maxeplen10_maxtrainstep1000_seadep16_gamma099_lrac9e-4_lrcr1e-3_sub6/f338baa35ded8d3cb3d8a5b9e0cebf8a24c11f6d_ligand_6.pdbqt
 15 16 0 0 0
SMALL
GASTEIGER

@<TRIPOS>ATOM
      1  C          8.3030   -0.3190   -2.8670 C.3     1  UNL1        0.1270
      2  C          8.4690   -1.7480   -3.0780 C.2     1  UNL1        0.3030
      3  O          9.5380   -2.3600   -3.0350 O.2     1  UNL1       -0.2520
      4  O          7.3140   -2.4970   -3.3540 O.3     1  UNL1       -0.4810
      5  H          6.7230   -2.7110   -2.5660 H       1  UNL1        0.2960
      6  C          8.7560    0.1480   -1.5390 C.3     1  UNL1        0.0470
      7  C          7.7890    0.1060   -0.4400 C.2     1  UNL1       -0.0430
      8  C          7.7380   -0.9640    0.4390 C.2     1  UNL1        0.0080
      9  C          6.8760    1.1130   -0.2720 C.2     1  UNL1        0.0540
     10  C          6.8050   -1.0220    1.4510 C.2     1  UNL1        0.0510
     11  C          5.9320    1.0770    0.7360 C.2     1  UNL1        0.1660
     12  C          5.8930    0.0100    1.6010 C.2     1  UNL1        0.1650
     13  O          4.9310    1.9640    1.0900 O.2     1  UNL1       -0.4540
     14  O          4.8500    0.2540    2.4960 O.2     1  UNL1       -0.4540
     15  C          4.0450    1.3020    2.0050 C.3     1  UNL1        0.4680
@<TRIPOS>BOND
     1     4     2    1
     2     4     5    1
     3     2     3    2
     4     2     1    1
     5     1     6    1
     6     6     7    1
     7     7     9    2
     8     7     8    1
     9     9    11    1
    10     8    10    2
    11    11    13    1
    12    11    12    2
    13    13    15    1
    14    10    12    1
    15    12    14    1
    16    15    14    1
