@<TRIPOS>MOLECULE
/home/cewinharhar/GITHUB/reincatalyze/data/processed/docking_pred/2023-May-17-1006_maxeplen10_maxtrainstep1000_seadep16_gamma099_lrac9e-4_lrcr1e-3_sub6/f338baa35ded8d3cb3d8a5b9e0cebf8a24c11f6d_ligand_6.pdbqt
 15 16 0 0 0
SMALL
GASTEIGER

@<TRIPOS>ATOM
      1  C          5.4250    2.8730    0.1220 C.3     1  UNL1        0.1270
      2  C          6.2570    3.8460    0.8130 C.2     1  UNL1        0.3030
      3  O          6.8850    4.7610    0.2780 O.2     1  UNL1       -0.2520
      4  O          6.3550    3.7340    2.2090 O.3     1  UNL1       -0.4810
      5  H          7.1070    4.2450    2.6450 H       1  UNL1        0.2960
      6  C          5.3510    1.5590    0.7970 C.3     1  UNL1        0.0470
      7  C          6.1340    0.4610    0.2270 C.2     1  UNL1       -0.0430
      8  C          6.5990   -0.5820    1.0140 C.2     1  UNL1        0.0080
      9  C          6.4640    0.4520   -1.1020 C.2     1  UNL1        0.0540
     10  C          7.3650   -1.5970    0.4860 C.2     1  UNL1        0.0510
     11  C          7.2310   -0.5570   -1.6540 C.2     1  UNL1        0.1660
     12  C          7.6840   -1.5840   -0.8620 C.2     1  UNL1        0.1650
     13  O          7.6790   -0.7690   -2.9460 O.2     1  UNL1       -0.4540
     14  O          8.4200   -2.4350   -1.6880 O.2     1  UNL1       -0.4540
     15  C          8.6900   -1.7870   -2.9100 C.3     1  UNL1        0.4680
@<TRIPOS>BOND
     1    13    15    1
     2    13    11    1
     3    15    14    1
     4    14    12    1
     5    11     9    1
     6    11    12    2
     7     9     7    2
     8    12    10    1
     9     1     6    1
    10     1     2    1
    11     7     6    1
    12     7     8    1
    13     3     2    2
    14    10     8    2
    15     2     4    1
    16     4     5    1
