@<TRIPOS>MOLECULE
/home/cewinharhar/GITHUB/reincatalyze/data/processed/docking_pred/2023-May-17-1006_maxeplen10_maxtrainstep1000_seadep16_gamma099_lrac9e-4_lrcr1e-3_sub6/f338baa35ded8d3cb3d8a5b9e0cebf8a24c11f6d_ligand_6.pdbqt
 15 16 0 0 0
SMALL
GASTEIGER

@<TRIPOS>ATOM
      1  C          5.5020    2.6190    0.2450 C.3     1  UNL1        0.1270
      2  C          6.1560    3.7090    0.9510 C.2     1  UNL1        0.3030
      3  O          6.2280    3.8300    2.1750 O.2     1  UNL1       -0.2520
      4  O          6.7580    4.7110    0.1730 O.3     1  UNL1       -0.4810
      5  H          6.8040    5.6290    0.5880 H       1  UNL1        0.2960
      6  C          5.6390    1.3060    0.9100 C.3     1  UNL1        0.0470
      7  C          6.3980    0.2670    0.2080 C.2     1  UNL1       -0.0430
      8  C          6.4930    0.2490   -1.1750 C.2     1  UNL1        0.0080
      9  C          7.0080   -0.7440    0.9030 C.2     1  UNL1        0.0540
     10  C          7.1760   -0.7470   -1.8370 C.2     1  UNL1        0.0510
     11  C          7.6990   -1.7530    0.2590 C.2     1  UNL1        0.1660
     12  C          7.7860   -1.7580   -1.1120 C.2     1  UNL1        0.1650
     13  O          8.3800   -2.8550    0.7460 O.2     1  UNL1       -0.4540
     14  O          8.5330   -2.8830   -1.4640 O.2     1  UNL1       -0.4540
     15  C          8.6440   -3.7410   -0.3520 C.3     1  UNL1        0.4680
@<TRIPOS>BOND
     1    10     8    1
     2    10    12    2
     3    14    12    1
     4    14    15    1
     5     8     7    2
     6    12    11    1
     7    15    13    1
     8     4     5    1
     9     4     2    1
    10     7     9    1
    11     7     6    1
    12     1     6    1
    13     1     2    1
    14    11    13    1
    15    11     9    2
    16     2     3    2
