@<TRIPOS>MOLECULE
/home/cewinharhar/GITHUB/reincatalyze/data/processed/docking_pred/2023-May-17-1006_maxeplen10_maxtrainstep1000_seadep16_gamma099_lrac9e-4_lrcr1e-3_sub6/f338baa35ded8d3cb3d8a5b9e0cebf8a24c11f6d_ligand_6.pdbqt
 15 16 0 0 0
SMALL
GASTEIGER

@<TRIPOS>ATOM
      1  C          6.4670    1.2600    0.8010 C.3     1  UNL1        0.1270
      2  C          5.2410    1.1640    1.5770 C.2     1  UNL1        0.3030
      3  O          4.9980    0.3080    2.4300 O.2     1  UNL1       -0.2520
      4  O          4.2480    2.1260    1.3360 O.3     1  UNL1       -0.4810
      5  H          3.4180    2.0630    1.9060 H       1  UNL1        0.2960
      6  C          6.3080    0.8870   -0.6210 C.3     1  UNL1        0.0470
      7  C          7.0290   -0.2960   -1.0950 C.2     1  UNL1       -0.0430
      8  C          7.2800   -0.5000   -2.4430 C.2     1  UNL1        0.0080
      9  C          7.4450   -1.2610   -0.2170 C.2     1  UNL1        0.0540
     10  C          7.9260   -1.6290   -2.8940 C.2     1  UNL1        0.0510
     11  C          8.0960   -2.4030   -0.6460 C.2     1  UNL1        0.1660
     12  C          8.3380   -2.5910   -1.9850 C.2     1  UNL1        0.1650
     13  O          8.5970   -3.4900    0.0470 O.2     1  UNL1       -0.4540
     14  O          8.9990   -3.8140   -2.1070 O.2     1  UNL1       -0.4540
     15  C          8.8900   -4.5300   -0.8980 C.3     1  UNL1        0.4680
@<TRIPOS>BOND
     1    10     8    1
     2    10    12    2
     3     8     7    2
     4    14    12    1
     5    14    15    1
     6    12    11    1
     7     7     6    1
     8     7     9    1
     9    15    13    1
    10    11     9    2
    11    11    13    1
    12     6     1    1
    13     1     2    1
    14     4     2    1
    15     4     5    1
    16     2     3    2
