@<TRIPOS>MOLECULE
/home/cewinharhar/GITHUB/reincatalyze/data/processed/docking_pred/2023-May-17-1006_maxeplen10_maxtrainstep1000_seadep16_gamma099_lrac9e-4_lrcr1e-3_sub6/f338baa35ded8d3cb3d8a5b9e0cebf8a24c11f6d_ligand_6.pdbqt
 15 16 0 0 0
SMALL
GASTEIGER

@<TRIPOS>ATOM
      1  C          4.6970    1.8670    0.6780 C.3     1  UNL1        0.1270
      2  C          4.3950    1.1600    1.9120 C.2     1  UNL1        0.3030
      3  O          5.1230    0.3280    2.4580 O.2     1  UNL1       -0.2520
      4  O          3.1710    1.4460    2.5370 O.3     1  UNL1       -0.4810
      5  H          3.2240    1.9410    3.4140 H       1  UNL1        0.2960
      6  C          6.1220    2.2300    0.5270 C.3     1  UNL1        0.0470
      7  C          6.9740    1.3220   -0.2450 C.2     1  UNL1       -0.0430
      8  C          8.3370    1.5390   -0.3720 C.2     1  UNL1        0.0080
      9  C          6.4370    0.2450   -0.9000 C.2     1  UNL1        0.0540
     10  C          9.1330    0.7060   -1.1270 C.2     1  UNL1        0.0510
     11  C          7.2160   -0.6040   -1.6630 C.2     1  UNL1        0.1660
     12  C          8.5660   -0.3770   -1.7790 C.2     1  UNL1        0.1650
     13  O          6.8960   -1.7320   -2.3980 O.2     1  UNL1       -0.4540
     14  O          9.0750   -1.3850   -2.5990 O.2     1  UNL1       -0.4540
     15  C          8.0120   -2.0480   -3.2440 C.3     1  UNL1        0.4680
@<TRIPOS>BOND
     1    15    14    1
     2    15    13    1
     3    14    12    1
     4    13    11    1
     5    12    11    2
     6    12    10    1
     7    11     9    1
     8    10     8    2
     9     9     7    2
    10     8     7    1
    11     7     6    1
    12     6     1    1
    13     1     2    1
    14     2     3    2
    15     2     4    1
    16     4     5    1
