MODEL 1
REMARK VINA RESULT:      -7.7      0.000      0.000
REMARK SMILES O=C(O)CCc1ccc2c(c1)OCO2
REMARK SMILES IDX 4 1 2 2 1 3 3 4 5 6 6 7 7 8 11 9 8 10 10 11 9 12 12 13 14 14
REMARK SMILES IDX 13 15
REMARK H PARENT 3 5
REMARK Flexibility Score: inf
ROOT
ATOM      1  C   UNL     1       5.429   2.879   0.106  1.00  0.00     0.127 C 
ENDROOT
BRANCH   1   2
ATOM      2  C   UNL     1       6.250   3.864   0.792  1.00  0.00     0.303 C 
ATOM      3  O   UNL     1       6.880   4.775   0.251  1.00  0.00    -0.252 OA
BRANCH   2   4
ATOM      4  O   UNL     1       6.333   3.772   2.191  1.00  0.00    -0.481 OA
ATOM      5  H   UNL     1       5.867   4.498   2.713  1.00  0.00     0.296 HD
ENDBRANCH   2   4
ENDBRANCH   1   2
BRANCH   1   6
ATOM      6  C   UNL     1       5.362   1.570   0.792  1.00  0.00     0.047 C 
BRANCH   6   7
ATOM      7  C   UNL     1       6.140   0.468   0.223  1.00  0.00    -0.043 A 
ATOM      8  C   UNL     1       6.598  -0.578   1.010  1.00  0.00     0.008 A 
ATOM      9  C   UNL     1       6.473   0.458  -1.106  1.00  0.00     0.054 A 
ATOM     10  C   UNL     1       7.360  -1.597   0.484  1.00  0.00     0.051 A 
ATOM     11  C   UNL     1       7.236  -0.555  -1.656  1.00  0.00     0.166 A 
ATOM     12  C   UNL     1       7.682  -1.585  -0.864  1.00  0.00     0.165 A 
ATOM     13  O   UNL     1       7.685  -0.769  -2.947  1.00  0.00    -0.454 OA
ATOM     14  O   UNL     1       8.415  -2.440  -1.689  1.00  0.00    -0.454 OA
ATOM     15  C   UNL     1       8.691  -1.792  -2.910  1.00  0.00     0.468 C 
ENDBRANCH   6   7
ENDBRANCH   1   6
TORSDOF 4
ENDMDL
MODEL 2
REMARK VINA RESULT:      -7.7      2.131      2.515
REMARK SMILES O=C(O)CCc1ccc2c(c1)OCO2
REMARK SMILES IDX 4 1 2 2 1 3 3 4 5 6 6 7 7 8 11 9 8 10 10 11 9 12 12 13 14 14
REMARK SMILES IDX 13 15
REMARK H PARENT 3 5
REMARK Flexibility Score: inf
ROOT
ATOM      1  C   UNL     1       4.733   1.891   0.696  1.00  0.00     0.127 C 
ENDROOT
BRANCH   1   2
ATOM      2  C   UNL     1       4.412   1.166   1.915  1.00  0.00     0.303 C 
ATOM      3  O   UNL     1       5.128   0.323   2.458  1.00  0.00    -0.252 OA
BRANCH   2   4
ATOM      4  O   UNL     1       3.182   1.450   2.529  1.00  0.00    -0.481 OA
ATOM      5  H   UNL     1       2.368   1.410   1.934  1.00  0.00     0.296 HD
ENDBRANCH   2   4
ENDBRANCH   1   2
BRANCH   1   6
ATOM      6  C   UNL     1       6.166   2.232   0.560  1.00  0.00     0.047 C 
BRANCH   6   7
ATOM      7  C   UNL     1       7.006   1.325  -0.225  1.00  0.00    -0.043 A 
ATOM      8  C   UNL     1       8.367   1.542  -0.371  1.00  0.00     0.008 A 
ATOM      9  C   UNL     1       6.460   0.249  -0.874  1.00  0.00     0.054 A 
ATOM     10  C   UNL     1       9.152   0.711  -1.138  1.00  0.00     0.051 A 
ATOM     11  C   UNL     1       7.228  -0.599  -1.649  1.00  0.00     0.166 A 
ATOM     12  C   UNL     1       8.576  -0.372  -1.783  1.00  0.00     0.165 A 
ATOM     13  O   UNL     1       6.898  -1.726  -2.381  1.00  0.00    -0.454 OA
ATOM     14  O   UNL     1       9.074  -1.378  -2.612  1.00  0.00    -0.454 OA
ATOM     15  C   UNL     1       8.002  -2.041  -3.243  1.00  0.00     0.468 C 
ENDBRANCH   6   7
ENDBRANCH   1   6
TORSDOF 4
ENDMDL
MODEL 3
REMARK VINA RESULT:      -7.6      1.974      2.889
REMARK SMILES O=C(O)CCc1ccc2c(c1)OCO2
REMARK SMILES IDX 4 1 2 2 1 3 3 4 5 6 6 7 7 8 11 9 8 10 10 11 9 12 12 13 14 14
REMARK SMILES IDX 13 15
REMARK H PARENT 3 5
REMARK Flexibility Score: inf
ROOT
ATOM      1  C   UNL     1       6.368   1.353   0.576  1.00  0.00     0.127 C 
ENDROOT
BRANCH   1   2
ATOM      2  C   UNL     1       5.203   1.295   1.445  1.00  0.00     0.303 C 
ATOM      3  O   UNL     1       4.242   2.066   1.409  1.00  0.00    -0.252 OA
BRANCH   2   4
ATOM      4  O   UNL     1       5.167   0.274   2.407  1.00  0.00    -0.481 OA
ATOM      5  H   UNL     1       4.480  -0.450   2.263  1.00  0.00     0.296 HD
ENDBRANCH   2   4
ENDBRANCH   1   2
BRANCH   1   6
ATOM      6  C   UNL     1       6.137   0.800  -0.775  1.00  0.00     0.047 C 
BRANCH   6   7
ATOM      7  C   UNL     1       6.930  -0.365  -1.174  1.00  0.00    -0.043 A 
ATOM      8  C   UNL     1       7.287  -0.581  -2.496  1.00  0.00     0.008 A 
ATOM      9  C   UNL     1       7.311  -1.302  -0.251  1.00  0.00     0.054 A 
ATOM     10  C   UNL     1       8.001  -1.694  -2.878  1.00  0.00     0.051 A 
ATOM     11  C   UNL     1       8.029  -2.427  -0.611  1.00  0.00     0.166 A 
ATOM     12  C   UNL     1       8.377  -2.627  -1.925  1.00  0.00     0.165 A 
ATOM     13  O   UNL     1       8.513  -3.486   0.137  1.00  0.00    -0.454 OA
ATOM     14  O   UNL     1       9.084  -3.829  -1.976  1.00  0.00    -0.454 OA
ATOM     15  C   UNL     1       8.910  -4.530  -0.766  1.00  0.00     0.468 C 
ENDBRANCH   6   7
ENDBRANCH   1   6
TORSDOF 4
ENDMDL
MODEL 4
REMARK VINA RESULT:      -7.5      1.806      5.268
REMARK SMILES O=C(O)CCc1ccc2c(c1)OCO2
REMARK SMILES IDX 4 1 2 2 1 3 3 4 5 6 6 7 7 8 11 9 8 10 10 11 9 12 12 13 14 14
REMARK SMILES IDX 13 15
REMARK H PARENT 3 5
REMARK Flexibility Score: inf
ROOT
ATOM      1  C   UNL     1       8.276  -0.206  -2.822  1.00  0.00     0.127 C 
ENDROOT
BRANCH   1   2
ATOM      2  C   UNL     1       8.509  -1.625  -3.044  1.00  0.00     0.303 C 
ATOM      3  O   UNL     1       9.598  -2.194  -2.961  1.00  0.00    -0.252 OA
BRANCH   2   4
ATOM      4  O   UNL     1       7.398  -2.415  -3.381  1.00  0.00    -0.481 OA
ATOM      5  H   UNL     1       6.569  -1.918  -3.667  1.00  0.00     0.296 HD
ENDBRANCH   2   4
ENDBRANCH   1   2
BRANCH   1   6
ATOM      6  C   UNL     1       8.718   0.274  -1.495  1.00  0.00     0.047 C 
BRANCH   6   7
ATOM      7  C   UNL     1       7.753   0.208  -0.396  1.00  0.00    -0.043 A 
ATOM      8  C   UNL     1       7.744  -0.851   0.498  1.00  0.00     0.008 A 
ATOM      9  C   UNL     1       6.799   1.180  -0.242  1.00  0.00     0.054 A 
ATOM     10  C   UNL     1       6.814  -0.933   1.511  1.00  0.00     0.051 A 
ATOM     11  C   UNL     1       5.857   1.119   0.767  1.00  0.00     0.166 A 
ATOM     12  C   UNL     1       5.861   0.063   1.647  1.00  0.00     0.165 A 
ATOM     13  O   UNL     1       4.820   1.970   1.109  1.00  0.00    -0.454 OA
ATOM     14  O   UNL     1       4.808   0.277   2.538  1.00  0.00    -0.454 OA
ATOM     15  C   UNL     1       3.962   1.284   2.033  1.00  0.00     0.468 C 
ENDBRANCH   6   7
ENDBRANCH   1   6
TORSDOF 4
ENDMDL
MODEL 5
REMARK VINA RESULT:      -7.5      0.975      2.132
REMARK SMILES O=C(O)CCc1ccc2c(c1)OCO2
REMARK SMILES IDX 4 1 2 2 1 3 3 4 5 6 6 7 7 8 11 9 8 10 10 11 9 12 12 13 14 14
REMARK SMILES IDX 13 15
REMARK H PARENT 3 5
REMARK Flexibility Score: inf
ROOT
ATOM      1  C   UNL     1       5.392   2.709   0.108  1.00  0.00     0.127 C 
ENDROOT
BRANCH   1   2
ATOM      2  C   UNL     1       6.112   3.712   0.877  1.00  0.00     0.303 C 
ATOM      3  O   UNL     1       6.175   3.764   2.107  1.00  0.00    -0.252 OA
BRANCH   2   4
ATOM      4  O   UNL     1       6.795   4.706   0.159  1.00  0.00    -0.481 OA
ATOM      5  H   UNL     1       6.901   5.596   0.622  1.00  0.00     0.296 HD
ENDBRANCH   2   4
ENDBRANCH   1   2
BRANCH   1   6
ATOM      6  C   UNL     1       5.382   1.368   0.731  1.00  0.00     0.047 C 
BRANCH   6   7
ATOM      7  C   UNL     1       6.233   0.337   0.132  1.00  0.00    -0.043 A 
ATOM      8  C   UNL     1       6.515   0.328  -1.225  1.00  0.00     0.008 A 
ATOM      9  C   UNL     1       6.747  -0.677   0.896  1.00  0.00     0.054 A 
ATOM     10  C   UNL     1       7.285  -0.661  -1.795  1.00  0.00     0.051 A 
ATOM     11  C   UNL     1       7.523  -1.680   0.346  1.00  0.00     0.166 A 
ATOM     12  C   UNL     1       7.795  -1.675  -1.001  1.00  0.00     0.165 A 
ATOM     13  O   UNL     1       8.137  -2.783   0.913  1.00  0.00    -0.454 OA
ATOM     14  O   UNL     1       8.587  -2.796  -1.256  1.00  0.00    -0.454 OA
ATOM     15  C   UNL     1       8.550  -3.661  -0.145  1.00  0.00     0.468 C 
ENDBRANCH   6   7
ENDBRANCH   1   6
TORSDOF 4
ENDMDL
