@<TRIPOS>MOLECULE
/home/cewinharhar/GITHUB/reincatalyze/data/processed/docking_pred/2023-May-17-1006_maxeplen10_maxtrainstep1000_seadep16_gamma099_lrac9e-4_lrcr1e-3_sub6/f3c5d297feb9947f67baa3310bcd1cfc63c32b25_ligand_6.pdbqt
 15 16 0 0 0
SMALL
GASTEIGER

@<TRIPOS>ATOM
      1  C          5.4290    2.8790    0.1060 C.3     1  UNL1        0.1270
      2  C          6.2500    3.8640    0.7920 C.2     1  UNL1        0.3030
      3  O          6.8800    4.7750    0.2510 O.2     1  UNL1       -0.2520
      4  O          6.3330    3.7720    2.1910 O.3     1  UNL1       -0.4810
      5  H          5.8670    4.4980    2.7130 H       1  UNL1        0.2960
      6  C          5.3620    1.5700    0.7920 C.3     1  UNL1        0.0470
      7  C          6.1400    0.4680    0.2230 C.2     1  UNL1       -0.0430
      8  C          6.5980   -0.5780    1.0100 C.2     1  UNL1        0.0080
      9  C          6.4730    0.4580   -1.1060 C.2     1  UNL1        0.0540
     10  C          7.3600   -1.5970    0.4840 C.2     1  UNL1        0.0510
     11  C          7.2360   -0.5550   -1.6560 C.2     1  UNL1        0.1660
     12  C          7.6820   -1.5850   -0.8640 C.2     1  UNL1        0.1650
     13  O          7.6850   -0.7690   -2.9470 O.2     1  UNL1       -0.4540
     14  O          8.4150   -2.4400   -1.6890 O.2     1  UNL1       -0.4540
     15  C          8.6910   -1.7920   -2.9100 C.3     1  UNL1        0.4680
@<TRIPOS>BOND
     1    13    15    1
     2    13    11    1
     3    15    14    1
     4    14    12    1
     5    11     9    1
     6    11    12    2
     7     9     7    2
     8    12    10    1
     9     1     2    1
    10     1     6    1
    11     7     6    1
    12     7     8    1
    13     3     2    2
    14    10     8    2
    15     2     4    1
    16     4     5    1
