@<TRIPOS>MOLECULE
/home/cewinharhar/GITHUB/reincatalyze/data/processed/docking_pred/2023-May-17-1006_maxeplen10_maxtrainstep1000_seadep16_gamma099_lrac9e-4_lrcr1e-3_sub6/f3c5d297feb9947f67baa3310bcd1cfc63c32b25_ligand_6.pdbqt
 15 16 0 0 0
SMALL
GASTEIGER

@<TRIPOS>ATOM
      1  C          6.3680    1.3530    0.5760 C.3     1  UNL1        0.1270
      2  C          5.2030    1.2950    1.4450 C.2     1  UNL1        0.3030
      3  O          4.2420    2.0660    1.4090 O.2     1  UNL1       -0.2520
      4  O          5.1670    0.2740    2.4070 O.3     1  UNL1       -0.4810
      5  H          4.4800   -0.4500    2.2630 H       1  UNL1        0.2960
      6  C          6.1370    0.8000   -0.7750 C.3     1  UNL1        0.0470
      7  C          6.9300   -0.3650   -1.1740 C.2     1  UNL1       -0.0430
      8  C          7.2870   -0.5810   -2.4960 C.2     1  UNL1        0.0080
      9  C          7.3110   -1.3020   -0.2510 C.2     1  UNL1        0.0540
     10  C          8.0010   -1.6940   -2.8780 C.2     1  UNL1        0.0510
     11  C          8.0290   -2.4270   -0.6110 C.2     1  UNL1        0.1660
     12  C          8.3770   -2.6270   -1.9250 C.2     1  UNL1        0.1650
     13  O          8.5130   -3.4860    0.1370 O.2     1  UNL1       -0.4540
     14  O          9.0840   -3.8290   -1.9760 O.2     1  UNL1       -0.4540
     15  C          8.9100   -4.5300   -0.7660 C.3     1  UNL1        0.4680
@<TRIPOS>BOND
     1    10     8    1
     2    10    12    2
     3     8     7    2
     4    14    12    1
     5    14    15    1
     6    12    11    1
     7     7     6    1
     8     7     9    1
     9     6     1    1
    10    15    13    1
    11    11     9    2
    12    11    13    1
    13     1     2    1
    14     3     2    2
    15     2     4    1
    16     5     4    1
