@<TRIPOS>MOLECULE
/home/cewinharhar/GITHUB/reincatalyze/data/processed/docking_pred/2023-May-17-1006_maxeplen10_maxtrainstep1000_seadep16_gamma099_lrac9e-4_lrcr1e-3_sub6/f3c5d297feb9947f67baa3310bcd1cfc63c32b25_ligand_6.pdbqt
 15 16 0 0 0
SMALL
GASTEIGER

@<TRIPOS>ATOM
      1  C          5.3920    2.7090    0.1080 C.3     1  UNL1        0.1270
      2  C          6.1120    3.7120    0.8770 C.2     1  UNL1        0.3030
      3  O          6.1750    3.7640    2.1070 O.2     1  UNL1       -0.2520
      4  O          6.7950    4.7060    0.1590 O.3     1  UNL1       -0.4810
      5  H          6.9010    5.5960    0.6220 H       1  UNL1        0.2960
      6  C          5.3820    1.3680    0.7310 C.3     1  UNL1        0.0470
      7  C          6.2330    0.3370    0.1320 C.2     1  UNL1       -0.0430
      8  C          6.5150    0.3280   -1.2250 C.2     1  UNL1        0.0080
      9  C          6.7470   -0.6770    0.8960 C.2     1  UNL1        0.0540
     10  C          7.2850   -0.6610   -1.7950 C.2     1  UNL1        0.0510
     11  C          7.5230   -1.6800    0.3460 C.2     1  UNL1        0.1660
     12  C          7.7950   -1.6750   -1.0010 C.2     1  UNL1        0.1650
     13  O          8.1370   -2.7830    0.9130 O.2     1  UNL1       -0.4540
     14  O          8.5870   -2.7960   -1.2560 O.2     1  UNL1       -0.4540
     15  C          8.5500   -3.6610   -0.1450 C.3     1  UNL1        0.4680
@<TRIPOS>BOND
     1    10     8    1
     2    10    12    2
     3    14    12    1
     4    14    15    1
     5     8     7    2
     6    12    11    1
     7    15    13    1
     8     1     6    1
     9     1     2    1
    10     7     6    1
    11     7     9    1
    12     4     5    1
    13     4     2    1
    14    11     9    2
    15    11    13    1
    16     2     3    2
