@<TRIPOS>MOLECULE
/home/cewinharhar/GITHUB/reincatalyze/data/processed/docking_pred/2023-May-17-1006_maxeplen10_maxtrainstep1000_seadep16_gamma099_lrac9e-4_lrcr1e-3_sub6/f3c5d297feb9947f67baa3310bcd1cfc63c32b25_ligand_6.pdbqt
 15 16 0 0 0
SMALL
GASTEIGER

@<TRIPOS>ATOM
      1  C          8.2760   -0.2060   -2.8220 C.3     1  UNL1        0.1270
      2  C          8.5090   -1.6250   -3.0440 C.2     1  UNL1        0.3030
      3  O          9.5980   -2.1940   -2.9610 O.2     1  UNL1       -0.2520
      4  O          7.3980   -2.4150   -3.3810 O.3     1  UNL1       -0.4810
      5  H          6.5690   -1.9180   -3.6670 H       1  UNL1        0.2960
      6  C          8.7180    0.2740   -1.4950 C.3     1  UNL1        0.0470
      7  C          7.7530    0.2080   -0.3960 C.2     1  UNL1       -0.0430
      8  C          7.7440   -0.8510    0.4980 C.2     1  UNL1        0.0080
      9  C          6.7990    1.1800   -0.2420 C.2     1  UNL1        0.0540
     10  C          6.8140   -0.9330    1.5110 C.2     1  UNL1        0.0510
     11  C          5.8570    1.1190    0.7670 C.2     1  UNL1        0.1660
     12  C          5.8610    0.0630    1.6470 C.2     1  UNL1        0.1650
     13  O          4.8200    1.9700    1.1090 O.2     1  UNL1       -0.4540
     14  O          4.8080    0.2770    2.5380 O.2     1  UNL1       -0.4540
     15  C          3.9620    1.2840    2.0330 C.3     1  UNL1        0.4680
@<TRIPOS>BOND
     1     5     4    1
     2     4     2    1
     3     2     3    2
     4     2     1    1
     5     1     6    1
     6     6     7    1
     7     7     9    2
     8     7     8    1
     9     9    11    1
    10     8    10    2
    11    11    13    1
    12    11    12    2
    13    13    15    1
    14    10    12    1
    15    12    14    1
    16    15    14    1
