@<TRIPOS>MOLECULE
/home/cewinharhar/GITHUB/reincatalyze/data/processed/docking_pred/2023-May-17-1006_maxeplen10_maxtrainstep1000_seadep16_gamma099_lrac9e-4_lrcr1e-3_sub6/f3c5d297feb9947f67baa3310bcd1cfc63c32b25_ligand_6.pdbqt
 15 16 0 0 0
SMALL
GASTEIGER

@<TRIPOS>ATOM
      1  C          4.7330    1.8910    0.6960 C.3     1  UNL1        0.1270
      2  C          4.4120    1.1660    1.9150 C.2     1  UNL1        0.3030
      3  O          5.1280    0.3230    2.4580 O.2     1  UNL1       -0.2520
      4  O          3.1820    1.4500    2.5290 O.3     1  UNL1       -0.4810
      5  H          2.3680    1.4100    1.9340 H       1  UNL1        0.2960
      6  C          6.1660    2.2320    0.5600 C.3     1  UNL1        0.0470
      7  C          7.0060    1.3250   -0.2250 C.2     1  UNL1       -0.0430
      8  C          8.3670    1.5420   -0.3710 C.2     1  UNL1        0.0080
      9  C          6.4600    0.2490   -0.8740 C.2     1  UNL1        0.0540
     10  C          9.1520    0.7110   -1.1380 C.2     1  UNL1        0.0510
     11  C          7.2280   -0.5990   -1.6490 C.2     1  UNL1        0.1660
     12  C          8.5760   -0.3720   -1.7830 C.2     1  UNL1        0.1650
     13  O          6.8980   -1.7260   -2.3810 O.2     1  UNL1       -0.4540
     14  O          9.0740   -1.3780   -2.6120 O.2     1  UNL1       -0.4540
     15  C          8.0020   -2.0410   -3.2430 C.3     1  UNL1        0.4680
@<TRIPOS>BOND
     1    15    14    1
     2    15    13    1
     3    14    12    1
     4    13    11    1
     5    12    11    2
     6    12    10    1
     7    11     9    1
     8    10     8    2
     9     9     7    2
    10     8     7    1
    11     7     6    1
    12     6     1    1
    13     1     2    1
    14     2     3    2
    15     2     4    1
    16     5     4    1
