@<TRIPOS>MOLECULE
/home/cewinharhar/GITHUB/reincatalyze/data/processed/docking_pred/2023-May-17-1006_maxeplen10_maxtrainstep1000_seadep16_gamma099_lrac9e-4_lrcr1e-3_sub6/f411d25023d78b520541a26d40866fe70d26d332_ligand_6.pdbqt
 15 16 0 0 0
SMALL
GASTEIGER

@<TRIPOS>ATOM
      1  C          5.0840    0.1570    1.9880 C.3     1  UNL1        0.1270
      2  C          4.2130    1.3170    1.8790 C.2     1  UNL1        0.3030
      3  O          4.3850    2.2730    1.1200 O.2     1  UNL1       -0.2520
      4  O          3.0810    1.3540    2.7080 O.3     1  UNL1       -0.4810
      5  H          2.4960    2.1710    2.6270 H       1  UNL1        0.2960
      6  C          6.4720    0.4040    1.5440 C.3     1  UNL1        0.0470
      7  C          6.9850   -0.4130    0.4420 C.2     1  UNL1       -0.0430
      8  C          6.7750   -0.0590   -0.8820 C.2     1  UNL1        0.0080
      9  C          7.6600   -1.5790    0.6900 C.2     1  UNL1        0.0540
     10  C          7.2260   -0.8450   -1.9190 C.2     1  UNL1        0.0510
     11  C          8.1220   -2.3830   -0.3350 C.2     1  UNL1        0.1660
     12  C          7.9070   -2.0190   -1.6420 C.2     1  UNL1        0.1650
     13  O          8.8160   -3.5810   -0.3210 O.2     1  UNL1       -0.4540
     14  O          8.4800   -3.0140   -2.4370 O.2     1  UNL1       -0.4540
     15  C          8.7710   -4.1410   -1.6420 C.3     1  UNL1        0.4680
@<TRIPOS>BOND
     1    14    12    1
     2    14    15    1
     3    10    12    2
     4    10     8    1
     5    12    11    1
     6    15    13    1
     7     8     7    2
     8    11    13    1
     9    11     9    2
    10     7     9    1
    11     7     6    1
    12     3     2    2
    13     6     1    1
    14     2     1    1
    15     2     4    1
    16     5     4    1
