@<TRIPOS>MOLECULE
/home/cewinharhar/GITHUB/reincatalyze/data/processed/docking_pred/2023-May-17-1006_maxeplen10_maxtrainstep1000_seadep16_gamma099_lrac9e-4_lrcr1e-3_sub6/f411d25023d78b520541a26d40866fe70d26d332_ligand_6.pdbqt
 15 16 0 0 0
SMALL
GASTEIGER

@<TRIPOS>ATOM
      1  C          4.6750    1.8370    0.6820 C.3     1  UNL1        0.1270
      2  C          4.3870    1.1370    1.9240 C.2     1  UNL1        0.3030
      3  O          5.1210    0.3100    2.4690 O.2     1  UNL1       -0.2520
      4  O          3.1690    1.4260    2.5590 O.3     1  UNL1       -0.4810
      5  H          2.4890    0.6820    2.5800 H       1  UNL1        0.2960
      6  C          6.0950    2.2190    0.5240 C.3     1  UNL1        0.0470
      7  C          6.9590    1.3150   -0.2380 C.2     1  UNL1       -0.0430
      8  C          8.3220    1.5380   -0.3500 C.2     1  UNL1        0.0080
      9  C          6.4330    0.2370   -0.9000 C.2     1  UNL1        0.0540
     10  C          9.1300    0.7100   -1.0970 C.2     1  UNL1        0.0510
     11  C          7.2250   -0.6090   -1.6540 C.2     1  UNL1        0.1660
     12  C          8.5750   -0.3760   -1.7550 C.2     1  UNL1        0.1650
     13  O          6.9180   -1.7380   -2.3930 O.2     1  UNL1       -0.4540
     14  O          9.0970   -1.3810   -2.5700 O.2     1  UNL1       -0.4540
     15  C          8.0450   -2.0490   -3.2270 C.3     1  UNL1        0.4680
@<TRIPOS>BOND
     1    15    14    1
     2    15    13    1
     3    14    12    1
     4    13    11    1
     5    12    11    2
     6    12    10    1
     7    11     9    1
     8    10     8    2
     9     9     7    2
    10     8     7    1
    11     7     6    1
    12     6     1    1
    13     1     2    1
    14     2     3    2
    15     2     4    1
    16     4     5    1
