@<TRIPOS>MOLECULE
/home/cewinharhar/GITHUB/reincatalyze/data/processed/docking_pred/2023-May-17-1006_maxeplen10_maxtrainstep1000_seadep16_gamma099_lrac9e-4_lrcr1e-3_sub6/f411d25023d78b520541a26d40866fe70d26d332_ligand_6.pdbqt
 15 16 0 0 0
SMALL
GASTEIGER

@<TRIPOS>ATOM
      1  C          8.3160   -0.3250   -2.8290 C.3     1  UNL1        0.1270
      2  C          8.4730   -1.7520   -3.0670 C.2     1  UNL1        0.3030
      3  O          9.5390   -2.3700   -3.0430 O.2     1  UNL1       -0.2520
      4  O          7.3120   -2.4900   -3.3470 O.3     1  UNL1       -0.4810
      5  H          7.1800   -2.7630   -4.3090 H       1  UNL1        0.2960
      6  C          8.7720    0.1140   -1.4930 C.3     1  UNL1        0.0470
      7  C          7.7970    0.0810   -0.4000 C.2     1  UNL1       -0.0430
      8  C          7.7390   -0.9830    0.4870 C.2     1  UNL1        0.0080
      9  C          6.8830    1.0900   -0.2470 C.2     1  UNL1        0.0540
     10  C          6.8000   -1.0320    1.4930 C.2     1  UNL1        0.0510
     11  C          5.9320    1.0610    0.7560 C.2     1  UNL1        0.1660
     12  C          5.8870    0.0010    1.6290 C.2     1  UNL1        0.1650
     13  O          4.9290    1.9520    1.0950 O.2     1  UNL1       -0.4540
     14  O          4.8370    0.2520    2.5130 O.2     1  UNL1       -0.4540
     15  C          4.0370    1.2970    2.0100 C.3     1  UNL1        0.4680
@<TRIPOS>BOND
     1     5     4    1
     2     4     2    1
     3     2     3    2
     4     2     1    1
     5     1     6    1
     6     6     7    1
     7     7     9    2
     8     7     8    1
     9     9    11    1
    10     8    10    2
    11    11    13    1
    12    11    12    2
    13    13    15    1
    14    10    12    1
    15    12    14    1
    16    15    14    1
