@<TRIPOS>MOLECULE
/home/cewinharhar/GITHUB/reincatalyze/data/processed/docking_pred/2023-May-17-1006_maxeplen10_maxtrainstep1000_seadep16_gamma099_lrac9e-4_lrcr1e-3_sub6/f411d25023d78b520541a26d40866fe70d26d332_ligand_6.pdbqt
 15 16 0 0 0
SMALL
GASTEIGER

@<TRIPOS>ATOM
      1  C          5.4160    2.8710    0.1280 C.3     1  UNL1        0.1270
      2  C          6.2440    3.8480    0.8170 C.2     1  UNL1        0.3030
      3  O          6.8870    4.7510    0.2790 O.2     1  UNL1       -0.2520
      4  O          6.3190    3.7560    2.2160 O.3     1  UNL1       -0.4810
      5  H          7.2110    3.4820    2.5970 H       1  UNL1        0.2960
      6  C          5.3340    1.5630    0.8130 C.3     1  UNL1        0.0470
      7  C          6.1170    0.4570    0.2560 C.2     1  UNL1       -0.0430
      8  C          6.5660   -0.5860    1.0520 C.2     1  UNL1        0.0080
      9  C          6.4630    0.4420   -1.0690 C.2     1  UNL1        0.0540
     10  C          7.3330   -1.6070    0.5370 C.2     1  UNL1        0.0510
     11  C          7.2310   -0.5740   -1.6070 C.2     1  UNL1        0.1660
     12  C          7.6680   -1.6010   -0.8070 C.2     1  UNL1        0.1650
     13  O          7.6930   -0.7930   -2.8930 O.2     1  UNL1       -0.4540
     14  O          8.4090   -2.4590   -1.6210 O.2     1  UNL1       -0.4540
     15  C          8.6980   -1.8170   -2.8410 C.3     1  UNL1        0.4680
@<TRIPOS>BOND
     1    13    15    1
     2    13    11    1
     3    15    14    1
     4    14    12    1
     5    11     9    1
     6    11    12    2
     7     9     7    2
     8    12    10    1
     9     1     6    1
    10     1     2    1
    11     7     6    1
    12     7     8    1
    13     3     2    2
    14    10     8    2
    15     2     4    1
    16     4     5    1
