@<TRIPOS>MOLECULE
/home/cewinharhar/GITHUB/reincatalyze/data/processed/docking_pred/2023-May-17-1006_maxeplen10_maxtrainstep1000_seadep16_gamma099_lrac9e-4_lrcr1e-3_sub6/f411d25023d78b520541a26d40866fe70d26d332_ligand_6.pdbqt
 15 16 0 0 0
SMALL
GASTEIGER

@<TRIPOS>ATOM
      1  C          5.5730    2.6920    0.0070 C.3     1  UNL1        0.1270
      2  C          6.1690    3.7190    0.8480 C.2     1  UNL1        0.3030
      3  O          6.1420    3.7420    2.0800 O.2     1  UNL1       -0.2520
      4  O          6.8320    4.7750    0.2030 O.3     1  UNL1       -0.4810
      5  H          7.1930    5.5040    0.7990 H       1  UNL1        0.2960
      6  C          5.5800    1.3430    0.6120 C.3     1  UNL1        0.0470
      7  C          6.3580    0.3020   -0.0640 C.2     1  UNL1       -0.0430
      8  C          6.4630    0.2580   -1.4460 C.2     1  UNL1        0.0080
      9  C          6.9760   -0.6870    0.6540 C.2     1  UNL1        0.0540
     10  C          7.1640   -0.7410   -2.0840 C.2     1  UNL1        0.0510
     11  C          7.6860   -1.6990    0.0350 C.2     1  UNL1        0.1660
     12  C          7.7820   -1.7290   -1.3350 C.2     1  UNL1        0.1650
     13  O          8.3790   -2.7810    0.5480 O.2     1  UNL1       -0.4540
     14  O          8.5470   -2.8510   -1.6600 O.2     1  UNL1       -0.4540
     15  C          8.6620   -3.6850   -0.5310 C.3     1  UNL1        0.4680
@<TRIPOS>BOND
     1    10     8    1
     2    10    12    2
     3    14    12    1
     4    14    15    1
     5     8     7    2
     6    12    11    1
     7    15    13    1
     8     7     6    1
     9     7     9    1
    10     1     6    1
    11     1     2    1
    12    11    13    1
    13    11     9    2
    14     4     5    1
    15     4     2    1
    16     2     3    2
