@<TRIPOS>MOLECULE
/home/cewinharhar/GITHUB/reincatalyze/data/processed/docking_pred/2023-May-17-1006_maxeplen10_maxtrainstep1000_seadep16_gamma099_lrac9e-4_lrcr1e-3_sub6/f43d8cd6194682d8f3e5600fbc578d0750565092_ligand_6.pdbqt
 15 16 0 0 0
SMALL
GASTEIGER

@<TRIPOS>ATOM
      1  C          5.3630    2.8500    0.1380 C.3     1  UNL1        0.1270
      2  C          6.1050    3.8790    0.8490 C.2     1  UNL1        0.3030
      3  O          6.1260    4.0330    2.0710 O.2     1  UNL1       -0.2520
      4  O          6.8640    4.7750    0.0790 O.3     1  UNL1       -0.4810
      5  H          7.1410    4.4520   -0.8350 H       1  UNL1        0.2960
      6  C          5.3980    1.5240    0.7920 C.3     1  UNL1        0.0470
      7  C          6.2170    0.4830    0.1670 C.2     1  UNL1       -0.0430
      8  C          6.4790    0.4860   -1.1940 C.2     1  UNL1        0.0080
      9  C          6.7190   -0.5520    0.9100 C.2     1  UNL1        0.0540
     10  C          7.2180   -0.5130   -1.7880 C.2     1  UNL1        0.0510
     11  C          7.4640   -1.5650    0.3360 C.2     1  UNL1        0.1660
     12  C          7.7170   -1.5480   -1.0150 C.2     1  UNL1        0.1650
     13  O          8.0610   -2.6890    0.8800 O.2     1  UNL1       -0.4540
     14  O          8.4800   -2.6830   -1.2960 O.2     1  UNL1       -0.4540
     15  C          8.4390   -3.5620   -0.1950 C.3     1  UNL1        0.4680
@<TRIPOS>BOND
     1    10     8    1
     2    10    12    2
     3    14    12    1
     4    14    15    1
     5     8     7    2
     6    12    11    1
     7     5     4    1
     8    15    13    1
     9     4     2    1
    10     1     6    1
    11     1     2    1
    12     7     6    1
    13     7     9    1
    14    11    13    1
    15    11     9    2
    16     2     3    2
