@<TRIPOS>MOLECULE
/home/cewinharhar/GITHUB/reincatalyze/data/processed/docking_pred/2023-May-17-1006_maxeplen10_maxtrainstep1000_seadep16_gamma099_lrac9e-4_lrcr1e-3_sub6/f43d8cd6194682d8f3e5600fbc578d0750565092_ligand_6.pdbqt
 15 16 0 0 0
SMALL
GASTEIGER

@<TRIPOS>ATOM
      1  C          4.7150    1.8700    0.6910 C.3     1  UNL1        0.1270
      2  C          4.4010    1.1580    1.9200 C.2     1  UNL1        0.3030
      3  O          5.1200    0.3210    2.4680 O.2     1  UNL1       -0.2520
      4  O          3.1730    1.4480    2.5360 O.3     1  UNL1       -0.4810
      5  H          2.6360    0.6550    2.8510 H       1  UNL1        0.2960
      6  C          6.1440    2.2240    0.5520 C.3     1  UNL1        0.0470
      7  C          6.9930    1.3200   -0.2270 C.2     1  UNL1       -0.0430
      8  C          8.3510    1.5530   -0.3800 C.2     1  UNL1        0.0080
      9  C          6.4580    0.2320   -0.8630 C.2     1  UNL1        0.0540
     10  C          9.1440    0.7240   -1.1420 C.2     1  UNL1        0.0510
     11  C          7.2340   -0.6150   -1.6330 C.2     1  UNL1        0.1660
     12  C          8.5790   -0.3720   -1.7740 C.2     1  UNL1        0.1650
     13  O          6.9160   -1.7530   -2.3530 O.2     1  UNL1       -0.4540
     14  O          9.0860   -1.3810   -2.5950 O.2     1  UNL1       -0.4540
     15  C          8.0210   -2.0630   -3.2150 C.3     1  UNL1        0.4680
@<TRIPOS>BOND
     1    15    14    1
     2    15    13    1
     3    14    12    1
     4    13    11    1
     5    12    11    2
     6    12    10    1
     7    11     9    1
     8    10     8    2
     9     9     7    2
    10     8     7    1
    11     7     6    1
    12     6     1    1
    13     1     2    1
    14     2     3    2
    15     2     4    1
    16     4     5    1
