@<TRIPOS>MOLECULE
/home/cewinharhar/GITHUB/reincatalyze/data/processed/docking_pred/2023-May-17-1006_maxeplen10_maxtrainstep1000_seadep16_gamma099_lrac9e-4_lrcr1e-3_sub6/f43d8cd6194682d8f3e5600fbc578d0750565092_ligand_6.pdbqt
 15 16 0 0 0
SMALL
GASTEIGER

@<TRIPOS>ATOM
      1  C          6.3940    1.2650    0.6670 C.3     1  UNL1        0.1270
      2  C          5.1730    1.2880    1.4580 C.2     1  UNL1        0.3030
      3  O          4.2620    2.1090    1.3470 O.2     1  UNL1       -0.2520
      4  O          5.0190    0.2890    2.4320 O.3     1  UNL1       -0.4810
      5  H          5.5100    0.4340    3.3010 H       1  UNL1        0.2960
      6  C          6.2020    0.7910   -0.7200 C.3     1  UNL1        0.0470
      7  C          6.9610   -0.3880   -1.1440 C.2     1  UNL1       -0.0430
      8  C          7.2490   -0.6220   -2.4790 C.2     1  UNL1        0.0080
      9  C          7.3780   -1.3180   -0.2290 C.2     1  UNL1        0.0540
     10  C          7.9310   -1.7480   -2.8830 C.2     1  UNL1        0.0510
     11  C          8.0650   -2.4550   -0.6110 C.2     1  UNL1        0.1660
     12  C          8.3440   -2.6740   -1.9380 C.2     1  UNL1        0.1650
     13  O          8.5750   -3.5110    0.1240 O.2     1  UNL1       -0.4540
     14  O          9.0350   -3.8840   -2.0100 O.2     1  UNL1       -0.4540
     15  C          8.9140   -4.5690   -0.7850 C.3     1  UNL1        0.4680
@<TRIPOS>BOND
     1    10     8    1
     2    10    12    2
     3     8     7    2
     4    14    12    1
     5    14    15    1
     6    12    11    1
     7     7     6    1
     8     7     9    1
     9    15    13    1
    10     6     1    1
    11    11     9    2
    12    11    13    1
    13     1     2    1
    14     3     2    2
    15     2     4    1
    16     4     5    1
