@<TRIPOS>MOLECULE
/home/cewinharhar/GITHUB/reincatalyze/data/processed/docking_pred/2023-May-17-1006_maxeplen10_maxtrainstep1000_seadep16_gamma099_lrac9e-4_lrcr1e-3_sub6/f43d8cd6194682d8f3e5600fbc578d0750565092_ligand_6.pdbqt
 15 16 0 0 0
SMALL
GASTEIGER

@<TRIPOS>ATOM
      1  C          5.4320    2.8750    0.1050 C.3     1  UNL1        0.1270
      2  C          6.2590    3.8500    0.7980 C.2     1  UNL1        0.3030
      3  O          6.8860    4.7670    0.2630 O.2     1  UNL1       -0.2520
      4  O          6.3520    3.7410    2.1940 O.3     1  UNL1       -0.4810
      5  H          5.4920    3.5470    2.6840 H       1  UNL1        0.2960
      6  C          5.3590    1.5620    0.7810 C.3     1  UNL1        0.0470
      7  C          6.1390    0.4620    0.2100 C.2     1  UNL1       -0.0430
      8  C          6.6010   -0.5840    0.9950 C.2     1  UNL1        0.0080
      9  C          6.4690    0.4540   -1.1200 C.2     1  UNL1        0.0540
     10  C          7.3650   -1.6000    0.4650 C.2     1  UNL1        0.0510
     11  C          7.2340   -0.5560   -1.6730 C.2     1  UNL1        0.1660
     12  C          7.6840   -1.5860   -0.8830 C.2     1  UNL1        0.1650
     13  O          7.6810   -0.7670   -2.9650 O.2     1  UNL1       -0.4540
     14  O          8.4180   -2.4370   -1.7100 O.2     1  UNL1       -0.4540
     15  C          8.6890   -1.7880   -2.9310 C.3     1  UNL1        0.4680
@<TRIPOS>BOND
     1    13    15    1
     2    13    11    1
     3    15    14    1
     4    14    12    1
     5    11     9    1
     6    11    12    2
     7     9     7    2
     8    12    10    1
     9     1     6    1
    10     1     2    1
    11     7     6    1
    12     7     8    1
    13     3     2    2
    14    10     8    2
    15     2     4    1
    16     4     5    1
