@<TRIPOS>MOLECULE
/home/cewinharhar/GITHUB/reincatalyze/data/processed/docking_pred/2023-May-17-1006_maxeplen10_maxtrainstep1000_seadep16_gamma099_lrac9e-4_lrcr1e-3_sub6/f43d8cd6194682d8f3e5600fbc578d0750565092_ligand_6.pdbqt
 15 16 0 0 0
SMALL
GASTEIGER

@<TRIPOS>ATOM
      1  C          8.2830   -0.3190   -2.8280 C.3     1  UNL1        0.1270
      2  C          8.4740   -1.7430   -3.0550 C.2     1  UNL1        0.3030
      3  O          9.5510   -2.3390   -3.0010 O.2     1  UNL1       -0.2520
      4  O          7.3360   -2.5050   -3.3600 O.3     1  UNL1       -0.4810
      5  H          6.5110   -1.9880   -3.6240 H       1  UNL1        0.2960
      6  C          8.7370    0.1430   -1.4990 C.3     1  UNL1        0.0470
      7  C          7.7670    0.1080   -0.4020 C.2     1  UNL1       -0.0430
      8  C          7.7230   -0.9500    0.4920 C.2     1  UNL1        0.0080
      9  C          6.8440    1.1090   -0.2510 C.2     1  UNL1        0.0540
     10  C          6.7880   -1.0020    1.5020 C.2     1  UNL1        0.0510
     11  C          5.8970    1.0780    0.7560 C.2     1  UNL1        0.1660
     12  C          5.8660    0.0230    1.6350 C.2     1  UNL1        0.1650
     13  O          4.8870    1.9610    1.0940 O.2     1  UNL1       -0.4540
     14  O          4.8180    0.2700    2.5230 O.2     1  UNL1       -0.4540
     15  C          4.0050    1.3030    2.0160 C.3     1  UNL1        0.4680
@<TRIPOS>BOND
     1     5     4    1
     2     4     2    1
     3     2     3    2
     4     2     1    1
     5     1     6    1
     6     6     7    1
     7     7     9    2
     8     7     8    1
     9     9    11    1
    10     8    10    2
    11    11    13    1
    12    11    12    2
    13    13    15    1
    14    10    12    1
    15    12    14    1
    16    15    14    1
