MODEL 1
REMARK VINA RESULT:      -7.6      0.000      0.000
REMARK SMILES O=C(O)CCc1ccc2c(c1)OCO2
REMARK SMILES IDX 4 1 2 2 1 3 3 4 5 6 6 7 7 8 11 9 8 10 10 11 9 12 12 13 14 14
REMARK SMILES IDX 13 15
REMARK H PARENT 3 5
REMARK Flexibility Score: inf
ROOT
ATOM      1  C   UNL     1       5.432   2.875   0.105  1.00  0.00     0.127 C 
ENDROOT
BRANCH   1   2
ATOM      2  C   UNL     1       6.259   3.850   0.798  1.00  0.00     0.303 C 
ATOM      3  O   UNL     1       6.886   4.767   0.263  1.00  0.00    -0.252 OA
BRANCH   2   4
ATOM      4  O   UNL     1       6.352   3.741   2.194  1.00  0.00    -0.481 OA
ATOM      5  H   UNL     1       5.492   3.547   2.684  1.00  0.00     0.296 HD
ENDBRANCH   2   4
ENDBRANCH   1   2
BRANCH   1   6
ATOM      6  C   UNL     1       5.359   1.562   0.781  1.00  0.00     0.047 C 
BRANCH   6   7
ATOM      7  C   UNL     1       6.139   0.462   0.210  1.00  0.00    -0.043 A 
ATOM      8  C   UNL     1       6.601  -0.584   0.995  1.00  0.00     0.008 A 
ATOM      9  C   UNL     1       6.469   0.454  -1.120  1.00  0.00     0.054 A 
ATOM     10  C   UNL     1       7.365  -1.600   0.465  1.00  0.00     0.051 A 
ATOM     11  C   UNL     1       7.234  -0.556  -1.673  1.00  0.00     0.166 A 
ATOM     12  C   UNL     1       7.684  -1.586  -0.883  1.00  0.00     0.165 A 
ATOM     13  O   UNL     1       7.681  -0.767  -2.965  1.00  0.00    -0.454 OA
ATOM     14  O   UNL     1       8.418  -2.437  -1.710  1.00  0.00    -0.454 OA
ATOM     15  C   UNL     1       8.689  -1.788  -2.931  1.00  0.00     0.468 C 
ENDBRANCH   6   7
ENDBRANCH   1   6
TORSDOF 4
ENDMDL
MODEL 2
REMARK VINA RESULT:      -7.6      2.120      2.515
REMARK SMILES O=C(O)CCc1ccc2c(c1)OCO2
REMARK SMILES IDX 4 1 2 2 1 3 3 4 5 6 6 7 7 8 11 9 8 10 10 11 9 12 12 13 14 14
REMARK SMILES IDX 13 15
REMARK H PARENT 3 5
REMARK Flexibility Score: inf
ROOT
ATOM      1  C   UNL     1       4.715   1.870   0.691  1.00  0.00     0.127 C 
ENDROOT
BRANCH   1   2
ATOM      2  C   UNL     1       4.401   1.158   1.920  1.00  0.00     0.303 C 
ATOM      3  O   UNL     1       5.120   0.321   2.468  1.00  0.00    -0.252 OA
BRANCH   2   4
ATOM      4  O   UNL     1       3.173   1.448   2.536  1.00  0.00    -0.481 OA
ATOM      5  H   UNL     1       2.636   0.655   2.851  1.00  0.00     0.296 HD
ENDBRANCH   2   4
ENDBRANCH   1   2
BRANCH   1   6
ATOM      6  C   UNL     1       6.144   2.224   0.552  1.00  0.00     0.047 C 
BRANCH   6   7
ATOM      7  C   UNL     1       6.993   1.320  -0.227  1.00  0.00    -0.043 A 
ATOM      8  C   UNL     1       8.351   1.553  -0.380  1.00  0.00     0.008 A 
ATOM      9  C   UNL     1       6.458   0.232  -0.863  1.00  0.00     0.054 A 
ATOM     10  C   UNL     1       9.144   0.724  -1.142  1.00  0.00     0.051 A 
ATOM     11  C   UNL     1       7.234  -0.615  -1.633  1.00  0.00     0.166 A 
ATOM     12  C   UNL     1       8.579  -0.372  -1.774  1.00  0.00     0.165 A 
ATOM     13  O   UNL     1       6.916  -1.753  -2.353  1.00  0.00    -0.454 OA
ATOM     14  O   UNL     1       9.086  -1.381  -2.595  1.00  0.00    -0.454 OA
ATOM     15  C   UNL     1       8.021  -2.063  -3.215  1.00  0.00     0.468 C 
ENDBRANCH   6   7
ENDBRANCH   1   6
TORSDOF 4
ENDMDL
MODEL 3
REMARK VINA RESULT:      -7.5      1.983      2.897
REMARK SMILES O=C(O)CCc1ccc2c(c1)OCO2
REMARK SMILES IDX 4 1 2 2 1 3 3 4 5 6 6 7 7 8 11 9 8 10 10 11 9 12 12 13 14 14
REMARK SMILES IDX 13 15
REMARK H PARENT 3 5
REMARK Flexibility Score: inf
ROOT
ATOM      1  C   UNL     1       6.394   1.265   0.667  1.00  0.00     0.127 C 
ENDROOT
BRANCH   1   2
ATOM      2  C   UNL     1       5.173   1.288   1.458  1.00  0.00     0.303 C 
ATOM      3  O   UNL     1       4.262   2.109   1.347  1.00  0.00    -0.252 OA
BRANCH   2   4
ATOM      4  O   UNL     1       5.019   0.289   2.432  1.00  0.00    -0.481 OA
ATOM      5  H   UNL     1       5.510   0.434   3.301  1.00  0.00     0.296 HD
ENDBRANCH   2   4
ENDBRANCH   1   2
BRANCH   1   6
ATOM      6  C   UNL     1       6.202   0.791  -0.720  1.00  0.00     0.047 C 
BRANCH   6   7
ATOM      7  C   UNL     1       6.961  -0.388  -1.144  1.00  0.00    -0.043 A 
ATOM      8  C   UNL     1       7.249  -0.622  -2.479  1.00  0.00     0.008 A 
ATOM      9  C   UNL     1       7.378  -1.318  -0.229  1.00  0.00     0.054 A 
ATOM     10  C   UNL     1       7.931  -1.748  -2.883  1.00  0.00     0.051 A 
ATOM     11  C   UNL     1       8.065  -2.455  -0.611  1.00  0.00     0.166 A 
ATOM     12  C   UNL     1       8.344  -2.674  -1.938  1.00  0.00     0.165 A 
ATOM     13  O   UNL     1       8.575  -3.511   0.124  1.00  0.00    -0.454 OA
ATOM     14  O   UNL     1       9.035  -3.884  -2.010  1.00  0.00    -0.454 OA
ATOM     15  C   UNL     1       8.914  -4.569  -0.785  1.00  0.00     0.468 C 
ENDBRANCH   6   7
ENDBRANCH   1   6
TORSDOF 4
ENDMDL
MODEL 4
REMARK VINA RESULT:      -7.5      1.799      5.292
REMARK SMILES O=C(O)CCc1ccc2c(c1)OCO2
REMARK SMILES IDX 4 1 2 2 1 3 3 4 5 6 6 7 7 8 11 9 8 10 10 11 9 12 12 13 14 14
REMARK SMILES IDX 13 15
REMARK H PARENT 3 5
REMARK Flexibility Score: inf
ROOT
ATOM      1  C   UNL     1       8.283  -0.319  -2.828  1.00  0.00     0.127 C 
ENDROOT
BRANCH   1   2
ATOM      2  C   UNL     1       8.474  -1.743  -3.055  1.00  0.00     0.303 C 
ATOM      3  O   UNL     1       9.551  -2.339  -3.001  1.00  0.00    -0.252 OA
BRANCH   2   4
ATOM      4  O   UNL     1       7.336  -2.505  -3.360  1.00  0.00    -0.481 OA
ATOM      5  H   UNL     1       6.511  -1.988  -3.624  1.00  0.00     0.296 HD
ENDBRANCH   2   4
ENDBRANCH   1   2
BRANCH   1   6
ATOM      6  C   UNL     1       8.737   0.143  -1.499  1.00  0.00     0.047 C 
BRANCH   6   7
ATOM      7  C   UNL     1       7.767   0.108  -0.402  1.00  0.00    -0.043 A 
ATOM      8  C   UNL     1       7.723  -0.950   0.492  1.00  0.00     0.008 A 
ATOM      9  C   UNL     1       6.844   1.109  -0.251  1.00  0.00     0.054 A 
ATOM     10  C   UNL     1       6.788  -1.002   1.502  1.00  0.00     0.051 A 
ATOM     11  C   UNL     1       5.897   1.078   0.756  1.00  0.00     0.166 A 
ATOM     12  C   UNL     1       5.866   0.023   1.635  1.00  0.00     0.165 A 
ATOM     13  O   UNL     1       4.887   1.961   1.094  1.00  0.00    -0.454 OA
ATOM     14  O   UNL     1       4.818   0.270   2.523  1.00  0.00    -0.454 OA
ATOM     15  C   UNL     1       4.005   1.303   2.016  1.00  0.00     0.468 C 
ENDBRANCH   6   7
ENDBRANCH   1   6
TORSDOF 4
ENDMDL
MODEL 5
REMARK VINA RESULT:      -6.4      0.941      2.110
REMARK SMILES O=C(O)CCc1ccc2c(c1)OCO2
REMARK SMILES IDX 4 1 2 2 1 3 3 4 5 6 6 7 7 8 11 9 8 10 10 11 9 12 12 13 14 14
REMARK SMILES IDX 13 15
REMARK H PARENT 3 5
REMARK Flexibility Score: inf
ROOT
ATOM      1  C   UNL     1       5.363   2.850   0.138  1.00  0.00     0.127 C 
ENDROOT
BRANCH   1   2
ATOM      2  C   UNL     1       6.105   3.879   0.849  1.00  0.00     0.303 C 
ATOM      3  O   UNL     1       6.126   4.033   2.071  1.00  0.00    -0.252 OA
BRANCH   2   4
ATOM      4  O   UNL     1       6.864   4.775   0.079  1.00  0.00    -0.481 OA
ATOM      5  H   UNL     1       7.141   4.452  -0.835  1.00  0.00     0.296 HD
ENDBRANCH   2   4
ENDBRANCH   1   2
BRANCH   1   6
ATOM      6  C   UNL     1       5.398   1.524   0.792  1.00  0.00     0.047 C 
BRANCH   6   7
ATOM      7  C   UNL     1       6.217   0.483   0.167  1.00  0.00    -0.043 A 
ATOM      8  C   UNL     1       6.479   0.486  -1.194  1.00  0.00     0.008 A 
ATOM      9  C   UNL     1       6.719  -0.552   0.910  1.00  0.00     0.054 A 
ATOM     10  C   UNL     1       7.218  -0.513  -1.788  1.00  0.00     0.051 A 
ATOM     11  C   UNL     1       7.464  -1.565   0.336  1.00  0.00     0.166 A 
ATOM     12  C   UNL     1       7.717  -1.548  -1.015  1.00  0.00     0.165 A 
ATOM     13  O   UNL     1       8.061  -2.689   0.880  1.00  0.00    -0.454 OA
ATOM     14  O   UNL     1       8.480  -2.683  -1.296  1.00  0.00    -0.454 OA
ATOM     15  C   UNL     1       8.439  -3.562  -0.195  1.00  0.00     0.468 C 
ENDBRANCH   6   7
ENDBRANCH   1   6
TORSDOF 4
ENDMDL
