@<TRIPOS>MOLECULE
/home/cewinharhar/GITHUB/reincatalyze/data/processed/docking_pred/2023-May-17-1006_maxeplen10_maxtrainstep1000_seadep16_gamma099_lrac9e-4_lrcr1e-3_sub6/f56adf6440abdf94ed5aca5eaefea0329b307251_ligand_6.pdbqt
 15 16 0 0 0
SMALL
GASTEIGER

@<TRIPOS>ATOM
      1  C          6.4290    1.3210    0.6860 C.3     1  UNL1        0.1270
      2  C          5.1820    1.3370    1.4340 C.2     1  UNL1        0.3030
      3  O          4.2690    2.1520    1.2880 O.2     1  UNL1       -0.2520
      4  O          5.0000    0.3410    2.4060 O.3     1  UNL1       -0.4810
      5  H          4.7820   -0.5820    2.0620 H       1  UNL1        0.2960
      6  C          6.2730    0.9370   -0.7330 C.3     1  UNL1        0.0470
      7  C          7.0080   -0.2400   -1.2010 C.2     1  UNL1       -0.0430
      8  C          7.2930   -0.4290   -2.5450 C.2     1  UNL1        0.0080
      9  C          7.4040   -1.2130   -0.3230 C.2     1  UNL1        0.0540
     10  C          7.9530   -1.5520   -2.9910 C.2     1  UNL1        0.0510
     11  C          8.0670   -2.3490   -0.7480 C.2     1  UNL1        0.1660
     12  C          8.3440   -2.5220   -2.0820 C.2     1  UNL1        0.1650
     13  O          8.5530   -3.4430   -0.0540 O.2     1  UNL1       -0.4540
     14  O          9.0100   -3.7430   -2.2000 O.2     1  UNL1       -0.4540
     15  C          8.8720   -4.4720   -1.0020 C.3     1  UNL1        0.4680
@<TRIPOS>BOND
     1    10     8    1
     2    10    12    2
     3     8     7    2
     4    14    12    1
     5    14    15    1
     6    12    11    1
     7     7     6    1
     8     7     9    1
     9    15    13    1
    10    11     9    2
    11    11    13    1
    12     6     1    1
    13     1     2    1
    14     3     2    2
    15     2     4    1
    16     5     4    1
