MODEL 1
REMARK VINA RESULT:      -7.7      0.000      0.000
REMARK SMILES O=C(O)CCc1ccc2c(c1)OCO2
REMARK SMILES IDX 4 1 2 2 1 3 3 4 5 6 6 7 7 8 11 9 8 10 10 11 9 12 12 13 14 14
REMARK SMILES IDX 13 15
REMARK H PARENT 3 5
REMARK Flexibility Score: inf
ROOT
ATOM      1  C   UNL     1       8.086  -0.522  -2.259  1.00  0.00     0.127 C 
ENDROOT
BRANCH   1   2
ATOM      2  C   UNL     1       8.358  -1.787  -2.925  1.00  0.00     0.303 C 
ATOM      3  O   UNL     1       9.468  -2.304  -3.057  1.00  0.00    -0.252 OA
BRANCH   2   4
ATOM      4  O   UNL     1       7.262  -2.479  -3.465  1.00  0.00    -0.481 OA
ATOM      5  H   UNL     1       6.786  -3.113  -2.842  1.00  0.00     0.296 HD
ENDBRANCH   2   4
ENDBRANCH   1   2
BRANCH   1   6
ATOM      6  C   UNL     1       6.908  -0.555  -1.366  1.00  0.00     0.047 C 
BRANCH   6   7
ATOM      7  C   UNL     1       6.648   0.629  -0.545  1.00  0.00    -0.043 A 
ATOM      8  C   UNL     1       5.510   1.400  -0.724  1.00  0.00     0.008 A 
ATOM      9  C   UNL     1       7.548   1.034   0.405  1.00  0.00     0.054 A 
ATOM     10  C   UNL     1       5.281   2.534   0.023  1.00  0.00     0.051 A 
ATOM     11  C   UNL     1       7.340   2.168   1.167  1.00  0.00     0.166 A 
ATOM     12  C   UNL     1       6.206   2.921   0.979  1.00  0.00     0.165 A 
ATOM     13  O   UNL     1       8.097   2.756   2.165  1.00  0.00    -0.454 OA
ATOM     14  O   UNL     1       6.277   3.986   1.879  1.00  0.00    -0.454 OA
ATOM     15  C   UNL     1       7.582   4.075   2.401  1.00  0.00     0.468 C 
ENDBRANCH   6   7
ENDBRANCH   1   6
TORSDOF 4
ENDMDL
MODEL 2
REMARK VINA RESULT:      -7.5      1.931      5.649
REMARK SMILES O=C(O)CCc1ccc2c(c1)OCO2
REMARK SMILES IDX 4 1 2 2 1 3 3 4 5 6 6 7 7 8 11 9 8 10 10 11 9 12 12 13 14 14
REMARK SMILES IDX 13 15
REMARK H PARENT 3 5
REMARK Flexibility Score: inf
ROOT
ATOM      1  C   UNL     1       4.731   1.905   0.786  1.00  0.00     0.127 C 
ENDROOT
BRANCH   1   2
ATOM      2  C   UNL     1       4.358   1.143   1.968  1.00  0.00     0.303 C 
ATOM      3  O   UNL     1       5.029   0.249   2.486  1.00  0.00    -0.252 OA
BRANCH   2   4
ATOM      4  O   UNL     1       3.129   1.452   2.572  1.00  0.00    -0.481 OA
ATOM      5  H   UNL     1       2.373   0.807   2.398  1.00  0.00     0.296 HD
ENDBRANCH   2   4
ENDBRANCH   1   2
BRANCH   1   6
ATOM      6  C   UNL     1       6.171   2.235   0.715  1.00  0.00     0.047 C 
BRANCH   6   7
ATOM      7  C   UNL     1       7.032   1.348  -0.070  1.00  0.00    -0.043 A 
ATOM      8  C   UNL     1       8.404   1.537  -0.131  1.00  0.00     0.008 A 
ATOM      9  C   UNL     1       6.497   0.321  -0.802  1.00  0.00     0.054 A 
ATOM     10  C   UNL     1       9.210   0.725  -0.897  1.00  0.00     0.051 A 
ATOM     11  C   UNL     1       7.286  -0.507  -1.577  1.00  0.00     0.166 A 
ATOM     12  C   UNL     1       8.645  -0.308  -1.627  1.00  0.00     0.165 A 
ATOM     13  O   UNL     1       6.971  -1.587  -2.383  1.00  0.00    -0.454 OA
ATOM     14  O   UNL     1       9.164  -1.285  -2.479  1.00  0.00    -0.454 OA
ATOM     15  C   UNL     1       8.113  -1.886  -3.200  1.00  0.00     0.468 C 
ENDBRANCH   6   7
ENDBRANCH   1   6
TORSDOF 4
ENDMDL
MODEL 3
REMARK VINA RESULT:      -7.3      1.989      2.099
REMARK SMILES O=C(O)CCc1ccc2c(c1)OCO2
REMARK SMILES IDX 4 1 2 2 1 3 3 4 5 6 6 7 7 8 11 9 8 10 10 11 9 12 12 13 14 14
REMARK SMILES IDX 13 15
REMARK H PARENT 3 5
REMARK Flexibility Score: inf
ROOT
ATOM      1  C   UNL     1       8.055  -1.283  -0.211  1.00  0.00     0.127 C 
ENDROOT
BRANCH   1   2
ATOM      2  C   UNL     1       7.946  -2.445   0.657  1.00  0.00     0.303 C 
ATOM      3  O   UNL     1       8.778  -3.349   0.754  1.00  0.00    -0.252 OA
BRANCH   2   4
ATOM      4  O   UNL     1       6.794  -2.549   1.453  1.00  0.00    -0.481 OA
ATOM      5  H   UNL     1       6.862  -2.173   2.386  1.00  0.00     0.296 HD
ENDBRANCH   2   4
ENDBRANCH   1   2
BRANCH   1   6
ATOM      6  C   UNL     1       6.758  -0.656  -0.542  1.00  0.00     0.047 C 
BRANCH   6   7
ATOM      7  C   UNL     1       6.491   0.677   0.003  1.00  0.00    -0.043 A 
ATOM      8  C   UNL     1       5.451   1.460  -0.474  1.00  0.00     0.008 A 
ATOM      9  C   UNL     1       7.292   1.207   0.979  1.00  0.00     0.054 A 
ATOM     10  C   UNL     1       5.222   2.728   0.011  1.00  0.00     0.051 A 
ATOM     11  C   UNL     1       7.080   2.477   1.482  1.00  0.00     0.166 A 
ATOM     12  C   UNL     1       6.044   3.241   1.001  1.00  0.00     0.165 A 
ATOM     13  O   UNL     1       7.747   3.204   2.452  1.00  0.00    -0.454 OA
ATOM     14  O   UNL     1       6.085   4.454   1.690  1.00  0.00    -0.454 OA
ATOM     15  C   UNL     1       7.315   4.571   2.366  1.00  0.00     0.468 C 
ENDBRANCH   6   7
ENDBRANCH   1   6
TORSDOF 4
ENDMDL
MODEL 4
REMARK VINA RESULT:      -7.2      1.336      5.701
REMARK SMILES O=C(O)CCc1ccc2c(c1)OCO2
REMARK SMILES IDX 4 1 2 2 1 3 3 4 5 6 6 7 7 8 11 9 8 10 10 11 9 12 12 13 14 14
REMARK SMILES IDX 13 15
REMARK H PARENT 3 5
REMARK Flexibility Score: inf
ROOT
ATOM      1  C   UNL     1       5.378   2.865   0.154  1.00  0.00     0.127 C 
ENDROOT
BRANCH   1   2
ATOM      2  C   UNL     1       6.317   3.740   0.838  1.00  0.00     0.303 C 
ATOM      3  O   UNL     1       6.801   4.774   0.376  1.00  0.00    -0.252 OA
BRANCH   2   4
ATOM      4  O   UNL     1       6.707   3.377   2.137  1.00  0.00    -0.481 OA
ATOM      5  H   UNL     1       5.974   3.046   2.746  1.00  0.00     0.296 HD
ENDBRANCH   2   4
ENDBRANCH   1   2
BRANCH   1   6
ATOM      6  C   UNL     1       5.242   1.529   0.773  1.00  0.00     0.047 C 
BRANCH   6   7
ATOM      7  C   UNL     1       6.035   0.436   0.206  1.00  0.00    -0.043 A 
ATOM      8  C   UNL     1       6.441  -0.642   0.979  1.00  0.00     0.008 A 
ATOM      9  C   UNL     1       6.433   0.466  -1.104  1.00  0.00     0.054 A 
ATOM     10  C   UNL     1       7.216  -1.652   0.456  1.00  0.00     0.051 A 
ATOM     11  C   UNL     1       7.210  -0.538  -1.650  1.00  0.00     0.166 A 
ATOM     12  C   UNL     1       7.604  -1.600  -0.873  1.00  0.00     0.165 A 
ATOM     13  O   UNL     1       7.720  -0.714  -2.925  1.00  0.00    -0.454 OA
ATOM     14  O   UNL     1       8.368  -2.436  -1.690  1.00  0.00    -0.454 OA
ATOM     15  C   UNL     1       8.711  -1.752  -2.873  1.00  0.00     0.468 C 
ENDBRANCH   6   7
ENDBRANCH   1   6
TORSDOF 4
ENDMDL
MODEL 5
REMARK VINA RESULT:      -7.1      2.112      5.986
REMARK SMILES O=C(O)CCc1ccc2c(c1)OCO2
REMARK SMILES IDX 4 1 2 2 1 3 3 4 5 6 6 7 7 8 11 9 8 10 10 11 9 12 12 13 14 14
REMARK SMILES IDX 13 15
REMARK H PARENT 3 5
REMARK Flexibility Score: inf
ROOT
ATOM      1  C   UNL     1       6.429   1.321   0.686  1.00  0.00     0.127 C 
ENDROOT
BRANCH   1   2
ATOM      2  C   UNL     1       5.182   1.337   1.434  1.00  0.00     0.303 C 
ATOM      3  O   UNL     1       4.269   2.152   1.288  1.00  0.00    -0.252 OA
BRANCH   2   4
ATOM      4  O   UNL     1       5.000   0.341   2.406  1.00  0.00    -0.481 OA
ATOM      5  H   UNL     1       4.782  -0.582   2.062  1.00  0.00     0.296 HD
ENDBRANCH   2   4
ENDBRANCH   1   2
BRANCH   1   6
ATOM      6  C   UNL     1       6.273   0.937  -0.733  1.00  0.00     0.047 C 
BRANCH   6   7
ATOM      7  C   UNL     1       7.008  -0.240  -1.201  1.00  0.00    -0.043 A 
ATOM      8  C   UNL     1       7.293  -0.429  -2.545  1.00  0.00     0.008 A 
ATOM      9  C   UNL     1       7.404  -1.213  -0.323  1.00  0.00     0.054 A 
ATOM     10  C   UNL     1       7.953  -1.552  -2.991  1.00  0.00     0.051 A 
ATOM     11  C   UNL     1       8.067  -2.349  -0.748  1.00  0.00     0.166 A 
ATOM     12  C   UNL     1       8.344  -2.522  -2.082  1.00  0.00     0.165 A 
ATOM     13  O   UNL     1       8.553  -3.443  -0.054  1.00  0.00    -0.454 OA
ATOM     14  O   UNL     1       9.010  -3.743  -2.200  1.00  0.00    -0.454 OA
ATOM     15  C   UNL     1       8.872  -4.472  -1.002  1.00  0.00     0.468 C 
ENDBRANCH   6   7
ENDBRANCH   1   6
TORSDOF 4
ENDMDL
