@<TRIPOS>MOLECULE
/home/cewinharhar/GITHUB/reincatalyze/data/processed/docking_pred/2023-May-17-1006_maxeplen10_maxtrainstep1000_seadep16_gamma099_lrac9e-4_lrcr1e-3_sub6/f56adf6440abdf94ed5aca5eaefea0329b307251_ligand_6.pdbqt
 15 16 0 0 0
SMALL
GASTEIGER

@<TRIPOS>ATOM
      1  C          8.0550   -1.2830   -0.2110 C.3     1  UNL1        0.1270
      2  C          7.9460   -2.4450    0.6570 C.2     1  UNL1        0.3030
      3  O          8.7780   -3.3490    0.7540 O.2     1  UNL1       -0.2520
      4  O          6.7940   -2.5490    1.4530 O.3     1  UNL1       -0.4810
      5  H          6.8620   -2.1730    2.3860 H       1  UNL1        0.2960
      6  C          6.7580   -0.6560   -0.5420 C.3     1  UNL1        0.0470
      7  C          6.4910    0.6770    0.0030 C.2     1  UNL1       -0.0430
      8  C          5.4510    1.4600   -0.4740 C.2     1  UNL1        0.0080
      9  C          7.2920    1.2070    0.9790 C.2     1  UNL1        0.0540
     10  C          5.2220    2.7280    0.0110 C.2     1  UNL1        0.0510
     11  C          7.0800    2.4770    1.4820 C.2     1  UNL1        0.1660
     12  C          6.0440    3.2410    1.0010 C.2     1  UNL1        0.1650
     13  O          7.7470    3.2040    2.4520 O.2     1  UNL1       -0.4540
     14  O          6.0850    4.4540    1.6900 O.2     1  UNL1       -0.4540
     15  C          7.3150    4.5710    2.3660 C.3     1  UNL1        0.4680
@<TRIPOS>BOND
     1     6     1    1
     2     6     7    1
     3     8     7    2
     4     8    10    1
     5     1     2    1
     6     7     9    1
     7    10    12    2
     8     2     3    2
     9     2     4    1
    10     9    11    2
    11    12    11    1
    12    12    14    1
    13     4     5    1
    14    11    13    1
    15    14    15    1
    16    15    13    1
