@<TRIPOS>MOLECULE
/home/cewinharhar/GITHUB/reincatalyze/data/processed/docking_pred/2023-May-17-1006_maxeplen10_maxtrainstep1000_seadep16_gamma099_lrac9e-4_lrcr1e-3_sub6/f56adf6440abdf94ed5aca5eaefea0329b307251_ligand_6.pdbqt
 15 16 0 0 0
SMALL
GASTEIGER

@<TRIPOS>ATOM
      1  C          8.0860   -0.5220   -2.2590 C.3     1  UNL1        0.1270
      2  C          8.3580   -1.7870   -2.9250 C.2     1  UNL1        0.3030
      3  O          9.4680   -2.3040   -3.0570 O.2     1  UNL1       -0.2520
      4  O          7.2620   -2.4790   -3.4650 O.3     1  UNL1       -0.4810
      5  H          6.7860   -3.1130   -2.8420 H       1  UNL1        0.2960
      6  C          6.9080   -0.5550   -1.3660 C.3     1  UNL1        0.0470
      7  C          6.6480    0.6290   -0.5450 C.2     1  UNL1       -0.0430
      8  C          5.5100    1.4000   -0.7240 C.2     1  UNL1        0.0080
      9  C          7.5480    1.0340    0.4050 C.2     1  UNL1        0.0540
     10  C          5.2810    2.5340    0.0230 C.2     1  UNL1        0.0510
     11  C          7.3400    2.1680    1.1670 C.2     1  UNL1        0.1660
     12  C          6.2060    2.9210    0.9790 C.2     1  UNL1        0.1650
     13  O          8.0970    2.7560    2.1650 O.2     1  UNL1       -0.4540
     14  O          6.2770    3.9860    1.8790 O.2     1  UNL1       -0.4540
     15  C          7.5820    4.0750    2.4010 C.3     1  UNL1        0.4680
@<TRIPOS>BOND
     1     4     2    1
     2     4     5    1
     3     3     2    2
     4     2     1    1
     5     1     6    1
     6     6     7    1
     7     8     7    2
     8     8    10    1
     9     7     9    1
    10    10    12    2
    11     9    11    2
    12    12    11    1
    13    12    14    1
    14    11    13    1
    15    14    15    1
    16    13    15    1
