@<TRIPOS>MOLECULE
/home/cewinharhar/GITHUB/reincatalyze/data/processed/docking_pred/2023-May-17-1006_maxeplen10_maxtrainstep1000_seadep16_gamma099_lrac9e-4_lrcr1e-3_sub6/f56adf6440abdf94ed5aca5eaefea0329b307251_ligand_6.pdbqt
 15 16 0 0 0
SMALL
GASTEIGER

@<TRIPOS>ATOM
      1  C          5.3780    2.8650    0.1540 C.3     1  UNL1        0.1270
      2  C          6.3170    3.7400    0.8380 C.2     1  UNL1        0.3030
      3  O          6.8010    4.7740    0.3760 O.2     1  UNL1       -0.2520
      4  O          6.7070    3.3770    2.1370 O.3     1  UNL1       -0.4810
      5  H          5.9740    3.0460    2.7460 H       1  UNL1        0.2960
      6  C          5.2420    1.5290    0.7730 C.3     1  UNL1        0.0470
      7  C          6.0350    0.4360    0.2060 C.2     1  UNL1       -0.0430
      8  C          6.4410   -0.6420    0.9790 C.2     1  UNL1        0.0080
      9  C          6.4330    0.4660   -1.1040 C.2     1  UNL1        0.0540
     10  C          7.2160   -1.6520    0.4560 C.2     1  UNL1        0.0510
     11  C          7.2100   -0.5380   -1.6500 C.2     1  UNL1        0.1660
     12  C          7.6040   -1.6000   -0.8730 C.2     1  UNL1        0.1650
     13  O          7.7200   -0.7140   -2.9250 O.2     1  UNL1       -0.4540
     14  O          8.3680   -2.4360   -1.6900 O.2     1  UNL1       -0.4540
     15  C          8.7110   -1.7520   -2.8730 C.3     1  UNL1        0.4680
@<TRIPOS>BOND
     1    13    15    1
     2    13    11    1
     3    15    14    1
     4    14    12    1
     5    11     9    1
     6    11    12    2
     7     9     7    2
     8    12    10    1
     9     1     6    1
    10     1     2    1
    11     7     6    1
    12     7     8    1
    13     3     2    2
    14    10     8    2
    15     2     4    1
    16     4     5    1
