@<TRIPOS>MOLECULE
/home/cewinharhar/GITHUB/reincatalyze/data/processed/docking_pred/2023-May-17-1006_maxeplen10_maxtrainstep1000_seadep16_gamma099_lrac9e-4_lrcr1e-3_sub6/f5fb071253116e33fb6a6057d91faa3d89d34546_ligand_6.pdbqt
 15 16 0 0 0
SMALL
GASTEIGER

@<TRIPOS>ATOM
      1  C          6.4310    1.3250    0.6850 C.3     1  UNL1        0.1270
      2  C          5.2980    1.1370    1.5770 C.2     1  UNL1        0.3030
      3  O          5.2020    0.2620    2.4400 O.2     1  UNL1       -0.2520
      4  O          4.2200    2.0260    1.4450 O.3     1  UNL1       -0.4810
      5  H          3.6150    2.1150    2.2470 H       1  UNL1        0.2960
      6  C          6.1950    0.8490   -0.6950 C.3     1  UNL1        0.0470
      7  C          6.9610   -0.3120   -1.1520 C.2     1  UNL1       -0.0430
      8  C          7.2660   -0.4970   -2.4910 C.2     1  UNL1        0.0080
      9  C          7.3680   -1.2740   -0.2670 C.2     1  UNL1        0.0540
     10  C          7.9550   -1.6070   -2.9270 C.2     1  UNL1        0.0510
     11  C          8.0620   -2.3960   -0.6810 C.2     1  UNL1        0.1660
     12  C          8.3580   -2.5660   -2.0120 C.2     1  UNL1        0.1650
     13  O          8.5640   -3.4770    0.0210 O.2     1  UNL1       -0.4540
     14  O          9.0520   -3.7720   -2.1190 O.2     1  UNL1       -0.4540
     15  C          8.9170   -4.5010   -0.9210 C.3     1  UNL1        0.4680
@<TRIPOS>BOND
     1    10     8    1
     2    10    12    2
     3     8     7    2
     4    14    12    1
     5    14    15    1
     6    12    11    1
     7     7     6    1
     8     7     9    1
     9    15    13    1
    10     6     1    1
    11    11     9    2
    12    11    13    1
    13     1     2    1
    14     4     2    1
    15     4     5    1
    16     2     3    2
