@<TRIPOS>MOLECULE
/home/cewinharhar/GITHUB/reincatalyze/data/processed/docking_pred/2023-May-17-1006_maxeplen10_maxtrainstep1000_seadep16_gamma099_lrac9e-4_lrcr1e-3_sub6/f5fb071253116e33fb6a6057d91faa3d89d34546_ligand_6.pdbqt
 15 16 0 0 0
SMALL
GASTEIGER

@<TRIPOS>ATOM
      1  C          5.4110    2.8710    0.1200 C.3     1  UNL1        0.1270
      2  C          6.2340    3.8560    0.8040 C.2     1  UNL1        0.3030
      3  O          6.8950    4.7410    0.2580 O.2     1  UNL1       -0.2520
      4  O          6.2820    3.7950    2.2060 O.3     1  UNL1       -0.4810
      5  H          7.1010    3.3640    2.6050 H       1  UNL1        0.2960
      6  C          5.3450    1.5630    0.8070 C.3     1  UNL1        0.0470
      7  C          6.1210    0.4600    0.2370 C.2     1  UNL1       -0.0430
      8  C          6.5570   -0.5990    1.0190 C.2     1  UNL1        0.0080
      9  C          6.4740    0.4610   -1.0860 C.2     1  UNL1        0.0540
     10  C          7.3180   -1.6190    0.4930 C.2     1  UNL1        0.0510
     11  C          7.2360   -0.5520   -1.6360 C.2     1  UNL1        0.1660
     12  C          7.6600   -1.5950   -0.8500 C.2     1  UNL1        0.1650
     13  O          7.7020   -0.7550   -2.9230 O.2     1  UNL1       -0.4540
     14  O          8.3980   -2.4470   -1.6730 O.2     1  UNL1       -0.4540
     15  C          8.6980   -1.7890   -2.8820 C.3     1  UNL1        0.4680
@<TRIPOS>BOND
     1    13    15    1
     2    13    11    1
     3    15    14    1
     4    14    12    1
     5    11     9    1
     6    11    12    2
     7     9     7    2
     8    12    10    1
     9     1     2    1
    10     1     6    1
    11     7     6    1
    12     7     8    1
    13     3     2    2
    14    10     8    2
    15     2     4    1
    16     4     5    1
