@<TRIPOS>MOLECULE
/home/cewinharhar/GITHUB/reincatalyze/data/processed/docking_pred/2023-May-17-1006_maxeplen10_maxtrainstep1000_seadep16_gamma099_lrac9e-4_lrcr1e-3_sub6/f5fb071253116e33fb6a6057d91faa3d89d34546_ligand_6.pdbqt
 15 16 0 0 0
SMALL
GASTEIGER

@<TRIPOS>ATOM
      1  C          4.6690    1.8720    0.6720 C.3     1  UNL1        0.1270
      2  C          4.3980    1.1680    1.9160 C.2     1  UNL1        0.3030
      3  O          5.1520    0.3590    2.4600 O.2     1  UNL1       -0.2520
      4  O          3.1750    1.4310    2.5520 O.3     1  UNL1       -0.4810
      5  H          2.9700    2.4000    2.7400 H       1  UNL1        0.2960
      6  C          6.0850    2.2610    0.4980 C.3     1  UNL1        0.0470
      7  C          6.9490    1.3510   -0.2570 C.2     1  UNL1       -0.0430
      8  C          8.3110    1.5760   -0.3760 C.2     1  UNL1        0.0080
      9  C          6.4240    0.2640   -0.9050 C.2     1  UNL1        0.0540
     10  C          9.1190    0.7410   -1.1160 C.2     1  UNL1        0.0510
     11  C          7.2160   -0.5880   -1.6530 C.2     1  UNL1        0.1660
     12  C          8.5650   -0.3530   -1.7600 C.2     1  UNL1        0.1650
     13  O          6.9100   -1.7260   -2.3780 O.2     1  UNL1       -0.4540
     14  O          9.0880   -1.3650   -2.5660 O.2     1  UNL1       -0.4540
     15  C          8.0350   -2.0430   -3.2120 C.3     1  UNL1        0.4680
@<TRIPOS>BOND
     1    15    14    1
     2    15    13    1
     3    14    12    1
     4    13    11    1
     5    12    11    2
     6    12    10    1
     7    11     9    1
     8    10     8    2
     9     9     7    2
    10     8     7    1
    11     7     6    1
    12     6     1    1
    13     1     2    1
    14     2     3    2
    15     2     4    1
    16     4     5    1
