@<TRIPOS>MOLECULE
/home/cewinharhar/GITHUB/reincatalyze/data/processed/docking_pred/2023-May-17-1006_maxeplen10_maxtrainstep1000_seadep16_gamma099_lrac9e-4_lrcr1e-3_sub6/f5fb071253116e33fb6a6057d91faa3d89d34546_ligand_6.pdbqt
 15 16 0 0 0
SMALL
GASTEIGER

@<TRIPOS>ATOM
      1  C          8.3010   -0.3200   -2.8630 C.3     1  UNL1        0.1270
      2  C          8.4680   -1.7500   -3.0730 C.2     1  UNL1        0.3030
      3  O          9.5360   -2.3620   -3.0270 O.2     1  UNL1       -0.2520
      4  O          7.3140   -2.4990   -3.3530 O.3     1  UNL1       -0.4810
      5  H          6.9890   -3.1080   -2.6170 H       1  UNL1        0.2960
      6  C          8.7530    0.1480   -1.5360 C.3     1  UNL1        0.0470
      7  C          7.7860    0.1060   -0.4370 C.2     1  UNL1       -0.0430
      8  C          7.7380   -0.9610    0.4460 C.2     1  UNL1        0.0080
      9  C          6.8680    1.1100   -0.2740 C.2     1  UNL1        0.0540
     10  C          6.8050   -1.0190    1.4580 C.2     1  UNL1        0.0510
     11  C          5.9230    1.0730    0.7340 C.2     1  UNL1        0.1660
     12  C          5.8880    0.0090    1.6030 C.2     1  UNL1        0.1650
     13  O          4.9180    1.9580    1.0840 O.2     1  UNL1       -0.4540
     14  O          4.8430    0.2520    2.4960 O.2     1  UNL1       -0.4540
     15  C          4.0340    1.2950    2.0010 C.3     1  UNL1        0.4680
@<TRIPOS>BOND
     1     4     2    1
     2     4     5    1
     3     2     3    2
     4     2     1    1
     5     1     6    1
     6     6     7    1
     7     7     9    2
     8     7     8    1
     9     9    11    1
    10     8    10    2
    11    11    13    1
    12    11    12    2
    13    13    15    1
    14    10    12    1
    15    12    14    1
    16    15    14    1
