@<TRIPOS>MOLECULE
/home/cewinharhar/GITHUB/reincatalyze/data/processed/docking_pred/2023-May-17-1006_maxeplen10_maxtrainstep1000_seadep16_gamma099_lrac9e-4_lrcr1e-3_sub6/f5fb071253116e33fb6a6057d91faa3d89d34546_ligand_6.pdbqt
 15 16 0 0 0
SMALL
GASTEIGER

@<TRIPOS>ATOM
      1  C          5.3860    2.8290    0.2430 C.3     1  UNL1        0.1270
      2  C          6.2380    3.7670    0.9570 C.2     1  UNL1        0.3030
      3  O          6.4600    3.7530    2.1690 O.2     1  UNL1       -0.2520
      4  O          6.8600    4.7750    0.2040 O.3     1  UNL1       -0.4810
      5  H          6.5410    5.7170    0.3710 H       1  UNL1        0.2960
      6  C          5.3570    1.4740    0.8340 C.3     1  UNL1        0.0470
      7  C          6.1990    0.4480    0.2160 C.2     1  UNL1       -0.0430
      8  C          6.4660    0.4520   -1.1440 C.2     1  UNL1        0.0080
      9  C          6.7200   -0.5740    0.9640 C.2     1  UNL1        0.0540
     10  C          7.2290   -0.5330   -1.7320 C.2     1  UNL1        0.0510
     11  C          7.4880   -1.5730    0.3960 C.2     1  UNL1        0.1660
     12  C          7.7450   -1.5560   -0.9530 C.2     1  UNL1        0.1650
     13  O          8.1060   -2.6820    0.9460 O.2     1  UNL1       -0.4540
     14  O          8.5330   -2.6750   -1.2280 O.2     1  UNL1       -0.4540
     15  C          8.5060   -3.5510   -0.1240 C.3     1  UNL1        0.4680
@<TRIPOS>BOND
     1    10     8    1
     2    10    12    2
     3    14    12    1
     4    14    15    1
     5     8     7    2
     6    12    11    1
     7    15    13    1
     8     4     5    1
     9     4     2    1
    10     7     6    1
    11     7     9    1
    12     1     6    1
    13     1     2    1
    14    11    13    1
    15    11     9    2
    16     2     3    2
