@<TRIPOS>MOLECULE
/home/cewinharhar/GITHUB/reincatalyze/data/processed/docking_pred/2023-May-17-1006_maxeplen10_maxtrainstep1000_seadep16_gamma099_lrac9e-4_lrcr1e-3_sub6/f6b0a6d65051a5b20d9eb350202399160ef0f891_ligand_6.pdbqt
 15 16 0 0 0
SMALL
GASTEIGER

@<TRIPOS>ATOM
      1  C          6.4040    1.3630    0.6300 C.3     1  UNL1        0.1270
      2  C          5.2090    1.3250    1.4590 C.2     1  UNL1        0.3030
      3  O          4.2430    2.0840    1.3600 O.2     1  UNL1       -0.2520
      4  O          5.1480    0.3410    2.4570 O.3     1  UNL1       -0.4810
      5  H          4.2490   -0.0930    2.6010 H       1  UNL1        0.2960
      6  C          6.1990    0.8550   -0.7430 C.3     1  UNL1        0.0470
      7  C          6.9600   -0.3290   -1.1470 C.2     1  UNL1       -0.0430
      8  C          7.2710   -0.5710   -2.4770 C.2     1  UNL1        0.0080
      9  C          7.3570   -1.2570   -0.2210 C.2     1  UNL1        0.0540
     10  C          7.9560   -1.7020   -2.8620 C.2     1  UNL1        0.0510
     11  C          8.0450   -2.3980   -0.5850 C.2     1  UNL1        0.1660
     12  C          8.3480   -2.6250   -1.9060 C.2     1  UNL1        0.1650
     13  O          8.5370   -3.4530    0.1640 O.2     1  UNL1       -0.4540
     14  O          9.0350   -3.8390   -1.9600 O.2     1  UNL1       -0.4540
     15  C          8.8890   -4.5170   -0.7330 C.3     1  UNL1        0.4680
@<TRIPOS>BOND
     1    10     8    1
     2    10    12    2
     3     8     7    2
     4    14    12    1
     5    14    15    1
     6    12    11    1
     7     7     6    1
     8     7     9    1
     9     6     1    1
    10    15    13    1
    11    11     9    2
    12    11    13    1
    13     1     2    1
    14     3     2    2
    15     2     4    1
    16     4     5    1
