@<TRIPOS>MOLECULE
/home/cewinharhar/GITHUB/reincatalyze/data/processed/docking_pred/2023-May-17-1006_maxeplen10_maxtrainstep1000_seadep16_gamma099_lrac9e-4_lrcr1e-3_sub6/f6b0a6d65051a5b20d9eb350202399160ef0f891_ligand_6.pdbqt
 15 16 0 0 0
SMALL
GASTEIGER

@<TRIPOS>ATOM
      1  C          5.7000    2.6160   -0.0360 C.3     1  UNL1        0.1270
      2  C          6.2130    3.6670    0.8300 C.2     1  UNL1        0.3030
      3  O          6.1380    3.6830    2.0600 O.2     1  UNL1       -0.2520
      4  O          6.8500    4.7550    0.2140 O.3     1  UNL1       -0.4810
      5  H          6.4750    5.0450   -0.6760 H       1  UNL1        0.2960
      6  C          5.6680    1.2800    0.5960 C.3     1  UNL1        0.0470
      7  C          6.4410    0.2110   -0.0400 C.2     1  UNL1       -0.0430
      8  C          6.5720    0.1340   -1.4180 C.2     1  UNL1        0.0080
      9  C          7.0280   -0.7710    0.7120 C.2     1  UNL1        0.0540
     10  C          7.2680   -0.8910   -2.0200 C.2     1  UNL1        0.0510
     11  C          7.7320   -1.8090    0.1300 C.2     1  UNL1        0.1660
     12  C          7.8540   -1.8720   -1.2380 C.2     1  UNL1        0.1650
     13  O          8.3970   -2.8910    0.6800 O.2     1  UNL1       -0.4540
     14  O          8.6060   -3.0130   -1.5220 O.2     1  UNL1       -0.4540
     15  C          8.6850   -3.8240   -0.3720 C.3     1  UNL1        0.4680
@<TRIPOS>BOND
     1    10     8    1
     2    10    12    2
     3    14    12    1
     4    14    15    1
     5     8     7    2
     6    12    11    1
     7     5     4    1
     8    15    13    1
     9     7     6    1
    10     7     9    1
    11     1     6    1
    12     1     2    1
    13    11    13    1
    14    11     9    2
    15     4     2    1
    16     2     3    2
