MODEL 1
REMARK VINA RESULT:      -7.6      0.000      0.000
REMARK SMILES O=C(O)CCc1ccc2c(c1)OCO2
REMARK SMILES IDX 4 1 2 2 1 3 3 4 5 6 6 7 7 8 11 9 8 10 10 11 9 12 12 13 14 14
REMARK SMILES IDX 13 15
REMARK H PARENT 3 5
REMARK Flexibility Score: inf
ROOT
ATOM      1  C   UNL     1       5.359   2.903   0.136  1.00  0.00     0.127 C 
ENDROOT
BRANCH   1   2
ATOM      2  C   UNL     1       6.213   3.863   0.818  1.00  0.00     0.303 C 
ATOM      3  O   UNL     1       6.841   4.775   0.277  1.00  0.00    -0.252 OA
BRANCH   2   4
ATOM      4  O   UNL     1       6.334   3.743   2.211  1.00  0.00    -0.481 OA
ATOM      5  H   UNL     1       7.166   3.282   2.548  1.00  0.00     0.296 HD
ENDBRANCH   2   4
ENDBRANCH   1   2
BRANCH   1   6
ATOM      6  C   UNL     1       5.274   1.590   0.811  1.00  0.00     0.047 C 
BRANCH   6   7
ATOM      7  C   UNL     1       6.055   0.487   0.247  1.00  0.00    -0.043 A 
ATOM      8  C   UNL     1       6.482  -0.573   1.030  1.00  0.00     0.008 A 
ATOM      9  C   UNL     1       6.421   0.492  -1.073  1.00  0.00     0.054 A 
ATOM     10  C   UNL     1       7.247  -1.593   0.509  1.00  0.00     0.051 A 
ATOM     11  C   UNL     1       7.188  -0.520  -1.618  1.00  0.00     0.166 A 
ATOM     12  C   UNL     1       7.603  -1.566  -0.829  1.00  0.00     0.165 A 
ATOM     13  O   UNL     1       7.668  -0.721  -2.901  1.00  0.00    -0.454 OA
ATOM     14  O   UNL     1       8.349  -2.416  -1.648  1.00  0.00    -0.454 OA
ATOM     15  C   UNL     1       8.662  -1.755  -2.852  1.00  0.00     0.468 C 
ENDBRANCH   6   7
ENDBRANCH   1   6
TORSDOF 4
ENDMDL
MODEL 2
REMARK VINA RESULT:      -7.6      2.124      2.529
REMARK SMILES O=C(O)CCc1ccc2c(c1)OCO2
REMARK SMILES IDX 4 1 2 2 1 3 3 4 5 6 6 7 7 8 11 9 8 10 10 11 9 12 12 13 14 14
REMARK SMILES IDX 13 15
REMARK H PARENT 3 5
REMARK Flexibility Score: inf
ROOT
ATOM      1  C   UNL     1       4.712   1.868   0.686  1.00  0.00     0.127 C 
ENDROOT
BRANCH   1   2
ATOM      2  C   UNL     1       4.413   1.157   1.918  1.00  0.00     0.303 C 
ATOM      3  O   UNL     1       5.146   0.331   2.466  1.00  0.00    -0.252 OA
BRANCH   2   4
ATOM      4  O   UNL     1       3.184   1.431   2.539  1.00  0.00    -0.481 OA
ATOM      5  H   UNL     1       2.468   0.728   2.439  1.00  0.00     0.296 HD
ENDBRANCH   2   4
ENDBRANCH   1   2
BRANCH   1   6
ATOM      6  C   UNL     1       6.137   2.233   0.534  1.00  0.00     0.047 C 
BRANCH   6   7
ATOM      7  C   UNL     1       6.990   1.327  -0.238  1.00  0.00    -0.043 A 
ATOM      8  C   UNL     1       8.350   1.556  -0.381  1.00  0.00     0.008 A 
ATOM      9  C   UNL     1       6.457   0.240  -0.879  1.00  0.00     0.054 A 
ATOM     10  C   UNL     1       9.146   0.725  -1.137  1.00  0.00     0.051 A 
ATOM     11  C   UNL     1       7.237  -0.608  -1.643  1.00  0.00     0.166 A 
ATOM     12  C   UNL     1       8.583  -0.369  -1.774  1.00  0.00     0.165 A 
ATOM     13  O   UNL     1       6.921  -1.745  -2.366  1.00  0.00    -0.454 OA
ATOM     14  O   UNL     1       9.094  -1.378  -2.591  1.00  0.00    -0.454 OA
ATOM     15  C   UNL     1       8.032  -2.057  -3.220  1.00  0.00     0.468 C 
ENDBRANCH   6   7
ENDBRANCH   1   6
TORSDOF 4
ENDMDL
MODEL 3
REMARK VINA RESULT:      -7.4      1.809      5.282
REMARK SMILES O=C(O)CCc1ccc2c(c1)OCO2
REMARK SMILES IDX 4 1 2 2 1 3 3 4 5 6 6 7 7 8 11 9 8 10 10 11 9 12 12 13 14 14
REMARK SMILES IDX 13 15
REMARK H PARENT 3 5
REMARK Flexibility Score: inf
ROOT
ATOM      1  C   UNL     1       8.308  -0.322  -2.827  1.00  0.00     0.127 C 
ENDROOT
BRANCH   1   2
ATOM      2  C   UNL     1       8.469  -1.749  -3.062  1.00  0.00     0.303 C 
ATOM      3  O   UNL     1       9.537  -2.364  -3.033  1.00  0.00    -0.252 OA
BRANCH   2   4
ATOM      4  O   UNL     1       7.312  -2.491  -3.345  1.00  0.00    -0.481 OA
ATOM      5  H   UNL     1       7.023  -3.152  -2.640  1.00  0.00     0.296 HD
ENDBRANCH   2   4
ENDBRANCH   1   2
BRANCH   1   6
ATOM      6  C   UNL     1       8.764   0.122  -1.493  1.00  0.00     0.047 C 
BRANCH   6   7
ATOM      7  C   UNL     1       7.792   0.089  -0.399  1.00  0.00    -0.043 A 
ATOM      8  C   UNL     1       7.742  -0.970   0.495  1.00  0.00     0.008 A 
ATOM      9  C   UNL     1       6.871   1.092  -0.250  1.00  0.00     0.054 A 
ATOM     10  C   UNL     1       6.804  -1.020   1.502  1.00  0.00     0.051 A 
ATOM     11  C   UNL     1       5.922   1.064   0.754  1.00  0.00     0.166 A 
ATOM     12  C   UNL     1       5.885   0.009   1.633  1.00  0.00     0.165 A 
ATOM     13  O   UNL     1       4.913   1.950   1.090  1.00  0.00    -0.454 OA
ATOM     14  O   UNL     1       4.835   0.258   2.518  1.00  0.00    -0.454 OA
ATOM     15  C   UNL     1       4.027   1.294   2.009  1.00  0.00     0.468 C 
ENDBRANCH   6   7
ENDBRANCH   1   6
TORSDOF 4
ENDMDL
MODEL 4
REMARK VINA RESULT:      -7.4      1.977      2.891
REMARK SMILES O=C(O)CCc1ccc2c(c1)OCO2
REMARK SMILES IDX 4 1 2 2 1 3 3 4 5 6 6 7 7 8 11 9 8 10 10 11 9 12 12 13 14 14
REMARK SMILES IDX 13 15
REMARK H PARENT 3 5
REMARK Flexibility Score: inf
ROOT
ATOM      1  C   UNL     1       6.404   1.363   0.630  1.00  0.00     0.127 C 
ENDROOT
BRANCH   1   2
ATOM      2  C   UNL     1       5.209   1.325   1.459  1.00  0.00     0.303 C 
ATOM      3  O   UNL     1       4.243   2.084   1.360  1.00  0.00    -0.252 OA
BRANCH   2   4
ATOM      4  O   UNL     1       5.148   0.341   2.457  1.00  0.00    -0.481 OA
ATOM      5  H   UNL     1       4.249  -0.093   2.601  1.00  0.00     0.296 HD
ENDBRANCH   2   4
ENDBRANCH   1   2
BRANCH   1   6
ATOM      6  C   UNL     1       6.199   0.855  -0.743  1.00  0.00     0.047 C 
BRANCH   6   7
ATOM      7  C   UNL     1       6.960  -0.329  -1.147  1.00  0.00    -0.043 A 
ATOM      8  C   UNL     1       7.271  -0.571  -2.477  1.00  0.00     0.008 A 
ATOM      9  C   UNL     1       7.357  -1.257  -0.221  1.00  0.00     0.054 A 
ATOM     10  C   UNL     1       7.956  -1.702  -2.862  1.00  0.00     0.051 A 
ATOM     11  C   UNL     1       8.045  -2.398  -0.585  1.00  0.00     0.166 A 
ATOM     12  C   UNL     1       8.348  -2.625  -1.906  1.00  0.00     0.165 A 
ATOM     13  O   UNL     1       8.537  -3.453   0.164  1.00  0.00    -0.454 OA
ATOM     14  O   UNL     1       9.035  -3.839  -1.960  1.00  0.00    -0.454 OA
ATOM     15  C   UNL     1       8.889  -4.517  -0.733  1.00  0.00     0.468 C 
ENDBRANCH   6   7
ENDBRANCH   1   6
TORSDOF 4
ENDMDL
MODEL 5
REMARK VINA RESULT:      -7.4      1.044      2.135
REMARK SMILES O=C(O)CCc1ccc2c(c1)OCO2
REMARK SMILES IDX 4 1 2 2 1 3 3 4 5 6 6 7 7 8 11 9 8 10 10 11 9 12 12 13 14 14
REMARK SMILES IDX 13 15
REMARK H PARENT 3 5
REMARK Flexibility Score: inf
ROOT
ATOM      1  C   UNL     1       5.700   2.616  -0.036  1.00  0.00     0.127 C 
ENDROOT
BRANCH   1   2
ATOM      2  C   UNL     1       6.213   3.667   0.830  1.00  0.00     0.303 C 
ATOM      3  O   UNL     1       6.138   3.683   2.060  1.00  0.00    -0.252 OA
BRANCH   2   4
ATOM      4  O   UNL     1       6.850   4.755   0.214  1.00  0.00    -0.481 OA
ATOM      5  H   UNL     1       6.475   5.045  -0.676  1.00  0.00     0.296 HD
ENDBRANCH   2   4
ENDBRANCH   1   2
BRANCH   1   6
ATOM      6  C   UNL     1       5.668   1.280   0.596  1.00  0.00     0.047 C 
BRANCH   6   7
ATOM      7  C   UNL     1       6.441   0.211  -0.040  1.00  0.00    -0.043 A 
ATOM      8  C   UNL     1       6.572   0.134  -1.418  1.00  0.00     0.008 A 
ATOM      9  C   UNL     1       7.028  -0.771   0.712  1.00  0.00     0.054 A 
ATOM     10  C   UNL     1       7.268  -0.891  -2.020  1.00  0.00     0.051 A 
ATOM     11  C   UNL     1       7.732  -1.809   0.130  1.00  0.00     0.166 A 
ATOM     12  C   UNL     1       7.854  -1.872  -1.238  1.00  0.00     0.165 A 
ATOM     13  O   UNL     1       8.397  -2.891   0.680  1.00  0.00    -0.454 OA
ATOM     14  O   UNL     1       8.606  -3.013  -1.522  1.00  0.00    -0.454 OA
ATOM     15  C   UNL     1       8.685  -3.824  -0.372  1.00  0.00     0.468 C 
ENDBRANCH   6   7
ENDBRANCH   1   6
TORSDOF 4
ENDMDL
