@<TRIPOS>MOLECULE
/home/cewinharhar/GITHUB/reincatalyze/data/processed/docking_pred/2023-May-17-1006_maxeplen10_maxtrainstep1000_seadep16_gamma099_lrac9e-4_lrcr1e-3_sub6/f6b0a6d65051a5b20d9eb350202399160ef0f891_ligand_6.pdbqt
 15 16 0 0 0
SMALL
GASTEIGER

@<TRIPOS>ATOM
      1  C          4.7120    1.8680    0.6860 C.3     1  UNL1        0.1270
      2  C          4.4130    1.1570    1.9180 C.2     1  UNL1        0.3030
      3  O          5.1460    0.3310    2.4660 O.2     1  UNL1       -0.2520
      4  O          3.1840    1.4310    2.5390 O.3     1  UNL1       -0.4810
      5  H          2.4680    0.7280    2.4390 H       1  UNL1        0.2960
      6  C          6.1370    2.2330    0.5340 C.3     1  UNL1        0.0470
      7  C          6.9900    1.3270   -0.2380 C.2     1  UNL1       -0.0430
      8  C          8.3500    1.5560   -0.3810 C.2     1  UNL1        0.0080
      9  C          6.4570    0.2400   -0.8790 C.2     1  UNL1        0.0540
     10  C          9.1460    0.7250   -1.1370 C.2     1  UNL1        0.0510
     11  C          7.2370   -0.6080   -1.6430 C.2     1  UNL1        0.1660
     12  C          8.5830   -0.3690   -1.7740 C.2     1  UNL1        0.1650
     13  O          6.9210   -1.7450   -2.3660 O.2     1  UNL1       -0.4540
     14  O          9.0940   -1.3780   -2.5910 O.2     1  UNL1       -0.4540
     15  C          8.0320   -2.0570   -3.2200 C.3     1  UNL1        0.4680
@<TRIPOS>BOND
     1    15    14    1
     2    15    13    1
     3    14    12    1
     4    13    11    1
     5    12    11    2
     6    12    10    1
     7    11     9    1
     8    10     8    2
     9     9     7    2
    10     8     7    1
    11     7     6    1
    12     6     1    1
    13     1     2    1
    14     2     3    2
    15     2     4    1
    16     5     4    1
