@<TRIPOS>MOLECULE
/home/cewinharhar/GITHUB/reincatalyze/data/processed/docking_pred/2023-May-17-1006_maxeplen10_maxtrainstep1000_seadep16_gamma099_lrac9e-4_lrcr1e-3_sub6/f6b0a6d65051a5b20d9eb350202399160ef0f891_ligand_6.pdbqt
 15 16 0 0 0
SMALL
GASTEIGER

@<TRIPOS>ATOM
      1  C          5.3590    2.9030    0.1360 C.3     1  UNL1        0.1270
      2  C          6.2130    3.8630    0.8180 C.2     1  UNL1        0.3030
      3  O          6.8410    4.7750    0.2770 O.2     1  UNL1       -0.2520
      4  O          6.3340    3.7430    2.2110 O.3     1  UNL1       -0.4810
      5  H          7.1660    3.2820    2.5480 H       1  UNL1        0.2960
      6  C          5.2740    1.5900    0.8110 C.3     1  UNL1        0.0470
      7  C          6.0550    0.4870    0.2470 C.2     1  UNL1       -0.0430
      8  C          6.4820   -0.5730    1.0300 C.2     1  UNL1        0.0080
      9  C          6.4210    0.4920   -1.0730 C.2     1  UNL1        0.0540
     10  C          7.2470   -1.5930    0.5090 C.2     1  UNL1        0.0510
     11  C          7.1880   -0.5200   -1.6180 C.2     1  UNL1        0.1660
     12  C          7.6030   -1.5660   -0.8290 C.2     1  UNL1        0.1650
     13  O          7.6680   -0.7210   -2.9010 O.2     1  UNL1       -0.4540
     14  O          8.3490   -2.4160   -1.6480 O.2     1  UNL1       -0.4540
     15  C          8.6620   -1.7550   -2.8520 C.3     1  UNL1        0.4680
@<TRIPOS>BOND
     1    13    15    1
     2    13    11    1
     3    15    14    1
     4    14    12    1
     5    11     9    1
     6    11    12    2
     7     9     7    2
     8    12    10    1
     9     1     6    1
    10     1     2    1
    11     7     6    1
    12     7     8    1
    13     3     2    2
    14    10     8    2
    15     2     4    1
    16     4     5    1
