@<TRIPOS>MOLECULE
/home/cewinharhar/GITHUB/reincatalyze/data/processed/docking_pred/2023-May-17-1006_maxeplen10_maxtrainstep1000_seadep16_gamma099_lrac9e-4_lrcr1e-3_sub6/f6b0a6d65051a5b20d9eb350202399160ef0f891_ligand_6.pdbqt
 15 16 0 0 0
SMALL
GASTEIGER

@<TRIPOS>ATOM
      1  C          8.3080   -0.3220   -2.8270 C.3     1  UNL1        0.1270
      2  C          8.4690   -1.7490   -3.0620 C.2     1  UNL1        0.3030
      3  O          9.5370   -2.3640   -3.0330 O.2     1  UNL1       -0.2520
      4  O          7.3120   -2.4910   -3.3450 O.3     1  UNL1       -0.4810
      5  H          7.0230   -3.1520   -2.6400 H       1  UNL1        0.2960
      6  C          8.7640    0.1220   -1.4930 C.3     1  UNL1        0.0470
      7  C          7.7920    0.0890   -0.3990 C.2     1  UNL1       -0.0430
      8  C          7.7420   -0.9700    0.4950 C.2     1  UNL1        0.0080
      9  C          6.8710    1.0920   -0.2500 C.2     1  UNL1        0.0540
     10  C          6.8040   -1.0200    1.5020 C.2     1  UNL1        0.0510
     11  C          5.9220    1.0640    0.7540 C.2     1  UNL1        0.1660
     12  C          5.8850    0.0090    1.6330 C.2     1  UNL1        0.1650
     13  O          4.9130    1.9500    1.0900 O.2     1  UNL1       -0.4540
     14  O          4.8350    0.2580    2.5180 O.2     1  UNL1       -0.4540
     15  C          4.0270    1.2940    2.0090 C.3     1  UNL1        0.4680
@<TRIPOS>BOND
     1     4     2    1
     2     4     5    1
     3     2     3    2
     4     2     1    1
     5     1     6    1
     6     6     7    1
     7     7     9    2
     8     7     8    1
     9     9    11    1
    10     8    10    2
    11    11    13    1
    12    11    12    2
    13    13    15    1
    14    10    12    1
    15    12    14    1
    16    15    14    1
