MODEL 1
REMARK VINA RESULT:      -7.7      0.000      0.000
REMARK SMILES O=C(O)CCc1ccc2c(c1)OCO2
REMARK SMILES IDX 4 1 2 2 1 3 3 4 5 6 6 7 7 8 11 9 8 10 10 11 9 12 12 13 14 14
REMARK SMILES IDX 13 15
REMARK H PARENT 3 5
REMARK Flexibility Score: inf
ROOT
ATOM      1  C   UNL     1       5.414   2.868   0.127  1.00  0.00     0.127 C 
ENDROOT
BRANCH   1   2
ATOM      2  C   UNL     1       6.242   3.848   0.811  1.00  0.00     0.303 C 
ATOM      3  O   UNL     1       6.887   4.747   0.267  1.00  0.00    -0.252 OA
BRANCH   2   4
ATOM      4  O   UNL     1       6.315   3.766   2.210  1.00  0.00    -0.481 OA
ATOM      5  H   UNL     1       5.900   2.949   2.631  1.00  0.00     0.296 HD
ENDBRANCH   2   4
ENDBRANCH   1   2
BRANCH   1   6
ATOM      6  C   UNL     1       5.343   1.560   0.811  1.00  0.00     0.047 C 
BRANCH   6   7
ATOM      7  C   UNL     1       6.121   0.456   0.245  1.00  0.00    -0.043 A 
ATOM      8  C   UNL     1       6.575  -0.590   1.034  1.00  0.00     0.008 A 
ATOM      9  C   UNL     1       6.459   0.446  -1.082  1.00  0.00     0.054 A 
ATOM     10  C   UNL     1       7.338  -1.610   0.510  1.00  0.00     0.051 A 
ATOM     11  C   UNL     1       7.223  -0.568  -1.630  1.00  0.00     0.166 A 
ATOM     12  C   UNL     1       7.665  -1.599  -0.836  1.00  0.00     0.165 A 
ATOM     13  O   UNL     1       7.676  -0.782  -2.920  1.00  0.00    -0.454 OA
ATOM     14  O   UNL     1       8.400  -2.454  -1.659  1.00  0.00    -0.454 OA
ATOM     15  C   UNL     1       8.681  -1.807  -2.879  1.00  0.00     0.468 C 
ENDBRANCH   6   7
ENDBRANCH   1   6
TORSDOF 4
ENDMDL
MODEL 2
REMARK VINA RESULT:      -7.6      2.135      2.514
REMARK SMILES O=C(O)CCc1ccc2c(c1)OCO2
REMARK SMILES IDX 4 1 2 2 1 3 3 4 5 6 6 7 7 8 11 9 8 10 10 11 9 12 12 13 14 14
REMARK SMILES IDX 13 15
REMARK H PARENT 3 5
REMARK Flexibility Score: inf
ROOT
ATOM      1  C   UNL     1       4.713   1.875   0.703  1.00  0.00     0.127 C 
ENDROOT
BRANCH   1   2
ATOM      2  C   UNL     1       4.418   1.138   1.922  1.00  0.00     0.303 C 
ATOM      3  O   UNL     1       5.152   0.300   2.449  1.00  0.00    -0.252 OA
BRANCH   2   4
ATOM      4  O   UNL     1       3.192   1.401   2.554  1.00  0.00    -0.481 OA
ATOM      5  H   UNL     1       2.517   0.652   2.546  1.00  0.00     0.296 HD
ENDBRANCH   2   4
ENDBRANCH   1   2
BRANCH   1   6
ATOM      6  C   UNL     1       6.139   2.230   0.546  1.00  0.00     0.047 C 
BRANCH   6   7
ATOM      7  C   UNL     1       6.982   1.320  -0.232  1.00  0.00    -0.043 A 
ATOM      8  C   UNL     1       8.347   1.526  -0.358  1.00  0.00     0.008 A 
ATOM      9  C   UNL     1       6.435   0.253  -0.895  1.00  0.00     0.054 A 
ATOM     10  C   UNL     1       9.135   0.692  -1.120  1.00  0.00     0.051 A 
ATOM     11  C   UNL     1       7.207  -0.598  -1.664  1.00  0.00     0.166 A 
ATOM     12  C   UNL     1       8.559  -0.382  -1.779  1.00  0.00     0.165 A 
ATOM     13  O   UNL     1       6.877  -1.717  -2.407  1.00  0.00    -0.454 OA
ATOM     14  O   UNL     1       9.058  -1.388  -2.607  1.00  0.00    -0.454 OA
ATOM     15  C   UNL     1       7.990  -2.037  -3.256  1.00  0.00     0.468 C 
ENDBRANCH   6   7
ENDBRANCH   1   6
TORSDOF 4
ENDMDL
MODEL 3
REMARK VINA RESULT:      -7.5      1.998      2.990
REMARK SMILES O=C(O)CCc1ccc2c(c1)OCO2
REMARK SMILES IDX 4 1 2 2 1 3 3 4 5 6 6 7 7 8 11 9 8 10 10 11 9 12 12 13 14 14
REMARK SMILES IDX 13 15
REMARK H PARENT 3 5
REMARK Flexibility Score: inf
ROOT
ATOM      1  C   UNL     1       6.439   1.264   0.758  1.00  0.00     0.127 C 
ENDROOT
BRANCH   1   2
ATOM      2  C   UNL     1       5.250   1.123   1.583  1.00  0.00     0.303 C 
ATOM      3  O   UNL     1       5.065   0.248   2.432  1.00  0.00    -0.252 OA
BRANCH   2   4
ATOM      4  O   UNL     1       4.223   2.062   1.399  1.00  0.00    -0.481 OA
ATOM      5  H   UNL     1       3.420   1.967   2.002  1.00  0.00     0.296 HD
ENDBRANCH   2   4
ENDBRANCH   1   2
BRANCH   1   6
ATOM      6  C   UNL     1       6.256   0.821  -0.641  1.00  0.00     0.047 C 
BRANCH   6   7
ATOM      7  C   UNL     1       7.000  -0.361  -1.081  1.00  0.00    -0.043 A 
ATOM      8  C   UNL     1       7.288  -0.579  -2.419  1.00  0.00     0.008 A 
ATOM      9  C   UNL     1       7.401  -1.311  -0.179  1.00  0.00     0.054 A 
ATOM     10  C   UNL     1       7.957  -1.708  -2.838  1.00  0.00     0.051 A 
ATOM     11  C   UNL     1       8.074  -2.451  -0.577  1.00  0.00     0.166 A 
ATOM     12  C   UNL     1       8.354  -2.653  -1.907  1.00  0.00     0.165 A 
ATOM     13  O   UNL     1       8.567  -3.525   0.143  1.00  0.00    -0.454 OA
ATOM     14  O   UNL     1       9.029  -3.872  -1.995  1.00  0.00    -0.454 OA
ATOM     15  C   UNL     1       8.895  -4.573  -0.781  1.00  0.00     0.468 C 
ENDBRANCH   6   7
ENDBRANCH   1   6
TORSDOF 4
ENDMDL
MODEL 4
REMARK VINA RESULT:      -7.4      1.802      5.283
REMARK SMILES O=C(O)CCc1ccc2c(c1)OCO2
REMARK SMILES IDX 4 1 2 2 1 3 3 4 5 6 6 7 7 8 11 9 8 10 10 11 9 12 12 13 14 14
REMARK SMILES IDX 13 15
REMARK H PARENT 3 5
REMARK Flexibility Score: inf
ROOT
ATOM      1  C   UNL     1       8.301  -0.332  -2.855  1.00  0.00     0.127 C 
ENDROOT
BRANCH   1   2
ATOM      2  C   UNL     1       8.472  -1.759  -3.075  1.00  0.00     0.303 C 
ATOM      3  O   UNL     1       9.543  -2.367  -3.037  1.00  0.00    -0.252 OA
BRANCH   2   4
ATOM      4  O   UNL     1       7.320  -2.511  -3.354  1.00  0.00    -0.481 OA
ATOM      5  H   UNL     1       6.543  -2.004  -3.749  1.00  0.00     0.296 HD
ENDBRANCH   2   4
ENDBRANCH   1   2
BRANCH   1   6
ATOM      6  C   UNL     1       8.756   0.130  -1.526  1.00  0.00     0.047 C 
BRANCH   6   7
ATOM      7  C   UNL     1       7.791   0.084  -0.425  1.00  0.00    -0.043 A 
ATOM      8  C   UNL     1       7.750  -0.983   0.458  1.00  0.00     0.008 A 
ATOM      9  C   UNL     1       6.870   1.084  -0.260  1.00  0.00     0.054 A 
ATOM     10  C   UNL     1       6.819  -1.045   1.471  1.00  0.00     0.051 A 
ATOM     11  C   UNL     1       5.927   1.044   0.750  1.00  0.00     0.166 A 
ATOM     12  C   UNL     1       5.899  -0.020   1.619  1.00  0.00     0.165 A 
ATOM     13  O   UNL     1       4.919   1.924   1.101  1.00  0.00    -0.454 OA
ATOM     14  O   UNL     1       4.854   0.219   2.513  1.00  0.00    -0.454 OA
ATOM     15  C   UNL     1       4.040   1.258   2.020  1.00  0.00     0.468 C 
ENDBRANCH   6   7
ENDBRANCH   1   6
TORSDOF 4
ENDMDL
MODEL 5
REMARK VINA RESULT:      -7.4      0.976      2.124
REMARK SMILES O=C(O)CCc1ccc2c(c1)OCO2
REMARK SMILES IDX 4 1 2 2 1 3 3 4 5 6 6 7 7 8 11 9 8 10 10 11 9 12 12 13 14 14
REMARK SMILES IDX 13 15
REMARK H PARENT 3 5
REMARK Flexibility Score: inf
ROOT
ATOM      1  C   UNL     1       5.447   2.656   0.100  1.00  0.00     0.127 C 
ENDROOT
BRANCH   1   2
ATOM      2  C   UNL     1       6.132   3.685   0.866  1.00  0.00     0.303 C 
ATOM      3  O   UNL     1       6.131   3.785   2.094  1.00  0.00    -0.252 OA
BRANCH   2   4
ATOM      4  O   UNL     1       6.858   4.648   0.147  1.00  0.00    -0.481 OA
ATOM      5  H   UNL     1       6.469   4.927  -0.740  1.00  0.00     0.296 HD
ENDBRANCH   2   4
ENDBRANCH   1   2
BRANCH   1   6
ATOM      6  C   UNL     1       5.461   1.323   0.738  1.00  0.00     0.047 C 
BRANCH   6   7
ATOM      7  C   UNL     1       6.286   0.284   0.118  1.00  0.00    -0.043 A 
ATOM      8  C   UNL     1       6.513   0.259  -1.249  1.00  0.00     0.008 A 
ATOM      9  C   UNL     1       6.829  -0.722   0.872  1.00  0.00     0.054 A 
ATOM     10  C   UNL     1       7.258  -0.738  -1.838  1.00  0.00     0.051 A 
ATOM     11  C   UNL     1       7.581  -1.732   0.303  1.00  0.00     0.166 A 
ATOM     12  C   UNL     1       7.798  -1.744  -1.053  1.00  0.00     0.165 A 
ATOM     13  O   UNL     1       8.216  -2.830   0.858  1.00  0.00    -0.454 OA
ATOM     14  O   UNL     1       8.579  -2.868  -1.327  1.00  0.00    -0.454 OA
ATOM     15  C   UNL     1       8.585  -3.721  -0.205  1.00  0.00     0.468 C 
ENDBRANCH   6   7
ENDBRANCH   1   6
TORSDOF 4
ENDMDL
