@<TRIPOS>MOLECULE
/home/cewinharhar/GITHUB/reincatalyze/data/processed/docking_pred/2023-May-17-1006_maxeplen10_maxtrainstep1000_seadep16_gamma099_lrac9e-4_lrcr1e-3_sub6/f6e3ea477952fa895fac814ddb6280364cb1460b_ligand_6.pdbqt
 15 16 0 0 0
SMALL
GASTEIGER

@<TRIPOS>ATOM
      1  C          8.3010   -0.3320   -2.8550 C.3     1  UNL1        0.1270
      2  C          8.4720   -1.7590   -3.0750 C.2     1  UNL1        0.3030
      3  O          9.5430   -2.3670   -3.0370 O.2     1  UNL1       -0.2520
      4  O          7.3200   -2.5110   -3.3540 O.3     1  UNL1       -0.4810
      5  H          6.5430   -2.0040   -3.7490 H       1  UNL1        0.2960
      6  C          8.7560    0.1300   -1.5260 C.3     1  UNL1        0.0470
      7  C          7.7910    0.0840   -0.4250 C.2     1  UNL1       -0.0430
      8  C          7.7500   -0.9830    0.4580 C.2     1  UNL1        0.0080
      9  C          6.8700    1.0840   -0.2600 C.2     1  UNL1        0.0540
     10  C          6.8190   -1.0450    1.4710 C.2     1  UNL1        0.0510
     11  C          5.9270    1.0440    0.7500 C.2     1  UNL1        0.1660
     12  C          5.8990   -0.0200    1.6190 C.2     1  UNL1        0.1650
     13  O          4.9190    1.9240    1.1010 O.2     1  UNL1       -0.4540
     14  O          4.8540    0.2190    2.5130 O.2     1  UNL1       -0.4540
     15  C          4.0400    1.2580    2.0200 C.3     1  UNL1        0.4680
@<TRIPOS>BOND
     1     5     4    1
     2     4     2    1
     3     2     3    2
     4     2     1    1
     5     1     6    1
     6     6     7    1
     7     7     9    2
     8     7     8    1
     9     9    11    1
    10     8    10    2
    11    11    13    1
    12    11    12    2
    13    13    15    1
    14    10    12    1
    15    12    14    1
    16    15    14    1
