@<TRIPOS>MOLECULE
/home/cewinharhar/GITHUB/reincatalyze/data/processed/docking_pred/2023-May-17-1006_maxeplen10_maxtrainstep1000_seadep16_gamma099_lrac9e-4_lrcr1e-3_sub6/f6e3ea477952fa895fac814ddb6280364cb1460b_ligand_6.pdbqt
 15 16 0 0 0
SMALL
GASTEIGER

@<TRIPOS>ATOM
      1  C          6.4390    1.2640    0.7580 C.3     1  UNL1        0.1270
      2  C          5.2500    1.1230    1.5830 C.2     1  UNL1        0.3030
      3  O          5.0650    0.2480    2.4320 O.2     1  UNL1       -0.2520
      4  O          4.2230    2.0620    1.3990 O.3     1  UNL1       -0.4810
      5  H          3.4200    1.9670    2.0020 H       1  UNL1        0.2960
      6  C          6.2560    0.8210   -0.6410 C.3     1  UNL1        0.0470
      7  C          7.0000   -0.3610   -1.0810 C.2     1  UNL1       -0.0430
      8  C          7.2880   -0.5790   -2.4190 C.2     1  UNL1        0.0080
      9  C          7.4010   -1.3110   -0.1790 C.2     1  UNL1        0.0540
     10  C          7.9570   -1.7080   -2.8380 C.2     1  UNL1        0.0510
     11  C          8.0740   -2.4510   -0.5770 C.2     1  UNL1        0.1660
     12  C          8.3540   -2.6530   -1.9070 C.2     1  UNL1        0.1650
     13  O          8.5670   -3.5250    0.1430 O.2     1  UNL1       -0.4540
     14  O          9.0290   -3.8720   -1.9950 O.2     1  UNL1       -0.4540
     15  C          8.8950   -4.5730   -0.7810 C.3     1  UNL1        0.4680
@<TRIPOS>BOND
     1    10     8    1
     2    10    12    2
     3     8     7    2
     4    14    12    1
     5    14    15    1
     6    12    11    1
     7     7     6    1
     8     7     9    1
     9    15    13    1
    10     6     1    1
    11    11     9    2
    12    11    13    1
    13     1     2    1
    14     4     2    1
    15     4     5    1
    16     2     3    2
