@<TRIPOS>MOLECULE
/home/cewinharhar/GITHUB/reincatalyze/data/processed/docking_pred/2023-May-17-1006_maxeplen10_maxtrainstep1000_seadep16_gamma099_lrac9e-4_lrcr1e-3_sub6/f6e3ea477952fa895fac814ddb6280364cb1460b_ligand_6.pdbqt
 15 16 0 0 0
SMALL
GASTEIGER

@<TRIPOS>ATOM
      1  C          5.4470    2.6560    0.1000 C.3     1  UNL1        0.1270
      2  C          6.1320    3.6850    0.8660 C.2     1  UNL1        0.3030
      3  O          6.1310    3.7850    2.0940 O.2     1  UNL1       -0.2520
      4  O          6.8580    4.6480    0.1470 O.3     1  UNL1       -0.4810
      5  H          6.4690    4.9270   -0.7400 H       1  UNL1        0.2960
      6  C          5.4610    1.3230    0.7380 C.3     1  UNL1        0.0470
      7  C          6.2860    0.2840    0.1180 C.2     1  UNL1       -0.0430
      8  C          6.5130    0.2590   -1.2490 C.2     1  UNL1        0.0080
      9  C          6.8290   -0.7220    0.8720 C.2     1  UNL1        0.0540
     10  C          7.2580   -0.7380   -1.8380 C.2     1  UNL1        0.0510
     11  C          7.5810   -1.7320    0.3030 C.2     1  UNL1        0.1660
     12  C          7.7980   -1.7440   -1.0530 C.2     1  UNL1        0.1650
     13  O          8.2160   -2.8300    0.8580 O.2     1  UNL1       -0.4540
     14  O          8.5790   -2.8680   -1.3270 O.2     1  UNL1       -0.4540
     15  C          8.5850   -3.7210   -0.2050 C.3     1  UNL1        0.4680
@<TRIPOS>BOND
     1    10     8    1
     2    10    12    2
     3    14    12    1
     4    14    15    1
     5     8     7    2
     6    12    11    1
     7     5     4    1
     8    15    13    1
     9     1     6    1
    10     1     2    1
    11     7     6    1
    12     7     9    1
    13     4     2    1
    14    11    13    1
    15    11     9    2
    16     2     3    2
