@<TRIPOS>MOLECULE
/home/cewinharhar/GITHUB/reincatalyze/data/processed/docking_pred/2023-May-17-1006_maxeplen10_maxtrainstep1000_seadep16_gamma099_lrac9e-4_lrcr1e-3_sub6/f74925e0f2dbd9eb14447f51d5c862455f02ecd6_ligand_6.pdbqt
 15 16 0 0 0
SMALL
GASTEIGER

@<TRIPOS>ATOM
      1  C          8.2930   -0.3220   -2.8640 C.3     1  UNL1        0.1270
      2  C          8.4700   -1.7510   -3.0720 C.2     1  UNL1        0.3030
      3  O          9.5430   -2.3560   -3.0170 O.2     1  UNL1       -0.2520
      4  O          7.3240   -2.5080   -3.3590 O.3     1  UNL1       -0.4810
      5  H          6.4420   -2.0990   -3.0920 H       1  UNL1        0.2960
      6  C          8.7500    0.1540   -1.5410 C.3     1  UNL1        0.0470
      7  C          7.7890    0.1140   -0.4380 C.2     1  UNL1       -0.0430
      8  C          7.7550   -0.9460    0.4560 C.2     1  UNL1        0.0080
      9  C          6.8630    1.1110   -0.2780 C.2     1  UNL1        0.0540
     10  C          6.8280   -1.0030    1.4720 C.2     1  UNL1        0.0510
     11  C          5.9240    1.0750    0.7350 C.2     1  UNL1        0.1660
     12  C          5.9030    0.0190    1.6140 C.2     1  UNL1        0.1650
     13  O          4.9130    1.9540    1.0820 O.2     1  UNL1       -0.4540
     14  O          4.8600    0.2610    2.5090 O.2     1  UNL1       -0.4540
     15  C          4.0400    1.2920    2.0090 C.3     1  UNL1        0.4680
@<TRIPOS>BOND
     1     4     5    1
     2     4     2    1
     3     2     3    2
     4     2     1    1
     5     1     6    1
     6     6     7    1
     7     7     9    2
     8     7     8    1
     9     9    11    1
    10     8    10    2
    11    11    13    1
    12    11    12    2
    13    13    15    1
    14    10    12    1
    15    12    14    1
    16    15    14    1
