MODEL 1
REMARK VINA RESULT:      -7.6      0.000      0.000
REMARK SMILES O=C(O)CCc1ccc2c(c1)OCO2
REMARK SMILES IDX 4 1 2 2 1 3 3 4 5 6 6 7 7 8 11 9 8 10 10 11 9 12 12 13 14 14
REMARK SMILES IDX 13 15
REMARK H PARENT 3 5
REMARK Flexibility Score: inf
ROOT
ATOM      1  C   UNL     1       5.396   2.872   0.117  1.00  0.00     0.127 C 
ENDROOT
BRANCH   1   2
ATOM      2  C   UNL     1       6.222   3.848   0.810  1.00  0.00     0.303 C 
ATOM      3  O   UNL     1       6.836   4.775   0.278  1.00  0.00    -0.252 OA
BRANCH   2   4
ATOM      4  O   UNL     1       6.332   3.726   2.204  1.00  0.00    -0.481 OA
ATOM      5  H   UNL     1       5.489   3.471   2.696  1.00  0.00     0.296 HD
ENDBRANCH   2   4
ENDBRANCH   1   2
BRANCH   1   6
ATOM      6  C   UNL     1       5.319   1.561   0.796  1.00  0.00     0.047 C 
BRANCH   6   7
ATOM      7  C   UNL     1       6.095   0.457   0.229  1.00  0.00    -0.043 A 
ATOM      8  C   UNL     1       6.517  -0.609   1.009  1.00  0.00     0.008 A 
ATOM      9  C   UNL     1       6.463   0.465  -1.091  1.00  0.00     0.054 A 
ATOM     10  C   UNL     1       7.278  -1.630   0.485  1.00  0.00     0.051 A 
ATOM     11  C   UNL     1       7.226  -0.549  -1.639  1.00  0.00     0.166 A 
ATOM     12  C   UNL     1       7.636  -1.600  -0.854  1.00  0.00     0.165 A 
ATOM     13  O   UNL     1       7.706  -0.747  -2.921  1.00  0.00    -0.454 OA
ATOM     14  O   UNL     1       8.378  -2.450  -1.674  1.00  0.00    -0.454 OA
ATOM     15  C   UNL     1       8.696  -1.786  -2.875  1.00  0.00     0.468 C 
ENDBRANCH   6   7
ENDBRANCH   1   6
TORSDOF 4
ENDMDL
MODEL 2
REMARK VINA RESULT:      -7.6      2.116      2.519
REMARK SMILES O=C(O)CCc1ccc2c(c1)OCO2
REMARK SMILES IDX 4 1 2 2 1 3 3 4 5 6 6 7 7 8 11 9 8 10 10 11 9 12 12 13 14 14
REMARK SMILES IDX 13 15
REMARK H PARENT 3 5
REMARK Flexibility Score: inf
ROOT
ATOM      1  C   UNL     1       4.701   1.877   0.675  1.00  0.00     0.127 C 
ENDROOT
BRANCH   1   2
ATOM      2  C   UNL     1       4.410   1.169   1.912  1.00  0.00     0.303 C 
ATOM      3  O   UNL     1       5.150   0.350   2.460  1.00  0.00    -0.252 OA
BRANCH   2   4
ATOM      4  O   UNL     1       3.183   1.441   2.537  1.00  0.00    -0.481 OA
ATOM      5  H   UNL     1       3.127   2.306   3.052  1.00  0.00     0.296 HD
ENDBRANCH   2   4
ENDBRANCH   1   2
BRANCH   1   6
ATOM      6  C   UNL     1       6.123   2.247   0.515  1.00  0.00     0.047 C 
BRANCH   6   7
ATOM      7  C   UNL     1       6.978   1.337  -0.251  1.00  0.00    -0.043 A 
ATOM      8  C   UNL     1       8.340   1.560  -0.383  1.00  0.00     0.008 A 
ATOM      9  C   UNL     1       6.444   0.253  -0.897  1.00  0.00     0.054 A 
ATOM     10  C   UNL     1       9.138   0.725  -1.133  1.00  0.00     0.051 A 
ATOM     11  C   UNL     1       7.226  -0.599  -1.654  1.00  0.00     0.166 A 
ATOM     12  C   UNL     1       8.575  -0.366  -1.775  1.00  0.00     0.165 A 
ATOM     13  O   UNL     1       6.910  -1.734  -2.380  1.00  0.00    -0.454 OA
ATOM     14  O   UNL     1       9.087  -1.378  -2.589  1.00  0.00    -0.454 OA
ATOM     15  C   UNL     1       8.026  -2.052  -3.226  1.00  0.00     0.468 C 
ENDBRANCH   6   7
ENDBRANCH   1   6
TORSDOF 4
ENDMDL
MODEL 3
REMARK VINA RESULT:      -7.5      1.953      2.854
REMARK SMILES O=C(O)CCc1ccc2c(c1)OCO2
REMARK SMILES IDX 4 1 2 2 1 3 3 4 5 6 6 7 7 8 11 9 8 10 10 11 9 12 12 13 14 14
REMARK SMILES IDX 13 15
REMARK H PARENT 3 5
REMARK Flexibility Score: inf
ROOT
ATOM      1  C   UNL     1       6.411   1.361   0.642  1.00  0.00     0.127 C 
ENDROOT
BRANCH   1   2
ATOM      2  C   UNL     1       5.207   1.338   1.457  1.00  0.00     0.303 C 
ATOM      3  O   UNL     1       4.257   2.115   1.355  1.00  0.00    -0.252 OA
BRANCH   2   4
ATOM      4  O   UNL     1       5.118   0.346   2.446  1.00  0.00    -0.481 OA
ATOM      5  H   UNL     1       4.863  -0.577   2.130  1.00  0.00     0.296 HD
ENDBRANCH   2   4
ENDBRANCH   1   2
BRANCH   1   6
ATOM      6  C   UNL     1       6.209   0.880  -0.742  1.00  0.00     0.047 C 
BRANCH   6   7
ATOM      7  C   UNL     1       6.970  -0.296  -1.168  1.00  0.00    -0.043 A 
ATOM      8  C   UNL     1       7.273  -0.519  -2.502  1.00  0.00     0.008 A 
ATOM      9  C   UNL     1       7.374  -1.236  -0.258  1.00  0.00     0.054 A 
ATOM     10  C   UNL     1       7.958  -1.643  -2.909  1.00  0.00     0.051 A 
ATOM     11  C   UNL     1       8.063  -2.371  -0.642  1.00  0.00     0.166 A 
ATOM     12  C   UNL     1       8.357  -2.578  -1.968  1.00  0.00     0.165 A 
ATOM     13  O   UNL     1       8.562  -3.435   0.089  1.00  0.00    -0.454 OA
ATOM     14  O   UNL     1       9.046  -3.790  -2.044  1.00  0.00    -0.454 OA
ATOM     15  C   UNL     1       8.910  -4.485  -0.826  1.00  0.00     0.468 C 
ENDBRANCH   6   7
ENDBRANCH   1   6
TORSDOF 4
ENDMDL
MODEL 4
REMARK VINA RESULT:      -7.5      1.795      5.286
REMARK SMILES O=C(O)CCc1ccc2c(c1)OCO2
REMARK SMILES IDX 4 1 2 2 1 3 3 4 5 6 6 7 7 8 11 9 8 10 10 11 9 12 12 13 14 14
REMARK SMILES IDX 13 15
REMARK H PARENT 3 5
REMARK Flexibility Score: inf
ROOT
ATOM      1  C   UNL     1       8.293  -0.322  -2.864  1.00  0.00     0.127 C 
ENDROOT
BRANCH   1   2
ATOM      2  C   UNL     1       8.470  -1.751  -3.072  1.00  0.00     0.303 C 
ATOM      3  O   UNL     1       9.543  -2.356  -3.017  1.00  0.00    -0.252 OA
BRANCH   2   4
ATOM      4  O   UNL     1       7.324  -2.508  -3.359  1.00  0.00    -0.481 OA
ATOM      5  H   UNL     1       6.442  -2.099  -3.092  1.00  0.00     0.296 HD
ENDBRANCH   2   4
ENDBRANCH   1   2
BRANCH   1   6
ATOM      6  C   UNL     1       8.750   0.154  -1.541  1.00  0.00     0.047 C 
BRANCH   6   7
ATOM      7  C   UNL     1       7.789   0.114  -0.438  1.00  0.00    -0.043 A 
ATOM      8  C   UNL     1       7.755  -0.946   0.456  1.00  0.00     0.008 A 
ATOM      9  C   UNL     1       6.863   1.111  -0.278  1.00  0.00     0.054 A 
ATOM     10  C   UNL     1       6.828  -1.003   1.472  1.00  0.00     0.051 A 
ATOM     11  C   UNL     1       5.924   1.075   0.735  1.00  0.00     0.166 A 
ATOM     12  C   UNL     1       5.903   0.019   1.614  1.00  0.00     0.165 A 
ATOM     13  O   UNL     1       4.913   1.954   1.082  1.00  0.00    -0.454 OA
ATOM     14  O   UNL     1       4.860   0.261   2.509  1.00  0.00    -0.454 OA
ATOM     15  C   UNL     1       4.040   1.292   2.009  1.00  0.00     0.468 C 
ENDBRANCH   6   7
ENDBRANCH   1   6
TORSDOF 4
ENDMDL
