@<TRIPOS>MOLECULE
/home/cewinharhar/GITHUB/reincatalyze/data/processed/docking_pred/2023-May-17-1006_maxeplen10_maxtrainstep1000_seadep16_gamma099_lrac9e-4_lrcr1e-3_sub6/f74925e0f2dbd9eb14447f51d5c862455f02ecd6_ligand_6.pdbqt
 15 16 0 0 0
SMALL
GASTEIGER

@<TRIPOS>ATOM
      1  C          6.4110    1.3610    0.6420 C.3     1  UNL1        0.1270
      2  C          5.2070    1.3380    1.4570 C.2     1  UNL1        0.3030
      3  O          4.2570    2.1150    1.3550 O.2     1  UNL1       -0.2520
      4  O          5.1180    0.3460    2.4460 O.3     1  UNL1       -0.4810
      5  H          4.8630   -0.5770    2.1300 H       1  UNL1        0.2960
      6  C          6.2090    0.8800   -0.7420 C.3     1  UNL1        0.0470
      7  C          6.9700   -0.2960   -1.1680 C.2     1  UNL1       -0.0430
      8  C          7.2730   -0.5190   -2.5020 C.2     1  UNL1        0.0080
      9  C          7.3740   -1.2360   -0.2580 C.2     1  UNL1        0.0540
     10  C          7.9580   -1.6430   -2.9090 C.2     1  UNL1        0.0510
     11  C          8.0630   -2.3710   -0.6420 C.2     1  UNL1        0.1660
     12  C          8.3570   -2.5780   -1.9680 C.2     1  UNL1        0.1650
     13  O          8.5620   -3.4350    0.0890 O.2     1  UNL1       -0.4540
     14  O          9.0460   -3.7900   -2.0440 O.2     1  UNL1       -0.4540
     15  C          8.9100   -4.4850   -0.8260 C.3     1  UNL1        0.4680
@<TRIPOS>BOND
     1    10     8    1
     2    10    12    2
     3     8     7    2
     4    14    12    1
     5    14    15    1
     6    12    11    1
     7     7     6    1
     8     7     9    1
     9    15    13    1
    10     6     1    1
    11    11     9    2
    12    11    13    1
    13     1     2    1
    14     3     2    2
    15     2     4    1
    16     5     4    1
