@<TRIPOS>MOLECULE
/home/cewinharhar/GITHUB/reincatalyze/data/processed/docking_pred/2023-May-17-1006_maxeplen10_maxtrainstep1000_seadep16_gamma099_lrac9e-4_lrcr1e-3_sub6/f74925e0f2dbd9eb14447f51d5c862455f02ecd6_ligand_6.pdbqt
 15 16 0 0 0
SMALL
GASTEIGER

@<TRIPOS>ATOM
      1  C          4.7010    1.8770    0.6750 C.3     1  UNL1        0.1270
      2  C          4.4100    1.1690    1.9120 C.2     1  UNL1        0.3030
      3  O          5.1500    0.3500    2.4600 O.2     1  UNL1       -0.2520
      4  O          3.1830    1.4410    2.5370 O.3     1  UNL1       -0.4810
      5  H          3.1270    2.3060    3.0520 H       1  UNL1        0.2960
      6  C          6.1230    2.2470    0.5150 C.3     1  UNL1        0.0470
      7  C          6.9780    1.3370   -0.2510 C.2     1  UNL1       -0.0430
      8  C          8.3400    1.5600   -0.3830 C.2     1  UNL1        0.0080
      9  C          6.4440    0.2530   -0.8970 C.2     1  UNL1        0.0540
     10  C          9.1380    0.7250   -1.1330 C.2     1  UNL1        0.0510
     11  C          7.2260   -0.5990   -1.6540 C.2     1  UNL1        0.1660
     12  C          8.5750   -0.3660   -1.7750 C.2     1  UNL1        0.1650
     13  O          6.9100   -1.7340   -2.3800 O.2     1  UNL1       -0.4540
     14  O          9.0870   -1.3780   -2.5890 O.2     1  UNL1       -0.4540
     15  C          8.0260   -2.0520   -3.2260 C.3     1  UNL1        0.4680
@<TRIPOS>BOND
     1    15    14    1
     2    15    13    1
     3    14    12    1
     4    13    11    1
     5    12    11    2
     6    12    10    1
     7    11     9    1
     8    10     8    2
     9     9     7    2
    10     8     7    1
    11     7     6    1
    12     6     1    1
    13     1     2    1
    14     2     3    2
    15     2     4    1
    16     4     5    1
