@<TRIPOS>MOLECULE
/home/cewinharhar/GITHUB/reincatalyze/data/processed/docking_pred/2023-May-17-1006_maxeplen10_maxtrainstep1000_seadep16_gamma099_lrac9e-4_lrcr1e-3_sub6/f74925e0f2dbd9eb14447f51d5c862455f02ecd6_ligand_6.pdbqt
 15 16 0 0 0
SMALL
GASTEIGER

@<TRIPOS>ATOM
      1  C          8.2350   -0.9200   -2.0210 C.3     1  UNL1        0.1270
      2  C          8.4420   -2.0640   -2.8950 C.2     1  UNL1        0.3030
      3  O          9.5250   -2.6070   -3.1210 O.2     1  UNL1       -0.2520
      4  O          7.3130   -2.5960   -3.5380 O.3     1  UNL1       -0.4810
      5  H          6.8640   -3.3730   -3.0780 H       1  UNL1        0.2960
      6  C          7.2540   -1.1600   -0.9410 C.3     1  UNL1        0.0470
      7  C          6.8180   -0.0050   -0.1530 C.2     1  UNL1       -0.0430
      8  C          5.8730   -0.1290    0.8540 C.2     1  UNL1        0.0080
      9  C          7.3060    1.2470   -0.4170 C.2     1  UNL1        0.0540
     10  C          5.4360    0.9620    1.5720 C.2     1  UNL1        0.0510
     11  C          6.8820    2.3570    0.2900 C.2     1  UNL1        0.1660
     12  C          5.9460    2.2180    1.2870 C.2     1  UNL1        0.1650
     13  O          7.2310    3.6930    0.1990 O.2     1  UNL1       -0.4540
     14  O          5.7230    3.4930    1.8100 O.2     1  UNL1       -0.4540
     15  C          6.2730    4.4590    0.9450 C.3     1  UNL1        0.4680
@<TRIPOS>BOND
     1     4     5    1
     2     4     2    1
     3     3     2    2
     4     2     1    1
     5     1     6    1
     6     6     7    1
     7     9     7    2
     8     9    11    1
     9     7     8    1
    10    13    11    1
    11    13    15    1
    12    11    12    2
    13     8    10    2
    14    15    14    1
    15    12    10    1
    16    12    14    1
