@<TRIPOS>MOLECULE
/home/cewinharhar/GITHUB/reincatalyze/data/processed/docking_pred/2023-May-17-1006_maxeplen10_maxtrainstep1000_seadep16_gamma099_lrac9e-4_lrcr1e-3_sub6/f74925e0f2dbd9eb14447f51d5c862455f02ecd6_ligand_6.pdbqt
 15 16 0 0 0
SMALL
GASTEIGER

@<TRIPOS>ATOM
      1  C          5.3960    2.8720    0.1170 C.3     1  UNL1        0.1270
      2  C          6.2220    3.8480    0.8100 C.2     1  UNL1        0.3030
      3  O          6.8360    4.7750    0.2780 O.2     1  UNL1       -0.2520
      4  O          6.3320    3.7260    2.2040 O.3     1  UNL1       -0.4810
      5  H          5.4890    3.4710    2.6960 H       1  UNL1        0.2960
      6  C          5.3190    1.5610    0.7960 C.3     1  UNL1        0.0470
      7  C          6.0950    0.4570    0.2290 C.2     1  UNL1       -0.0430
      8  C          6.5170   -0.6090    1.0090 C.2     1  UNL1        0.0080
      9  C          6.4630    0.4650   -1.0910 C.2     1  UNL1        0.0540
     10  C          7.2780   -1.6300    0.4850 C.2     1  UNL1        0.0510
     11  C          7.2260   -0.5490   -1.6390 C.2     1  UNL1        0.1660
     12  C          7.6360   -1.6000   -0.8540 C.2     1  UNL1        0.1650
     13  O          7.7060   -0.7470   -2.9210 O.2     1  UNL1       -0.4540
     14  O          8.3780   -2.4500   -1.6740 O.2     1  UNL1       -0.4540
     15  C          8.6960   -1.7860   -2.8750 C.3     1  UNL1        0.4680
@<TRIPOS>BOND
     1    13    15    1
     2    13    11    1
     3    15    14    1
     4    14    12    1
     5    11     9    1
     6    11    12    2
     7     9     7    2
     8    12    10    1
     9     1     6    1
    10     1     2    1
    11     7     6    1
    12     7     8    1
    13     3     2    2
    14    10     8    2
    15     2     4    1
    16     4     5    1
