@<TRIPOS>MOLECULE
/home/cewinharhar/GITHUB/reincatalyze/data/processed/docking_pred/2023-May-17-1006_maxeplen10_maxtrainstep1000_seadep16_gamma099_lrac9e-4_lrcr1e-3_sub6/f9550a52c30547fdb3e6e224a3b8a38c5560e948_ligand_6.pdbqt
 15 16 0 0 0
SMALL
GASTEIGER

@<TRIPOS>ATOM
      1  C          6.3790    1.3120    0.6770 C.3     1  UNL1        0.1270
      2  C          5.2670    1.0990    1.5910 C.2     1  UNL1        0.3030
      3  O          5.1850    0.1920    2.4210 O.2     1  UNL1       -0.2520
      4  O          4.1960    2.0040    1.5250 O.3     1  UNL1       -0.4810
      5  H          4.3900    2.9460    1.8260 H       1  UNL1        0.2960
      6  C          6.1330    0.8120   -0.6930 C.3     1  UNL1        0.0470
      7  C          6.9240   -0.3330   -1.1480 C.2     1  UNL1       -0.0430
      8  C          7.2560   -0.5000   -2.4840 C.2     1  UNL1        0.0080
      9  C          7.3290   -1.3000   -0.2660 C.2     1  UNL1        0.0540
     10  C          7.9690   -1.5950   -2.9190 C.2     1  UNL1        0.0510
     11  C          8.0460   -2.4060   -0.6790 C.2     1  UNL1        0.1660
     12  C          8.3690   -2.5580   -2.0060 C.2     1  UNL1        0.1650
     13  O          8.5510   -3.4880    0.0210 O.2     1  UNL1       -0.4540
     14  O          9.0820   -3.7530   -2.1140 O.2     1  UNL1       -0.4540
     15  C          8.9350   -4.4960   -0.9260 C.3     1  UNL1        0.4680
@<TRIPOS>BOND
     1    10     8    1
     2    10    12    2
     3     8     7    2
     4    14    12    1
     5    14    15    1
     6    12    11    1
     7     7     6    1
     8     7     9    1
     9    15    13    1
    10     6     1    1
    11    11     9    2
    12    11    13    1
    13     1     2    1
    14     4     2    1
    15     4     5    1
    16     2     3    2
