MODEL 1
REMARK VINA RESULT:      -7.6      0.000      0.000
REMARK SMILES O=C(O)CCc1ccc2c(c1)OCO2
REMARK SMILES IDX 4 1 2 2 1 3 3 4 5 6 6 7 7 8 11 9 8 10 10 11 9 12 12 13 14 14
REMARK SMILES IDX 13 15
REMARK H PARENT 3 5
REMARK Flexibility Score: inf
ROOT
ATOM      1  C   UNL     1       5.419   2.874   0.110  1.00  0.00     0.127 C 
ENDROOT
BRANCH   1   2
ATOM      2  C   UNL     1       6.247   3.866   0.779  1.00  0.00     0.303 C 
ATOM      3  O   UNL     1       6.909   4.742   0.219  1.00  0.00    -0.252 OA
BRANCH   2   4
ATOM      4  O   UNL     1       6.297   3.824   2.181  1.00  0.00    -0.481 OA
ATOM      5  H   UNL     1       5.418   3.685   2.654  1.00  0.00     0.296 HD
ENDBRANCH   2   4
ENDBRANCH   1   2
BRANCH   1   6
ATOM      6  C   UNL     1       5.365   1.570   0.805  1.00  0.00     0.047 C 
BRANCH   6   7
ATOM      7  C   UNL     1       6.135   0.465   0.232  1.00  0.00    -0.043 A 
ATOM      8  C   UNL     1       6.573  -0.594   1.012  1.00  0.00     0.008 A 
ATOM      9  C   UNL     1       6.481   0.465  -1.093  1.00  0.00     0.054 A 
ATOM     10  C   UNL     1       7.328  -1.617   0.482  1.00  0.00     0.051 A 
ATOM     11  C   UNL     1       7.238  -0.550  -1.647  1.00  0.00     0.166 A 
ATOM     12  C   UNL     1       7.664  -1.594  -0.862  1.00  0.00     0.165 A 
ATOM     13  O   UNL     1       7.697  -0.755  -2.936  1.00  0.00    -0.454 OA
ATOM     14  O   UNL     1       8.395  -2.448  -1.689  1.00  0.00    -0.454 OA
ATOM     15  C   UNL     1       8.690  -1.791  -2.900  1.00  0.00     0.468 C 
ENDBRANCH   6   7
ENDBRANCH   1   6
TORSDOF 4
ENDMDL
MODEL 2
REMARK VINA RESULT:      -7.6      2.126      2.516
REMARK SMILES O=C(O)CCc1ccc2c(c1)OCO2
REMARK SMILES IDX 4 1 2 2 1 3 3 4 5 6 6 7 7 8 11 9 8 10 10 11 9 12 12 13 14 14
REMARK SMILES IDX 13 15
REMARK H PARENT 3 5
REMARK Flexibility Score: inf
ROOT
ATOM      1  C   UNL     1       4.663   1.864   0.667  1.00  0.00     0.127 C 
ENDROOT
BRANCH   1   2
ATOM      2  C   UNL     1       4.396   1.167   1.915  1.00  0.00     0.303 C 
ATOM      3  O   UNL     1       5.151   0.361   2.462  1.00  0.00    -0.252 OA
BRANCH   2   4
ATOM      4  O   UNL     1       3.174   1.432   2.552  1.00  0.00    -0.481 OA
ATOM      5  H   UNL     1       3.199   1.481   3.559  1.00  0.00     0.296 HD
ENDBRANCH   2   4
ENDBRANCH   1   2
BRANCH   1   6
ATOM      6  C   UNL     1       6.077   2.257   0.490  1.00  0.00     0.047 C 
BRANCH   6   7
ATOM      7  C   UNL     1       6.944   1.348  -0.263  1.00  0.00    -0.043 A 
ATOM      8  C   UNL     1       8.307   1.574  -0.378  1.00  0.00     0.008 A 
ATOM      9  C   UNL     1       6.422   0.260  -0.912  1.00  0.00     0.054 A 
ATOM     10  C   UNL     1       9.117   0.740  -1.115  1.00  0.00     0.051 A 
ATOM     11  C   UNL     1       7.216  -0.591  -1.657  1.00  0.00     0.166 A 
ATOM     12  C   UNL     1       8.565  -0.355  -1.761  1.00  0.00     0.165 A 
ATOM     13  O   UNL     1       6.913  -1.730  -2.383  1.00  0.00    -0.454 OA
ATOM     14  O   UNL     1       9.091  -1.367  -2.565  1.00  0.00    -0.454 OA
ATOM     15  C   UNL     1       8.041  -2.046  -3.214  1.00  0.00     0.468 C 
ENDBRANCH   6   7
ENDBRANCH   1   6
TORSDOF 4
ENDMDL
MODEL 3
REMARK VINA RESULT:      -7.5      1.800      5.284
REMARK SMILES O=C(O)CCc1ccc2c(c1)OCO2
REMARK SMILES IDX 4 1 2 2 1 3 3 4 5 6 6 7 7 8 11 9 8 10 10 11 9 12 12 13 14 14
REMARK SMILES IDX 13 15
REMARK H PARENT 3 5
REMARK Flexibility Score: inf
ROOT
ATOM      1  C   UNL     1       8.301  -0.320  -2.861  1.00  0.00     0.127 C 
ENDROOT
BRANCH   1   2
ATOM      2  C   UNL     1       8.468  -1.749  -3.076  1.00  0.00     0.303 C 
ATOM      3  O   UNL     1       9.537  -2.360  -3.034  1.00  0.00    -0.252 OA
BRANCH   2   4
ATOM      4  O   UNL     1       7.314  -2.498  -3.356  1.00  0.00    -0.481 OA
ATOM      5  H   UNL     1       6.574  -2.447  -2.673  1.00  0.00     0.296 HD
ENDBRANCH   2   4
ENDBRANCH   1   2
BRANCH   1   6
ATOM      6  C   UNL     1       8.760   0.145  -1.535  1.00  0.00     0.047 C 
BRANCH   6   7
ATOM      7  C   UNL     1       7.796   0.109  -0.433  1.00  0.00    -0.043 A 
ATOM      8  C   UNL     1       7.761  -0.947   0.464  1.00  0.00     0.008 A 
ATOM      9  C   UNL     1       6.871   1.107  -0.280  1.00  0.00     0.054 A 
ATOM     10  C   UNL     1       6.831  -0.999   1.479  1.00  0.00     0.051 A 
ATOM     11  C   UNL     1       5.929   1.076   0.731  1.00  0.00     0.166 A 
ATOM     12  C   UNL     1       5.906   0.023   1.614  1.00  0.00     0.165 A 
ATOM     13  O   UNL     1       4.917   1.956   1.072  1.00  0.00    -0.454 OA
ATOM     14  O   UNL     1       4.861   0.269   2.506  1.00  0.00    -0.454 OA
ATOM     15  C   UNL     1       4.042   1.297   2.000  1.00  0.00     0.468 C 
ENDBRANCH   6   7
ENDBRANCH   1   6
TORSDOF 4
ENDMDL
MODEL 4
REMARK VINA RESULT:      -7.4      0.961      2.128
REMARK SMILES O=C(O)CCc1ccc2c(c1)OCO2
REMARK SMILES IDX 4 1 2 2 1 3 3 4 5 6 6 7 7 8 11 9 8 10 10 11 9 12 12 13 14 14
REMARK SMILES IDX 13 15
REMARK H PARENT 3 5
REMARK Flexibility Score: inf
ROOT
ATOM      1  C   UNL     1       5.294   2.808   0.277  1.00  0.00     0.127 C 
ENDROOT
BRANCH   1   2
ATOM      2  C   UNL     1       6.155   3.744   0.983  1.00  0.00     0.303 C 
ATOM      3  O   UNL     1       6.341   3.770   2.201  1.00  0.00    -0.252 OA
BRANCH   2   4
ATOM      4  O   UNL     1       6.834   4.701   0.213  1.00  0.00    -0.481 OA
ATOM      5  H   UNL     1       6.271   5.238  -0.428  1.00  0.00     0.296 HD
ENDBRANCH   2   4
ENDBRANCH   1   2
BRANCH   1   6
ATOM      6  C   UNL     1       5.272   1.452   0.866  1.00  0.00     0.047 C 
BRANCH   6   7
ATOM      7  C   UNL     1       6.125   0.433   0.252  1.00  0.00    -0.043 A 
ATOM      8  C   UNL     1       6.388   0.432  -1.109  1.00  0.00     0.008 A 
ATOM      9  C   UNL     1       6.660  -0.579   1.005  1.00  0.00     0.054 A 
ATOM     10  C   UNL     1       7.161  -0.546  -1.694  1.00  0.00     0.051 A 
ATOM     11  C   UNL     1       7.439  -1.571   0.440  1.00  0.00     0.166 A 
ATOM     12  C   UNL     1       7.693  -1.558  -0.911  1.00  0.00     0.165 A 
ATOM     13  O   UNL     1       8.073  -2.670   0.994  1.00  0.00    -0.454 OA
ATOM     14  O   UNL     1       8.494  -2.669  -1.181  1.00  0.00    -0.454 OA
ATOM     15  C   UNL     1       8.481  -3.539  -0.073  1.00  0.00     0.468 C 
ENDBRANCH   6   7
ENDBRANCH   1   6
TORSDOF 4
ENDMDL
MODEL 5
REMARK VINA RESULT:      -7.4      2.000      2.973
REMARK SMILES O=C(O)CCc1ccc2c(c1)OCO2
REMARK SMILES IDX 4 1 2 2 1 3 3 4 5 6 6 7 7 8 11 9 8 10 10 11 9 12 12 13 14 14
REMARK SMILES IDX 13 15
REMARK H PARENT 3 5
REMARK Flexibility Score: inf
ROOT
ATOM      1  C   UNL     1       6.379   1.312   0.677  1.00  0.00     0.127 C 
ENDROOT
BRANCH   1   2
ATOM      2  C   UNL     1       5.267   1.099   1.591  1.00  0.00     0.303 C 
ATOM      3  O   UNL     1       5.185   0.192   2.421  1.00  0.00    -0.252 OA
BRANCH   2   4
ATOM      4  O   UNL     1       4.196   2.004   1.525  1.00  0.00    -0.481 OA
ATOM      5  H   UNL     1       4.390   2.946   1.826  1.00  0.00     0.296 HD
ENDBRANCH   2   4
ENDBRANCH   1   2
BRANCH   1   6
ATOM      6  C   UNL     1       6.133   0.812  -0.693  1.00  0.00     0.047 C 
BRANCH   6   7
ATOM      7  C   UNL     1       6.924  -0.333  -1.148  1.00  0.00    -0.043 A 
ATOM      8  C   UNL     1       7.256  -0.500  -2.484  1.00  0.00     0.008 A 
ATOM      9  C   UNL     1       7.329  -1.300  -0.266  1.00  0.00     0.054 A 
ATOM     10  C   UNL     1       7.969  -1.595  -2.919  1.00  0.00     0.051 A 
ATOM     11  C   UNL     1       8.046  -2.406  -0.679  1.00  0.00     0.166 A 
ATOM     12  C   UNL     1       8.369  -2.558  -2.006  1.00  0.00     0.165 A 
ATOM     13  O   UNL     1       8.551  -3.488   0.021  1.00  0.00    -0.454 OA
ATOM     14  O   UNL     1       9.082  -3.753  -2.114  1.00  0.00    -0.454 OA
ATOM     15  C   UNL     1       8.935  -4.496  -0.926  1.00  0.00     0.468 C 
ENDBRANCH   6   7
ENDBRANCH   1   6
TORSDOF 4
ENDMDL
