@<TRIPOS>MOLECULE
/home/cewinharhar/GITHUB/reincatalyze/data/processed/docking_pred/2023-May-17-1006_maxeplen10_maxtrainstep1000_seadep16_gamma099_lrac9e-4_lrcr1e-3_sub6/f9550a52c30547fdb3e6e224a3b8a38c5560e948_ligand_6.pdbqt
 15 16 0 0 0
SMALL
GASTEIGER

@<TRIPOS>ATOM
      1  C          5.2940    2.8080    0.2770 C.3     1  UNL1        0.1270
      2  C          6.1550    3.7440    0.9830 C.2     1  UNL1        0.3030
      3  O          6.3410    3.7700    2.2010 O.2     1  UNL1       -0.2520
      4  O          6.8340    4.7010    0.2130 O.3     1  UNL1       -0.4810
      5  H          6.2710    5.2380   -0.4280 H       1  UNL1        0.2960
      6  C          5.2720    1.4520    0.8660 C.3     1  UNL1        0.0470
      7  C          6.1250    0.4330    0.2520 C.2     1  UNL1       -0.0430
      8  C          6.3880    0.4320   -1.1090 C.2     1  UNL1        0.0080
      9  C          6.6600   -0.5790    1.0050 C.2     1  UNL1        0.0540
     10  C          7.1610   -0.5460   -1.6940 C.2     1  UNL1        0.0510
     11  C          7.4390   -1.5710    0.4400 C.2     1  UNL1        0.1660
     12  C          7.6930   -1.5580   -0.9110 C.2     1  UNL1        0.1650
     13  O          8.0730   -2.6700    0.9940 O.2     1  UNL1       -0.4540
     14  O          8.4940   -2.6690   -1.1810 O.2     1  UNL1       -0.4540
     15  C          8.4810   -3.5390   -0.0730 C.3     1  UNL1        0.4680
@<TRIPOS>BOND
     1    10     8    1
     2    10    12    2
     3    14    12    1
     4    14    15    1
     5     8     7    2
     6    12    11    1
     7     5     4    1
     8    15    13    1
     9     4     2    1
    10     7     6    1
    11     7     9    1
    12     1     6    1
    13     1     2    1
    14    11    13    1
    15    11     9    2
    16     2     3    2
