@<TRIPOS>MOLECULE
/home/cewinharhar/GITHUB/reincatalyze/data/processed/docking_pred/2023-May-17-1006_maxeplen10_maxtrainstep1000_seadep16_gamma099_lrac9e-4_lrcr1e-3_sub6/f9550a52c30547fdb3e6e224a3b8a38c5560e948_ligand_6.pdbqt
 15 16 0 0 0
SMALL
GASTEIGER

@<TRIPOS>ATOM
      1  C          8.3010   -0.3200   -2.8610 C.3     1  UNL1        0.1270
      2  C          8.4680   -1.7490   -3.0760 C.2     1  UNL1        0.3030
      3  O          9.5370   -2.3600   -3.0340 O.2     1  UNL1       -0.2520
      4  O          7.3140   -2.4980   -3.3560 O.3     1  UNL1       -0.4810
      5  H          6.5740   -2.4470   -2.6730 H       1  UNL1        0.2960
      6  C          8.7600    0.1450   -1.5350 C.3     1  UNL1        0.0470
      7  C          7.7960    0.1090   -0.4330 C.2     1  UNL1       -0.0430
      8  C          7.7610   -0.9470    0.4640 C.2     1  UNL1        0.0080
      9  C          6.8710    1.1070   -0.2800 C.2     1  UNL1        0.0540
     10  C          6.8310   -0.9990    1.4790 C.2     1  UNL1        0.0510
     11  C          5.9290    1.0760    0.7310 C.2     1  UNL1        0.1660
     12  C          5.9060    0.0230    1.6140 C.2     1  UNL1        0.1650
     13  O          4.9170    1.9560    1.0720 O.2     1  UNL1       -0.4540
     14  O          4.8610    0.2690    2.5060 O.2     1  UNL1       -0.4540
     15  C          4.0420    1.2970    2.0000 C.3     1  UNL1        0.4680
@<TRIPOS>BOND
     1     4     2    1
     2     4     5    1
     3     2     3    2
     4     2     1    1
     5     1     6    1
     6     6     7    1
     7     7     9    2
     8     7     8    1
     9     9    11    1
    10     8    10    2
    11    11    13    1
    12    11    12    2
    13    13    15    1
    14    10    12    1
    15    12    14    1
    16    15    14    1
