@<TRIPOS>MOLECULE
/home/cewinharhar/GITHUB/reincatalyze/data/processed/docking_pred/2023-May-17-1006_maxeplen10_maxtrainstep1000_seadep16_gamma099_lrac9e-4_lrcr1e-3_sub6/f9550a52c30547fdb3e6e224a3b8a38c5560e948_ligand_6.pdbqt
 15 16 0 0 0
SMALL
GASTEIGER

@<TRIPOS>ATOM
      1  C          4.6630    1.8640    0.6670 C.3     1  UNL1        0.1270
      2  C          4.3960    1.1670    1.9150 C.2     1  UNL1        0.3030
      3  O          5.1510    0.3610    2.4620 O.2     1  UNL1       -0.2520
      4  O          3.1740    1.4320    2.5520 O.3     1  UNL1       -0.4810
      5  H          3.1990    1.4810    3.5590 H       1  UNL1        0.2960
      6  C          6.0770    2.2570    0.4900 C.3     1  UNL1        0.0470
      7  C          6.9440    1.3480   -0.2630 C.2     1  UNL1       -0.0430
      8  C          8.3070    1.5740   -0.3780 C.2     1  UNL1        0.0080
      9  C          6.4220    0.2600   -0.9120 C.2     1  UNL1        0.0540
     10  C          9.1170    0.7400   -1.1150 C.2     1  UNL1        0.0510
     11  C          7.2160   -0.5910   -1.6570 C.2     1  UNL1        0.1660
     12  C          8.5650   -0.3550   -1.7610 C.2     1  UNL1        0.1650
     13  O          6.9130   -1.7300   -2.3830 O.2     1  UNL1       -0.4540
     14  O          9.0910   -1.3670   -2.5650 O.2     1  UNL1       -0.4540
     15  C          8.0410   -2.0460   -3.2140 C.3     1  UNL1        0.4680
@<TRIPOS>BOND
     1    15    14    1
     2    15    13    1
     3    14    12    1
     4    13    11    1
     5    12    11    2
     6    12    10    1
     7    11     9    1
     8    10     8    2
     9     9     7    2
    10     8     7    1
    11     7     6    1
    12     6     1    1
    13     1     2    1
    14     2     3    2
    15     2     4    1
    16     4     5    1
