@<TRIPOS>MOLECULE
/home/cewinharhar/GITHUB/reincatalyze/data/processed/docking_pred/2023-May-17-1006_maxeplen10_maxtrainstep1000_seadep16_gamma099_lrac9e-4_lrcr1e-3_sub6/f9550a52c30547fdb3e6e224a3b8a38c5560e948_ligand_6.pdbqt
 15 16 0 0 0
SMALL
GASTEIGER

@<TRIPOS>ATOM
      1  C          5.4190    2.8740    0.1100 C.3     1  UNL1        0.1270
      2  C          6.2470    3.8660    0.7790 C.2     1  UNL1        0.3030
      3  O          6.9090    4.7420    0.2190 O.2     1  UNL1       -0.2520
      4  O          6.2970    3.8240    2.1810 O.3     1  UNL1       -0.4810
      5  H          5.4180    3.6850    2.6540 H       1  UNL1        0.2960
      6  C          5.3650    1.5700    0.8050 C.3     1  UNL1        0.0470
      7  C          6.1350    0.4650    0.2320 C.2     1  UNL1       -0.0430
      8  C          6.5730   -0.5940    1.0120 C.2     1  UNL1        0.0080
      9  C          6.4810    0.4650   -1.0930 C.2     1  UNL1        0.0540
     10  C          7.3280   -1.6170    0.4820 C.2     1  UNL1        0.0510
     11  C          7.2380   -0.5500   -1.6470 C.2     1  UNL1        0.1660
     12  C          7.6640   -1.5940   -0.8620 C.2     1  UNL1        0.1650
     13  O          7.6970   -0.7550   -2.9360 O.2     1  UNL1       -0.4540
     14  O          8.3950   -2.4480   -1.6890 O.2     1  UNL1       -0.4540
     15  C          8.6900   -1.7910   -2.9000 C.3     1  UNL1        0.4680
@<TRIPOS>BOND
     1    13    15    1
     2    13    11    1
     3    15    14    1
     4    14    12    1
     5    11     9    1
     6    11    12    2
     7     9     7    2
     8    12    10    1
     9     1     2    1
    10     1     6    1
    11     3     2    2
    12     7     6    1
    13     7     8    1
    14    10     8    2
    15     2     4    1
    16     4     5    1
