@<TRIPOS>MOLECULE
/home/cewinharhar/GITHUB/reincatalyze/data/processed/docking_pred/2023-May-17-1006_maxeplen10_maxtrainstep1000_seadep16_gamma099_lrac9e-4_lrcr1e-3_sub6/faf685cb0c2e1ff185f0c147bdf23d27aa2a460b_ligand_6.pdbqt
 15 16 0 0 0
SMALL
GASTEIGER

@<TRIPOS>ATOM
      1  C          5.4180    2.8710    0.1220 C.3     1  UNL1        0.1270
      2  C          6.2460    3.8570    0.7980 C.2     1  UNL1        0.3030
      3  O          6.8820    4.7580    0.2480 O.2     1  UNL1       -0.2520
      4  O          6.3290    3.7780    2.1970 O.3     1  UNL1       -0.4810
      5  H          7.1020    4.2640    2.6250 H       1  UNL1        0.2960
      6  C          5.3620    1.5620    0.8070 C.3     1  UNL1        0.0470
      7  C          6.1410    0.4630    0.2330 C.2     1  UNL1       -0.0430
      8  C          6.6060   -0.5820    1.0160 C.2     1  UNL1        0.0080
      9  C          6.4690    0.4570   -1.0970 C.2     1  UNL1        0.0540
     10  C          7.3700   -1.5980    0.4850 C.2     1  UNL1        0.0510
     11  C          7.2330   -0.5520   -1.6520 C.2     1  UNL1        0.1660
     12  C          7.6860   -1.5820   -0.8640 C.2     1  UNL1        0.1650
     13  O          7.6780   -0.7610   -2.9460 O.2     1  UNL1       -0.4540
     14  O          8.4190   -2.4320   -1.6940 O.2     1  UNL1       -0.4540
     15  C          8.6880   -1.7810   -2.9140 C.3     1  UNL1        0.4680
@<TRIPOS>BOND
     1    13    15    1
     2    13    11    1
     3    15    14    1
     4    14    12    1
     5    11     9    1
     6    11    12    2
     7     9     7    2
     8    12    10    1
     9     1     2    1
    10     1     6    1
    11     7     6    1
    12     7     8    1
    13     3     2    2
    14    10     8    2
    15     2     4    1
    16     4     5    1
