@<TRIPOS>MOLECULE
/home/cewinharhar/GITHUB/reincatalyze/data/processed/docking_pred/2023-May-17-1006_maxeplen10_maxtrainstep1000_seadep16_gamma099_lrac9e-4_lrcr1e-3_sub6/faf685cb0c2e1ff185f0c147bdf23d27aa2a460b_ligand_6.pdbqt
 15 16 0 0 0
SMALL
GASTEIGER

@<TRIPOS>ATOM
      1  C          8.2520   -0.2340   -2.8250 C.3     1  UNL1        0.1270
      2  C          8.4730   -1.6580   -3.0180 C.2     1  UNL1        0.3030
      3  O          9.5550   -2.2380   -2.9060 O.2     1  UNL1       -0.2520
      4  O          7.3610   -2.4430   -3.3610 O.3     1  UNL1       -0.4810
      5  H          6.5970   -1.9600   -3.8100 H       1  UNL1        0.2960
      6  C          8.7050    0.2710   -1.5110 C.3     1  UNL1        0.0470
      7  C          7.7530    0.2180   -0.4000 C.2     1  UNL1       -0.0430
      8  C          7.7780   -0.8130    0.5270 C.2     1  UNL1        0.0080
      9  C          6.7790    1.1710   -0.2660 C.2     1  UNL1        0.0540
     10  C          6.8610   -0.8840    1.5520 C.2     1  UNL1        0.0510
     11  C          5.8480    1.1210    0.7550 C.2     1  UNL1        0.1660
     12  C          5.8860    0.0940    1.6670 C.2     1  UNL1        0.1650
     13  O          4.7950    1.9580    1.0810 O.2     1  UNL1       -0.4540
     14  O          4.8370    0.3110    2.5620 O.2     1  UNL1       -0.4540
     15  C          3.9630    1.2820    2.0350 C.3     1  UNL1        0.4680
@<TRIPOS>BOND
     1     5     4    1
     2     4     2    1
     3     2     3    2
     4     2     1    1
     5     1     6    1
     6     6     7    1
     7     7     9    2
     8     7     8    1
     9     9    11    1
    10     8    10    2
    11    11    13    1
    12    11    12    2
    13    13    15    1
    14    10    12    1
    15    12    14    1
    16    15    14    1
