@<TRIPOS>MOLECULE
/home/cewinharhar/GITHUB/reincatalyze/data/processed/docking_pred/2023-May-17-1006_maxeplen10_maxtrainstep1000_seadep16_gamma099_lrac9e-4_lrcr1e-3_sub6/faf685cb0c2e1ff185f0c147bdf23d27aa2a460b_ligand_6.pdbqt
 15 16 0 0 0
SMALL
GASTEIGER

@<TRIPOS>ATOM
      1  C          5.3930    2.8290    0.0780 C.3     1  UNL1        0.1270
      2  C          6.1150    3.8410    0.8330 C.2     1  UNL1        0.3030
      3  O          6.1230    3.9500    2.0600 O.2     1  UNL1       -0.2520
      4  O          6.8670    4.7750    0.1030 O.3     1  UNL1       -0.4810
      5  H          6.3460    5.3920   -0.5010 H       1  UNL1        0.2960
      6  C          5.3810    1.4970    0.7190 C.3     1  UNL1        0.0470
      7  C          6.2260    0.4550    0.1330 C.2     1  UNL1       -0.0430
      8  C          6.5320    0.4460   -1.2190 C.2     1  UNL1        0.0080
      9  C          6.7100   -0.5700    0.9020 C.2     1  UNL1        0.0540
     10  C          7.2970   -0.5530   -1.7790 C.2     1  UNL1        0.0510
     11  C          7.4800   -1.5830    0.3620 C.2     1  UNL1        0.1660
     12  C          7.7760   -1.5780   -0.9790 C.2     1  UNL1        0.1650
     13  O          8.0660   -2.6970    0.9370 O.2     1  UNL1       -0.4540
     14  O          8.5560   -2.7090   -1.2240 O.2     1  UNL1       -0.4540
     15  C          8.4850   -3.5780   -0.1170 C.3     1  UNL1        0.4680
@<TRIPOS>BOND
     1    10     8    1
     2    10    12    2
     3    14    12    1
     4    14    15    1
     5     8     7    2
     6    12    11    1
     7     5     4    1
     8    15    13    1
     9     1     6    1
    10     1     2    1
    11     4     2    1
    12     7     6    1
    13     7     9    1
    14    11     9    2
    15    11    13    1
    16     2     3    2
