MODEL 1
REMARK VINA RESULT:      -7.6      0.000      0.000
REMARK SMILES O=C(O)CCc1ccc2c(c1)OCO2
REMARK SMILES IDX 4 1 2 2 1 3 3 4 5 6 6 7 7 8 11 9 8 10 10 11 9 12 12 13 14 14
REMARK SMILES IDX 13 15
REMARK H PARENT 3 5
REMARK Flexibility Score: inf
ROOT
ATOM      1  C   UNL     1       5.418   2.871   0.122  1.00  0.00     0.127 C 
ENDROOT
BRANCH   1   2
ATOM      2  C   UNL     1       6.246   3.857   0.798  1.00  0.00     0.303 C 
ATOM      3  O   UNL     1       6.882   4.758   0.248  1.00  0.00    -0.252 OA
BRANCH   2   4
ATOM      4  O   UNL     1       6.329   3.778   2.197  1.00  0.00    -0.481 OA
ATOM      5  H   UNL     1       7.102   4.264   2.625  1.00  0.00     0.296 HD
ENDBRANCH   2   4
ENDBRANCH   1   2
BRANCH   1   6
ATOM      6  C   UNL     1       5.362   1.562   0.807  1.00  0.00     0.047 C 
BRANCH   6   7
ATOM      7  C   UNL     1       6.141   0.463   0.233  1.00  0.00    -0.043 A 
ATOM      8  C   UNL     1       6.606  -0.582   1.016  1.00  0.00     0.008 A 
ATOM      9  C   UNL     1       6.469   0.457  -1.097  1.00  0.00     0.054 A 
ATOM     10  C   UNL     1       7.370  -1.598   0.485  1.00  0.00     0.051 A 
ATOM     11  C   UNL     1       7.233  -0.552  -1.652  1.00  0.00     0.166 A 
ATOM     12  C   UNL     1       7.686  -1.582  -0.864  1.00  0.00     0.165 A 
ATOM     13  O   UNL     1       7.678  -0.761  -2.946  1.00  0.00    -0.454 OA
ATOM     14  O   UNL     1       8.419  -2.432  -1.694  1.00  0.00    -0.454 OA
ATOM     15  C   UNL     1       8.688  -1.781  -2.914  1.00  0.00     0.468 C 
ENDBRANCH   6   7
ENDBRANCH   1   6
TORSDOF 4
ENDMDL
MODEL 2
REMARK VINA RESULT:      -7.6      2.124      2.505
REMARK SMILES O=C(O)CCc1ccc2c(c1)OCO2
REMARK SMILES IDX 4 1 2 2 1 3 3 4 5 6 6 7 7 8 11 9 8 10 10 11 9 12 12 13 14 14
REMARK SMILES IDX 13 15
REMARK H PARENT 3 5
REMARK Flexibility Score: inf
ROOT
ATOM      1  C   UNL     1       4.707   1.886   0.696  1.00  0.00     0.127 C 
ENDROOT
BRANCH   1   2
ATOM      2  C   UNL     1       4.418   1.153   1.919  1.00  0.00     0.303 C 
ATOM      3  O   UNL     1       5.160   0.324   2.450  1.00  0.00    -0.252 OA
BRANCH   2   4
ATOM      4  O   UNL     1       3.191   1.410   2.550  1.00  0.00    -0.481 OA
ATOM      5  H   UNL     1       2.538   0.643   2.581  1.00  0.00     0.296 HD
ENDBRANCH   2   4
ENDBRANCH   1   2
BRANCH   1   6
ATOM      6  C   UNL     1       6.132   2.246   0.534  1.00  0.00     0.047 C 
BRANCH   6   7
ATOM      7  C   UNL     1       6.978   1.332  -0.235  1.00  0.00    -0.043 A 
ATOM      8  C   UNL     1       8.343   1.540  -0.360  1.00  0.00     0.008 A 
ATOM      9  C   UNL     1       6.435   0.258  -0.890  1.00  0.00     0.054 A 
ATOM     10  C   UNL     1       9.135   0.702  -1.113  1.00  0.00     0.051 A 
ATOM     11  C   UNL     1       7.210  -0.597  -1.650  1.00  0.00     0.166 A 
ATOM     12  C   UNL     1       8.562  -0.379  -1.764  1.00  0.00     0.165 A 
ATOM     13  O   UNL     1       6.885  -1.724  -2.384  1.00  0.00    -0.454 OA
ATOM     14  O   UNL     1       9.066  -1.391  -2.583  1.00  0.00    -0.454 OA
ATOM     15  C   UNL     1       8.000  -2.048  -3.228  1.00  0.00     0.468 C 
ENDBRANCH   6   7
ENDBRANCH   1   6
TORSDOF 4
ENDMDL
MODEL 3
REMARK VINA RESULT:      -7.5      1.808      5.269
REMARK SMILES O=C(O)CCc1ccc2c(c1)OCO2
REMARK SMILES IDX 4 1 2 2 1 3 3 4 5 6 6 7 7 8 11 9 8 10 10 11 9 12 12 13 14 14
REMARK SMILES IDX 13 15
REMARK H PARENT 3 5
REMARK Flexibility Score: inf
ROOT
ATOM      1  C   UNL     1       8.252  -0.234  -2.825  1.00  0.00     0.127 C 
ENDROOT
BRANCH   1   2
ATOM      2  C   UNL     1       8.473  -1.658  -3.018  1.00  0.00     0.303 C 
ATOM      3  O   UNL     1       9.555  -2.238  -2.906  1.00  0.00    -0.252 OA
BRANCH   2   4
ATOM      4  O   UNL     1       7.361  -2.443  -3.361  1.00  0.00    -0.481 OA
ATOM      5  H   UNL     1       6.597  -1.960  -3.810  1.00  0.00     0.296 HD
ENDBRANCH   2   4
ENDBRANCH   1   2
BRANCH   1   6
ATOM      6  C   UNL     1       8.705   0.271  -1.511  1.00  0.00     0.047 C 
BRANCH   6   7
ATOM      7  C   UNL     1       7.753   0.218  -0.400  1.00  0.00    -0.043 A 
ATOM      8  C   UNL     1       7.778  -0.813   0.527  1.00  0.00     0.008 A 
ATOM      9  C   UNL     1       6.779   1.171  -0.266  1.00  0.00     0.054 A 
ATOM     10  C   UNL     1       6.861  -0.884   1.552  1.00  0.00     0.051 A 
ATOM     11  C   UNL     1       5.848   1.121   0.755  1.00  0.00     0.166 A 
ATOM     12  C   UNL     1       5.886   0.094   1.667  1.00  0.00     0.165 A 
ATOM     13  O   UNL     1       4.795   1.958   1.081  1.00  0.00    -0.454 OA
ATOM     14  O   UNL     1       4.837   0.311   2.562  1.00  0.00    -0.454 OA
ATOM     15  C   UNL     1       3.963   1.282   2.035  1.00  0.00     0.468 C 
ENDBRANCH   6   7
ENDBRANCH   1   6
TORSDOF 4
ENDMDL
MODEL 4
REMARK VINA RESULT:      -7.4      0.959      2.125
REMARK SMILES O=C(O)CCc1ccc2c(c1)OCO2
REMARK SMILES IDX 4 1 2 2 1 3 3 4 5 6 6 7 7 8 11 9 8 10 10 11 9 12 12 13 14 14
REMARK SMILES IDX 13 15
REMARK H PARENT 3 5
REMARK Flexibility Score: inf
ROOT
ATOM      1  C   UNL     1       5.393   2.829   0.078  1.00  0.00     0.127 C 
ENDROOT
BRANCH   1   2
ATOM      2  C   UNL     1       6.115   3.841   0.833  1.00  0.00     0.303 C 
ATOM      3  O   UNL     1       6.123   3.950   2.060  1.00  0.00    -0.252 OA
BRANCH   2   4
ATOM      4  O   UNL     1       6.867   4.775   0.103  1.00  0.00    -0.481 OA
ATOM      5  H   UNL     1       6.346   5.392  -0.501  1.00  0.00     0.296 HD
ENDBRANCH   2   4
ENDBRANCH   1   2
BRANCH   1   6
ATOM      6  C   UNL     1       5.381   1.497   0.719  1.00  0.00     0.047 C 
BRANCH   6   7
ATOM      7  C   UNL     1       6.226   0.455   0.133  1.00  0.00    -0.043 A 
ATOM      8  C   UNL     1       6.532   0.446  -1.219  1.00  0.00     0.008 A 
ATOM      9  C   UNL     1       6.710  -0.570   0.902  1.00  0.00     0.054 A 
ATOM     10  C   UNL     1       7.297  -0.553  -1.779  1.00  0.00     0.051 A 
ATOM     11  C   UNL     1       7.480  -1.583   0.362  1.00  0.00     0.166 A 
ATOM     12  C   UNL     1       7.776  -1.578  -0.979  1.00  0.00     0.165 A 
ATOM     13  O   UNL     1       8.066  -2.697   0.937  1.00  0.00    -0.454 OA
ATOM     14  O   UNL     1       8.556  -2.709  -1.224  1.00  0.00    -0.454 OA
ATOM     15  C   UNL     1       8.485  -3.578  -0.117  1.00  0.00     0.468 C 
ENDBRANCH   6   7
ENDBRANCH   1   6
TORSDOF 4
ENDMDL
MODEL 5
REMARK VINA RESULT:      -7.4      1.964      2.949
REMARK SMILES O=C(O)CCc1ccc2c(c1)OCO2
REMARK SMILES IDX 4 1 2 2 1 3 3 4 5 6 6 7 7 8 11 9 8 10 10 11 9 12 12 13 14 14
REMARK SMILES IDX 13 15
REMARK H PARENT 3 5
REMARK Flexibility Score: inf
ROOT
ATOM      1  C   UNL     1       6.495   1.294   0.801  1.00  0.00     0.127 C 
ENDROOT
BRANCH   1   2
ATOM      2  C   UNL     1       5.251   1.189   1.549  1.00  0.00     0.303 C 
ATOM      3  O   UNL     1       4.989   0.323   2.386  1.00  0.00    -0.252 OA
BRANCH   2   4
ATOM      4  O   UNL     1       4.264   2.154   1.297  1.00  0.00    -0.481 OA
ATOM      5  H   UNL     1       4.505   2.875   0.635  1.00  0.00     0.296 HD
ENDBRANCH   2   4
ENDBRANCH   1   2
BRANCH   1   6
ATOM      6  C   UNL     1       6.362   0.966  -0.634  1.00  0.00     0.047 C 
BRANCH   6   7
ATOM      7  C   UNL     1       7.063  -0.222  -1.125  1.00  0.00    -0.043 A 
ATOM      8  C   UNL     1       7.315  -0.410  -2.475  1.00  0.00     0.008 A 
ATOM      9  C   UNL     1       7.460  -1.208  -0.260  1.00  0.00     0.054 A 
ATOM     10  C   UNL     1       7.943  -1.543  -2.941  1.00  0.00     0.051 A 
ATOM     11  C   UNL     1       8.092  -2.354  -0.705  1.00  0.00     0.166 A 
ATOM     12  C   UNL     1       8.336  -2.525  -2.046  1.00  0.00     0.165 A 
ATOM     13  O   UNL     1       8.573  -3.460  -0.027  1.00  0.00    -0.454 OA
ATOM     14  O   UNL     1       8.975  -3.758  -2.185  1.00  0.00    -0.454 OA
ATOM     15  C   UNL     1       8.851  -4.490  -0.988  1.00  0.00     0.468 C 
ENDBRANCH   6   7
ENDBRANCH   1   6
TORSDOF 4
ENDMDL
