@<TRIPOS>MOLECULE
/home/cewinharhar/GITHUB/reincatalyze/data/processed/docking_pred/2023-May-17-1006_maxeplen10_maxtrainstep1000_seadep16_gamma099_lrac9e-4_lrcr1e-3_sub6/faf685cb0c2e1ff185f0c147bdf23d27aa2a460b_ligand_6.pdbqt
 15 16 0 0 0
SMALL
GASTEIGER

@<TRIPOS>ATOM
      1  C          6.4950    1.2940    0.8010 C.3     1  UNL1        0.1270
      2  C          5.2510    1.1890    1.5490 C.2     1  UNL1        0.3030
      3  O          4.9890    0.3230    2.3860 O.2     1  UNL1       -0.2520
      4  O          4.2640    2.1540    1.2970 O.3     1  UNL1       -0.4810
      5  H          4.5050    2.8750    0.6350 H       1  UNL1        0.2960
      6  C          6.3620    0.9660   -0.6340 C.3     1  UNL1        0.0470
      7  C          7.0630   -0.2220   -1.1250 C.2     1  UNL1       -0.0430
      8  C          7.3150   -0.4100   -2.4750 C.2     1  UNL1        0.0080
      9  C          7.4600   -1.2080   -0.2600 C.2     1  UNL1        0.0540
     10  C          7.9430   -1.5430   -2.9410 C.2     1  UNL1        0.0510
     11  C          8.0920   -2.3540   -0.7050 C.2     1  UNL1        0.1660
     12  C          8.3360   -2.5250   -2.0460 C.2     1  UNL1        0.1650
     13  O          8.5730   -3.4600   -0.0270 O.2     1  UNL1       -0.4540
     14  O          8.9750   -3.7580   -2.1850 O.2     1  UNL1       -0.4540
     15  C          8.8510   -4.4900   -0.9880 C.3     1  UNL1        0.4680
@<TRIPOS>BOND
     1    10     8    1
     2    10    12    2
     3     8     7    2
     4    14    12    1
     5    14    15    1
     6    12    11    1
     7     7     6    1
     8     7     9    1
     9    15    13    1
    10    11     9    2
    11    11    13    1
    12     6     1    1
    13     5     4    1
    14     1     2    1
    15     4     2    1
    16     2     3    2
