@<TRIPOS>MOLECULE
/home/cewinharhar/GITHUB/reincatalyze/data/processed/docking_pred/2023-May-17-1006_maxeplen10_maxtrainstep1000_seadep16_gamma099_lrac9e-4_lrcr1e-3_sub6/fbb46063794dc265e75c2cefc4e8ae8bb502d9b1_ligand_6.pdbqt
 15 16 0 0 0
SMALL
GASTEIGER

@<TRIPOS>ATOM
      1  C          4.6660    1.8240    0.7090 C.3     1  UNL1        0.1270
      2  C          4.2950    1.1810    1.9590 C.2     1  UNL1        0.3030
      3  O          3.2340    1.3470    2.5640 O.2     1  UNL1       -0.2520
      4  O          5.2230    0.2940    2.5280 O.3     1  UNL1       -0.4810
      5  H          5.0500   -0.6880    2.3770 H       1  UNL1        0.2960
      6  C          6.1040    2.1540    0.6080 C.3     1  UNL1        0.0470
      7  C          6.9480    1.2680   -0.1970 C.2     1  UNL1       -0.0430
      8  C          8.2940    1.5340   -0.3970 C.2     1  UNL1        0.0080
      9  C          6.4180    0.1650   -0.8120 C.2     1  UNL1        0.0540
     10  C          9.0800    0.7220   -1.1840 C.2     1  UNL1        0.0510
     11  C          7.1880   -0.6650   -1.6050 C.2     1  UNL1        0.1660
     12  C          8.5210   -0.3900   -1.7940 C.2     1  UNL1        0.1650
     13  O          6.8730   -1.8130   -2.3110 O.2     1  UNL1       -0.4540
     14  O          9.0240   -1.3890   -2.6290 O.2     1  UNL1       -0.4540
     15  C          7.9550   -2.0980   -3.2100 C.3     1  UNL1        0.4680
@<TRIPOS>BOND
     1    15    14    1
     2    15    13    1
     3    14    12    1
     4    13    11    1
     5    12    11    2
     6    12    10    1
     7    11     9    1
     8    10     8    2
     9     9     7    2
    10     8     7    1
    11     7     6    1
    12     6     1    1
    13     1     2    1
    14     2     4    1
    15     2     3    2
    16     5     4    1
