@<TRIPOS>MOLECULE
/home/cewinharhar/GITHUB/reincatalyze/data/processed/docking_pred/2023-May-17-1006_maxeplen10_maxtrainstep1000_seadep16_gamma099_lrac9e-4_lrcr1e-3_sub6/fbb46063794dc265e75c2cefc4e8ae8bb502d9b1_ligand_6.pdbqt
 15 16 0 0 0
SMALL
GASTEIGER

@<TRIPOS>ATOM
      1  C          5.4400    2.8700    0.3380 C.3     1  UNL1        0.1270
      2  C          6.1810    4.0250    0.8200 C.2     1  UNL1        0.3030
      3  O          6.8720    4.7750    0.1270 O.2     1  UNL1       -0.2520
      4  O          6.1060    4.3120    2.1920 O.3     1  UNL1       -0.4810
      5  H          5.6570    3.6180    2.7690 H       1  UNL1        0.2960
      6  C          5.5680    1.6740    1.1970 C.3     1  UNL1        0.0470
      7  C          6.3380    0.5430    0.6740 C.2     1  UNL1       -0.0430
      8  C          7.2470   -0.1430    1.4650 C.2     1  UNL1        0.0080
      9  C          6.2100    0.1540   -0.6330 C.2     1  UNL1        0.0540
     10  C          7.9980   -1.1830    0.9640 C.2     1  UNL1        0.0510
     11  C          6.9530   -0.8870   -1.1570 C.2     1  UNL1        0.1660
     12  C          7.8490   -1.5590   -0.3610 C.2     1  UNL1        0.1650
     13  O          6.9890   -1.4430   -2.4240 O.2     1  UNL1       -0.4540
     14  O          8.4400   -2.5400   -1.1590 O.2     1  UNL1       -0.4540
     15  C          8.1500   -2.2830   -2.5130 C.3     1  UNL1        0.4680
@<TRIPOS>BOND
     1    15    13    1
     2    15    14    1
     3    13    11    1
     4    14    12    1
     5    11     9    1
     6    11    12    2
     7     9     7    2
     8    12    10    1
     9     3     2    2
    10     1     2    1
    11     1     6    1
    12     7     6    1
    13     7     8    1
    14     2     4    1
    15    10     8    2
    16     4     5    1
