@<TRIPOS>MOLECULE
/home/cewinharhar/GITHUB/reincatalyze/data/processed/docking_pred/2023-May-17-1006_maxeplen10_maxtrainstep1000_seadep16_gamma099_lrac9e-4_lrcr1e-3_sub6/fbb46063794dc265e75c2cefc4e8ae8bb502d9b1_ligand_6.pdbqt
 15 16 0 0 0
SMALL
GASTEIGER

@<TRIPOS>ATOM
      1  C          6.3770    1.3070    0.5630 C.3     1  UNL1        0.1270
      2  C          5.1770    1.3440    1.3840 C.2     1  UNL1        0.3030
      3  O          4.2540    2.1520    1.2690 O.2     1  UNL1       -0.2520
      4  O          5.0580    0.3770    2.3940 O.3     1  UNL1       -0.4810
      5  H          5.4930   -0.5140    2.2120 H       1  UNL1        0.2960
      6  C          6.1570    0.7700   -0.7970 C.3     1  UNL1        0.0470
      7  C          6.9380   -0.4030   -1.1970 C.2     1  UNL1       -0.0430
      8  C          7.2580   -0.6430   -2.5240 C.2     1  UNL1        0.0080
      9  C          7.3450   -1.3230   -0.2670 C.2     1  UNL1        0.0540
     10  C          7.9610   -1.7640   -2.9060 C.2     1  UNL1        0.0510
     11  C          8.0520   -2.4550   -0.6270 C.2     1  UNL1        0.1660
     12  C          8.3630   -2.6790   -1.9460 C.2     1  UNL1        0.1650
     13  O          8.5570   -3.5000    0.1260 O.2     1  UNL1       -0.4540
     14  O          9.0680   -3.8820   -1.9950 O.2     1  UNL1       -0.4540
     15  C          8.9280   -4.5600   -0.7680 C.3     1  UNL1        0.4680
@<TRIPOS>BOND
     1    10     8    1
     2    10    12    2
     3     8     7    2
     4    14    12    1
     5    14    15    1
     6    12    11    1
     7     7     6    1
     8     7     9    1
     9     6     1    1
    10    15    13    1
    11    11     9    2
    12    11    13    1
    13     1     2    1
    14     3     2    2
    15     2     4    1
    16     5     4    1
