@<TRIPOS>MOLECULE
/home/cewinharhar/GITHUB/reincatalyze/data/processed/docking_pred/2023-May-17-1006_maxeplen10_maxtrainstep1000_seadep16_gamma099_lrac9e-4_lrcr1e-3_sub6/fbb46063794dc265e75c2cefc4e8ae8bb502d9b1_ligand_6.pdbqt
 15 16 0 0 0
SMALL
GASTEIGER

@<TRIPOS>ATOM
      1  C          8.4380   -0.3780   -3.0280 C.3     1  UNL1        0.1270
      2  C          8.5270   -1.8250   -3.1370 C.2     1  UNL1        0.3030
      3  O          9.5640   -2.4880   -3.0670 O.2     1  UNL1       -0.2520
      4  O          7.3300   -2.5310   -3.3400 O.3     1  UNL1       -0.4810
      5  H          7.2450   -3.4120   -2.8570 H       1  UNL1        0.2960
      6  C          8.9930    0.1650   -1.7700 C.3     1  UNL1        0.0470
      7  C          8.1060    0.2160   -0.6050 C.2     1  UNL1       -0.0430
      8  C          8.3270   -0.5770    0.5100 C.2     1  UNL1        0.0080
      9  C          7.0030    1.0280   -0.6010 C.2     1  UNL1        0.0540
     10  C          7.4740   -0.5560    1.5900 C.2     1  UNL1        0.0510
     11  C          6.1330    1.0660    0.4720 C.2     1  UNL1        0.1660
     12  C          6.3650    0.2750    1.5710 C.2     1  UNL1        0.1650
     13  O          4.9770    1.7950    0.6930 O.2     1  UNL1       -0.4540
     14  O          5.3320    0.5280    2.4750 O.2     1  UNL1       -0.4540
     15  C          4.2980    1.2290    1.8240 C.3     1  UNL1        0.4680
@<TRIPOS>BOND
     1     4     2    1
     2     4     5    1
     3     2     3    2
     4     2     1    1
     5     1     6    1
     6     6     7    1
     7     7     9    2
     8     7     8    1
     9     9    11    1
    10    11    13    1
    11    11    12    2
    12     8    10    2
    13    13    15    1
    14    12    10    1
    15    12    14    1
    16    15    14    1
