@<TRIPOS>MOLECULE
/home/cewinharhar/GITHUB/reincatalyze/data/processed/docking_pred/2023-May-17-1006_maxeplen10_maxtrainstep1000_seadep16_gamma099_lrac9e-4_lrcr1e-3_sub6/fbb46063794dc265e75c2cefc4e8ae8bb502d9b1_ligand_6.pdbqt
 15 16 0 0 0
SMALL
GASTEIGER

@<TRIPOS>ATOM
      1  C          5.7200    2.4770    0.7230 C.3     1  UNL1        0.1270
      2  C          6.2970    3.7220    1.2060 C.2     1  UNL1        0.3030
      3  O          6.4210    4.0430    2.3890 O.2     1  UNL1       -0.2520
      4  O          6.7520    4.6370    0.2430 O.3     1  UNL1       -0.4810
      5  H          6.9250    5.5750    0.5690 H       1  UNL1        0.2960
      6  C          6.2250    1.2730    1.4160 C.3     1  UNL1        0.0470
      7  C          6.7660    0.1920    0.5900 C.2     1  UNL1       -0.0430
      8  C          6.5440    0.1440   -0.7780 C.2     1  UNL1        0.0080
      9  C          7.4800   -0.8320    1.1550 C.2     1  UNL1        0.0540
     10  C          7.0220   -0.8910   -1.5510 C.2     1  UNL1        0.0510
     11  C          7.9700   -1.8800    0.3990 C.2     1  UNL1        0.1660
     12  C          7.7430   -1.9130   -0.9560 C.2     1  UNL1        0.1650
     13  O          8.7030   -3.0010    0.7480 O.2     1  UNL1       -0.4540
     14  O          8.3490   -3.0750   -1.4380 O.2     1  UNL1       -0.4540
     15  C          8.6780   -3.9170   -0.3570 C.3     1  UNL1        0.4680
@<TRIPOS>BOND
     1    10    12    2
     2    10     8    1
     3    14    12    1
     4    14    15    1
     5    12    11    1
     6     8     7    2
     7    15    13    1
     8     4     5    1
     9     4     2    1
    10    11    13    1
    11    11     9    2
    12     7     9    1
    13     7     6    1
    14     1     2    1
    15     1     6    1
    16     2     3    2
