MODEL 1
REMARK VINA RESULT:      -7.9      0.000      0.000
REMARK SMILES O=C(O)CCc1ccc2c(c1)OCO2
REMARK SMILES IDX 4 1 2 2 1 3 3 4 5 6 6 7 7 8 11 9 8 10 10 11 9 12 12 13 14 14
REMARK SMILES IDX 13 15
REMARK H PARENT 3 5
REMARK Flexibility Score: inf
ROOT
ATOM      1  C   UNL     1       4.666   1.824   0.709  1.00  0.00     0.127 C 
ENDROOT
BRANCH   1   2
ATOM      2  C   UNL     1       4.295   1.181   1.959  1.00  0.00     0.303 C 
ATOM      3  O   UNL     1       3.234   1.347   2.564  1.00  0.00    -0.252 OA
BRANCH   2   4
ATOM      4  O   UNL     1       5.223   0.294   2.528  1.00  0.00    -0.481 OA
ATOM      5  H   UNL     1       5.050  -0.688   2.377  1.00  0.00     0.296 HD
ENDBRANCH   2   4
ENDBRANCH   1   2
BRANCH   1   6
ATOM      6  C   UNL     1       6.104   2.154   0.608  1.00  0.00     0.047 C 
BRANCH   6   7
ATOM      7  C   UNL     1       6.948   1.268  -0.197  1.00  0.00    -0.043 A 
ATOM      8  C   UNL     1       8.294   1.534  -0.397  1.00  0.00     0.008 A 
ATOM      9  C   UNL     1       6.418   0.165  -0.812  1.00  0.00     0.054 A 
ATOM     10  C   UNL     1       9.080   0.722  -1.184  1.00  0.00     0.051 A 
ATOM     11  C   UNL     1       7.188  -0.665  -1.605  1.00  0.00     0.166 A 
ATOM     12  C   UNL     1       8.521  -0.390  -1.794  1.00  0.00     0.165 A 
ATOM     13  O   UNL     1       6.873  -1.813  -2.311  1.00  0.00    -0.454 OA
ATOM     14  O   UNL     1       9.024  -1.389  -2.629  1.00  0.00    -0.454 OA
ATOM     15  C   UNL     1       7.955  -2.098  -3.210  1.00  0.00     0.468 C 
ENDBRANCH   6   7
ENDBRANCH   1   6
TORSDOF 4
ENDMDL
MODEL 2
REMARK VINA RESULT:      -7.7      1.840      2.405
REMARK SMILES O=C(O)CCc1ccc2c(c1)OCO2
REMARK SMILES IDX 4 1 2 2 1 3 3 4 5 6 6 7 7 8 11 9 8 10 10 11 9 12 12 13 14 14
REMARK SMILES IDX 13 15
REMARK H PARENT 3 5
REMARK Flexibility Score: inf
ROOT
ATOM      1  C   UNL     1       6.377   1.307   0.563  1.00  0.00     0.127 C 
ENDROOT
BRANCH   1   2
ATOM      2  C   UNL     1       5.177   1.344   1.384  1.00  0.00     0.303 C 
ATOM      3  O   UNL     1       4.254   2.152   1.269  1.00  0.00    -0.252 OA
BRANCH   2   4
ATOM      4  O   UNL     1       5.058   0.377   2.394  1.00  0.00    -0.481 OA
ATOM      5  H   UNL     1       5.493  -0.514   2.212  1.00  0.00     0.296 HD
ENDBRANCH   2   4
ENDBRANCH   1   2
BRANCH   1   6
ATOM      6  C   UNL     1       6.157   0.770  -0.797  1.00  0.00     0.047 C 
BRANCH   6   7
ATOM      7  C   UNL     1       6.938  -0.403  -1.197  1.00  0.00    -0.043 A 
ATOM      8  C   UNL     1       7.258  -0.643  -2.524  1.00  0.00     0.008 A 
ATOM      9  C   UNL     1       7.345  -1.323  -0.267  1.00  0.00     0.054 A 
ATOM     10  C   UNL     1       7.961  -1.764  -2.906  1.00  0.00     0.051 A 
ATOM     11  C   UNL     1       8.052  -2.455  -0.627  1.00  0.00     0.166 A 
ATOM     12  C   UNL     1       8.363  -2.679  -1.946  1.00  0.00     0.165 A 
ATOM     13  O   UNL     1       8.557  -3.500   0.126  1.00  0.00    -0.454 OA
ATOM     14  O   UNL     1       9.068  -3.882  -1.995  1.00  0.00    -0.454 OA
ATOM     15  C   UNL     1       8.928  -4.560  -0.768  1.00  0.00     0.468 C 
ENDBRANCH   6   7
ENDBRANCH   1   6
TORSDOF 4
ENDMDL
MODEL 3
REMARK VINA RESULT:      -7.6      2.279      2.547
REMARK SMILES O=C(O)CCc1ccc2c(c1)OCO2
REMARK SMILES IDX 4 1 2 2 1 3 3 4 5 6 6 7 7 8 11 9 8 10 10 11 9 12 12 13 14 14
REMARK SMILES IDX 13 15
REMARK H PARENT 3 5
REMARK Flexibility Score: inf
ROOT
ATOM      1  C   UNL     1       5.440   2.870   0.338  1.00  0.00     0.127 C 
ENDROOT
BRANCH   1   2
ATOM      2  C   UNL     1       6.181   4.025   0.820  1.00  0.00     0.303 C 
ATOM      3  O   UNL     1       6.872   4.775   0.127  1.00  0.00    -0.252 OA
BRANCH   2   4
ATOM      4  O   UNL     1       6.106   4.312   2.192  1.00  0.00    -0.481 OA
ATOM      5  H   UNL     1       5.657   3.618   2.769  1.00  0.00     0.296 HD
ENDBRANCH   2   4
ENDBRANCH   1   2
BRANCH   1   6
ATOM      6  C   UNL     1       5.568   1.674   1.197  1.00  0.00     0.047 C 
BRANCH   6   7
ATOM      7  C   UNL     1       6.338   0.543   0.674  1.00  0.00    -0.043 A 
ATOM      8  C   UNL     1       7.247  -0.143   1.465  1.00  0.00     0.008 A 
ATOM      9  C   UNL     1       6.210   0.154  -0.633  1.00  0.00     0.054 A 
ATOM     10  C   UNL     1       7.998  -1.183   0.964  1.00  0.00     0.051 A 
ATOM     11  C   UNL     1       6.953  -0.887  -1.157  1.00  0.00     0.166 A 
ATOM     12  C   UNL     1       7.849  -1.559  -0.361  1.00  0.00     0.165 A 
ATOM     13  O   UNL     1       6.989  -1.443  -2.424  1.00  0.00    -0.454 OA
ATOM     14  O   UNL     1       8.440  -2.540  -1.159  1.00  0.00    -0.454 OA
ATOM     15  C   UNL     1       8.150  -2.283  -2.513  1.00  0.00     0.468 C 
ENDBRANCH   6   7
ENDBRANCH   1   6
TORSDOF 4
ENDMDL
MODEL 4
REMARK VINA RESULT:      -7.4      1.488      5.357
REMARK SMILES O=C(O)CCc1ccc2c(c1)OCO2
REMARK SMILES IDX 4 1 2 2 1 3 3 4 5 6 6 7 7 8 11 9 8 10 10 11 9 12 12 13 14 14
REMARK SMILES IDX 13 15
REMARK H PARENT 3 5
REMARK Flexibility Score: inf
ROOT
ATOM      1  C   UNL     1       8.438  -0.378  -3.028  1.00  0.00     0.127 C 
ENDROOT
BRANCH   1   2
ATOM      2  C   UNL     1       8.527  -1.825  -3.137  1.00  0.00     0.303 C 
ATOM      3  O   UNL     1       9.564  -2.488  -3.067  1.00  0.00    -0.252 OA
BRANCH   2   4
ATOM      4  O   UNL     1       7.330  -2.531  -3.340  1.00  0.00    -0.481 OA
ATOM      5  H   UNL     1       7.245  -3.412  -2.857  1.00  0.00     0.296 HD
ENDBRANCH   2   4
ENDBRANCH   1   2
BRANCH   1   6
ATOM      6  C   UNL     1       8.993   0.165  -1.770  1.00  0.00     0.047 C 
BRANCH   6   7
ATOM      7  C   UNL     1       8.106   0.216  -0.605  1.00  0.00    -0.043 A 
ATOM      8  C   UNL     1       8.327  -0.577   0.510  1.00  0.00     0.008 A 
ATOM      9  C   UNL     1       7.003   1.028  -0.601  1.00  0.00     0.054 A 
ATOM     10  C   UNL     1       7.474  -0.556   1.590  1.00  0.00     0.051 A 
ATOM     11  C   UNL     1       6.133   1.066   0.472  1.00  0.00     0.166 A 
ATOM     12  C   UNL     1       6.365   0.275   1.571  1.00  0.00     0.165 A 
ATOM     13  O   UNL     1       4.977   1.795   0.693  1.00  0.00    -0.454 OA
ATOM     14  O   UNL     1       5.332   0.528   2.475  1.00  0.00    -0.454 OA
ATOM     15  C   UNL     1       4.298   1.229   1.824  1.00  0.00     0.468 C 
ENDBRANCH   6   7
ENDBRANCH   1   6
TORSDOF 4
ENDMDL
MODEL 5
REMARK VINA RESULT:      -7.3      2.583      2.907
REMARK SMILES O=C(O)CCc1ccc2c(c1)OCO2
REMARK SMILES IDX 4 1 2 2 1 3 3 4 5 6 6 7 7 8 11 9 8 10 10 11 9 12 12 13 14 14
REMARK SMILES IDX 13 15
REMARK H PARENT 3 5
REMARK Flexibility Score: inf
ROOT
ATOM      1  C   UNL     1       5.720   2.477   0.723  1.00  0.00     0.127 C 
ENDROOT
BRANCH   1   2
ATOM      2  C   UNL     1       6.297   3.722   1.206  1.00  0.00     0.303 C 
ATOM      3  O   UNL     1       6.421   4.043   2.389  1.00  0.00    -0.252 OA
BRANCH   2   4
ATOM      4  O   UNL     1       6.752   4.637   0.243  1.00  0.00    -0.481 OA
ATOM      5  H   UNL     1       6.925   5.575   0.569  1.00  0.00     0.296 HD
ENDBRANCH   2   4
ENDBRANCH   1   2
BRANCH   1   6
ATOM      6  C   UNL     1       6.225   1.273   1.416  1.00  0.00     0.047 C 
BRANCH   6   7
ATOM      7  C   UNL     1       6.766   0.192   0.590  1.00  0.00    -0.043 A 
ATOM      8  C   UNL     1       6.544   0.144  -0.778  1.00  0.00     0.008 A 
ATOM      9  C   UNL     1       7.480  -0.832   1.155  1.00  0.00     0.054 A 
ATOM     10  C   UNL     1       7.022  -0.891  -1.551  1.00  0.00     0.051 A 
ATOM     11  C   UNL     1       7.970  -1.880   0.399  1.00  0.00     0.166 A 
ATOM     12  C   UNL     1       7.743  -1.913  -0.956  1.00  0.00     0.165 A 
ATOM     13  O   UNL     1       8.703  -3.001   0.748  1.00  0.00    -0.454 OA
ATOM     14  O   UNL     1       8.349  -3.075  -1.438  1.00  0.00    -0.454 OA
ATOM     15  C   UNL     1       8.678  -3.917  -0.357  1.00  0.00     0.468 C 
ENDBRANCH   6   7
ENDBRANCH   1   6
TORSDOF 4
ENDMDL
