@<TRIPOS>MOLECULE
/home/cewinharhar/GITHUB/reincatalyze/data/processed/docking_pred/2023-May-17-1006_maxeplen10_maxtrainstep1000_seadep16_gamma099_lrac9e-4_lrcr1e-3_sub6/fc1d4194c005f01296b9c57c803e441f6dc40ccd_ligand_6.pdbqt
 15 16 0 0 0
SMALL
GASTEIGER

@<TRIPOS>ATOM
      1  C          4.6870    1.8520    0.6820 C.3     1  UNL1        0.1270
      2  C          4.3930    1.1530    1.9240 C.2     1  UNL1        0.3030
      3  O          5.1280    0.3320    2.4760 O.2     1  UNL1       -0.2520
      4  O          3.1700    1.4380    2.5500 O.3     1  UNL1       -0.4810
      5  H          2.5090    1.9770    2.0110 H       1  UNL1        0.2960
      6  C          6.1080    2.2290    0.5270 C.3     1  UNL1        0.0470
      7  C          6.9680    1.3270   -0.2420 C.2     1  UNL1       -0.0430
      8  C          8.3280    1.5610   -0.3760 C.2     1  UNL1        0.0080
      9  C          6.4420    0.2400   -0.8890 C.2     1  UNL1        0.0540
     10  C          9.1310    0.7330   -1.1280 C.2     1  UNL1        0.0510
     11  C          7.2290   -0.6040   -1.6490 C.2     1  UNL1        0.1660
     12  C          8.5760   -0.3610   -1.7710 C.2     1  UNL1        0.1650
     13  O          6.9210   -1.7400   -2.3770 O.2     1  UNL1       -0.4540
     14  O          9.0940   -1.3670   -2.5880 O.2     1  UNL1       -0.4540
     15  C          8.0380   -2.0480   -3.2240 C.3     1  UNL1        0.4680
@<TRIPOS>BOND
     1    15    14    1
     2    15    13    1
     3    14    12    1
     4    13    11    1
     5    12    11    2
     6    12    10    1
     7    11     9    1
     8    10     8    2
     9     9     7    2
    10     8     7    1
    11     7     6    1
    12     6     1    1
    13     1     2    1
    14     2     3    2
    15     2     4    1
    16     5     4    1
