@<TRIPOS>MOLECULE
/home/cewinharhar/GITHUB/reincatalyze/data/processed/docking_pred/2023-May-17-1006_maxeplen10_maxtrainstep1000_seadep16_gamma099_lrac9e-4_lrcr1e-3_sub6/fc1d4194c005f01296b9c57c803e441f6dc40ccd_ligand_6.pdbqt
 15 16 0 0 0
SMALL
GASTEIGER

@<TRIPOS>ATOM
      1  C          6.2140    0.2280    0.8010 C.3     1  UNL1        0.1270
      2  C          5.2060    0.9470    1.5650 C.2     1  UNL1        0.3030
      3  O          4.4740    0.4560    2.4260 O.2     1  UNL1       -0.2520
      4  O          5.0530    2.3170    1.3010 O.3     1  UNL1       -0.4810
      5  H          5.8120    2.7640    0.8110 H       1  UNL1        0.2960
      6  C          6.3780   -1.1850    1.2040 C.3     1  UNL1        0.0470
      7  C          7.4710   -1.5030    2.1250 C.2     1  UNL1       -0.0430
      8  C          7.3740   -1.2410    3.4830 C.2     1  UNL1        0.0080
      9  C          8.6440   -2.0370    1.6620 C.2     1  UNL1        0.0540
     10  C          8.4150   -1.5070    4.3450 C.2     1  UNL1        0.0510
     11  C          9.7010   -2.3130    2.5080 C.2     1  UNL1        0.1660
     12  C          9.5910   -2.0490    3.8520 C.2     1  UNL1        0.1650
     13  O         10.9570   -2.8430    2.2680 O.2     1  UNL1       -0.4540
     14  O         10.8000   -2.4260    4.4380 O.2     1  UNL1       -0.4540
     15  C         11.7670   -2.6270    3.4330 C.3     1  UNL1        0.4680
@<TRIPOS>BOND
     1     1     6    1
     2     1     2    1
     3     5     4    1
     4     6     7    1
     5     4     2    1
     6     2     3    2
     7     9     7    2
     8     9    11    1
     9     7     8    1
    10    13    11    1
    11    13    15    1
    12    11    12    2
    13    15    14    1
    14     8    10    2
    15    12    10    1
    16    12    14    1
