@<TRIPOS>MOLECULE
/home/cewinharhar/GITHUB/reincatalyze/data/processed/docking_pred/2023-May-17-1006_maxeplen10_maxtrainstep1000_seadep16_gamma099_lrac9e-4_lrcr1e-3_sub6/fc1d4194c005f01296b9c57c803e441f6dc40ccd_ligand_6.pdbqt
 15 16 0 0 0
SMALL
GASTEIGER

@<TRIPOS>ATOM
      1  C          5.3480    2.9060    0.0930 C.3     1  UNL1        0.1270
      2  C          6.1920    3.8720    0.7800 C.2     1  UNL1        0.3030
      3  O          6.8400    4.7700    0.2400 O.2     1  UNL1       -0.2520
      4  O          6.2780    3.7740    2.1780 O.3     1  UNL1       -0.4810
      5  H          6.2940    2.8410    2.5580 H       1  UNL1        0.2960
      6  C          5.2640    1.5950    0.7710 C.3     1  UNL1        0.0470
      7  C          6.0420    0.4900    0.2060 C.2     1  UNL1       -0.0430
      8  C          6.4380   -0.5890    0.9830 C.2     1  UNL1        0.0080
      9  C          6.4370    0.5090   -1.1050 C.2     1  UNL1        0.0540
     10  C          7.2000   -1.6110    0.4620 C.2     1  UNL1        0.0510
     11  C          7.2010   -0.5050   -1.6490 C.2     1  UNL1        0.1660
     12  C          7.5850   -1.5690   -0.8680 C.2     1  UNL1        0.1650
     13  O          7.7060   -0.6930   -2.9240 O.2     1  UNL1       -0.4540
     14  O          8.3370   -2.4170   -1.6830 O.2     1  UNL1       -0.4540
     15  C          8.6850   -1.7420   -2.8700 C.3     1  UNL1        0.4680
@<TRIPOS>BOND
     1    13    15    1
     2    13    11    1
     3    15    14    1
     4    14    12    1
     5    11     9    1
     6    11    12    2
     7     9     7    2
     8    12    10    1
     9     1     6    1
    10     1     2    1
    11     7     6    1
    12     7     8    1
    13     3     2    2
    14    10     8    2
    15     2     4    1
    16     4     5    1
