MODEL 1
REMARK VINA RESULT:      -7.3      0.000      0.000
REMARK SMILES O=C(O)CCc1ccc2c(c1)OCO2
REMARK SMILES IDX 4 1 2 2 1 3 3 4 5 6 6 7 7 8 11 9 8 10 10 11 9 12 12 13 14 14
REMARK SMILES IDX 13 15
REMARK H PARENT 3 5
REMARK Flexibility Score: inf
ROOT
ATOM      1  C   UNL     1       5.348   2.906   0.093  1.00  0.00     0.127 C 
ENDROOT
BRANCH   1   2
ATOM      2  C   UNL     1       6.192   3.872   0.780  1.00  0.00     0.303 C 
ATOM      3  O   UNL     1       6.840   4.770   0.240  1.00  0.00    -0.252 OA
BRANCH   2   4
ATOM      4  O   UNL     1       6.278   3.774   2.178  1.00  0.00    -0.481 OA
ATOM      5  H   UNL     1       6.294   2.841   2.558  1.00  0.00     0.296 HD
ENDBRANCH   2   4
ENDBRANCH   1   2
BRANCH   1   6
ATOM      6  C   UNL     1       5.264   1.595   0.771  1.00  0.00     0.047 C 
BRANCH   6   7
ATOM      7  C   UNL     1       6.042   0.490   0.206  1.00  0.00    -0.043 A 
ATOM      8  C   UNL     1       6.438  -0.589   0.983  1.00  0.00     0.008 A 
ATOM      9  C   UNL     1       6.437   0.509  -1.105  1.00  0.00     0.054 A 
ATOM     10  C   UNL     1       7.200  -1.611   0.462  1.00  0.00     0.051 A 
ATOM     11  C   UNL     1       7.201  -0.505  -1.649  1.00  0.00     0.166 A 
ATOM     12  C   UNL     1       7.585  -1.569  -0.868  1.00  0.00     0.165 A 
ATOM     13  O   UNL     1       7.706  -0.693  -2.924  1.00  0.00    -0.454 OA
ATOM     14  O   UNL     1       8.337  -2.417  -1.683  1.00  0.00    -0.454 OA
ATOM     15  C   UNL     1       8.685  -1.742  -2.870  1.00  0.00     0.468 C 
ENDBRANCH   6   7
ENDBRANCH   1   6
TORSDOF 4
ENDMDL
MODEL 2
REMARK VINA RESULT:      -7.3      2.127      2.535
REMARK SMILES O=C(O)CCc1ccc2c(c1)OCO2
REMARK SMILES IDX 4 1 2 2 1 3 3 4 5 6 6 7 7 8 11 9 8 10 10 11 9 12 12 13 14 14
REMARK SMILES IDX 13 15
REMARK H PARENT 3 5
REMARK Flexibility Score: inf
ROOT
ATOM      1  C   UNL     1       4.687   1.852   0.682  1.00  0.00     0.127 C 
ENDROOT
BRANCH   1   2
ATOM      2  C   UNL     1       4.393   1.153   1.924  1.00  0.00     0.303 C 
ATOM      3  O   UNL     1       5.128   0.332   2.476  1.00  0.00    -0.252 OA
BRANCH   2   4
ATOM      4  O   UNL     1       3.170   1.438   2.550  1.00  0.00    -0.481 OA
ATOM      5  H   UNL     1       2.509   1.977   2.011  1.00  0.00     0.296 HD
ENDBRANCH   2   4
ENDBRANCH   1   2
BRANCH   1   6
ATOM      6  C   UNL     1       6.108   2.229   0.527  1.00  0.00     0.047 C 
BRANCH   6   7
ATOM      7  C   UNL     1       6.968   1.327  -0.242  1.00  0.00    -0.043 A 
ATOM      8  C   UNL     1       8.328   1.561  -0.376  1.00  0.00     0.008 A 
ATOM      9  C   UNL     1       6.442   0.240  -0.889  1.00  0.00     0.054 A 
ATOM     10  C   UNL     1       9.131   0.733  -1.128  1.00  0.00     0.051 A 
ATOM     11  C   UNL     1       7.229  -0.604  -1.649  1.00  0.00     0.166 A 
ATOM     12  C   UNL     1       8.576  -0.361  -1.771  1.00  0.00     0.165 A 
ATOM     13  O   UNL     1       6.921  -1.740  -2.377  1.00  0.00    -0.454 OA
ATOM     14  O   UNL     1       9.094  -1.367  -2.588  1.00  0.00    -0.454 OA
ATOM     15  C   UNL     1       8.038  -2.048  -3.224  1.00  0.00     0.468 C 
ENDBRANCH   6   7
ENDBRANCH   1   6
TORSDOF 4
ENDMDL
MODEL 3
REMARK VINA RESULT:      -7.2      3.546      4.652
REMARK SMILES O=C(O)CCc1ccc2c(c1)OCO2
REMARK SMILES IDX 4 1 2 2 1 3 3 4 5 6 6 7 7 8 11 9 8 10 10 11 9 12 12 13 14 14
REMARK SMILES IDX 13 15
REMARK H PARENT 3 5
REMARK Flexibility Score: inf
ROOT
ATOM      1  C   UNL     1       6.214   0.228   0.801  1.00  0.00     0.127 C 
ENDROOT
BRANCH   1   2
ATOM      2  C   UNL     1       5.206   0.947   1.565  1.00  0.00     0.303 C 
ATOM      3  O   UNL     1       4.474   0.456   2.426  1.00  0.00    -0.252 OA
BRANCH   2   4
ATOM      4  O   UNL     1       5.053   2.317   1.301  1.00  0.00    -0.481 OA
ATOM      5  H   UNL     1       5.812   2.764   0.811  1.00  0.00     0.296 HD
ENDBRANCH   2   4
ENDBRANCH   1   2
BRANCH   1   6
ATOM      6  C   UNL     1       6.378  -1.185   1.204  1.00  0.00     0.047 C 
BRANCH   6   7
ATOM      7  C   UNL     1       7.471  -1.503   2.125  1.00  0.00    -0.043 A 
ATOM      8  C   UNL     1       7.374  -1.241   3.483  1.00  0.00     0.008 A 
ATOM      9  C   UNL     1       8.644  -2.037   1.662  1.00  0.00     0.054 A 
ATOM     10  C   UNL     1       8.415  -1.507   4.345  1.00  0.00     0.051 A 
ATOM     11  C   UNL     1       9.701  -2.313   2.508  1.00  0.00     0.166 A 
ATOM     12  C   UNL     1       9.591  -2.049   3.852  1.00  0.00     0.165 A 
ATOM     13  O   UNL     1      10.957  -2.843   2.268  1.00  0.00    -0.454 OA
ATOM     14  O   UNL     1      10.800  -2.426   4.438  1.00  0.00    -0.454 OA
ATOM     15  C   UNL     1      11.767  -2.627   3.433  1.00  0.00     0.468 C 
ENDBRANCH   6   7
ENDBRANCH   1   6
TORSDOF 4
ENDMDL
MODEL 4
REMARK VINA RESULT:      -7.1      2.005      2.987
REMARK SMILES O=C(O)CCc1ccc2c(c1)OCO2
REMARK SMILES IDX 4 1 2 2 1 3 3 4 5 6 6 7 7 8 11 9 8 10 10 11 9 12 12 13 14 14
REMARK SMILES IDX 13 15
REMARK H PARENT 3 5
REMARK Flexibility Score: inf
ROOT
ATOM      1  C   UNL     1       6.398   1.358   0.693  1.00  0.00     0.127 C 
ENDROOT
BRANCH   1   2
ATOM      2  C   UNL     1       5.288   1.131   1.605  1.00  0.00     0.303 C 
ATOM      3  O   UNL     1       5.223   0.232   2.446  1.00  0.00    -0.252 OA
BRANCH   2   4
ATOM      4  O   UNL     1       4.196   2.009   1.523  1.00  0.00    -0.481 OA
ATOM      5  H   UNL     1       3.347   1.708   1.976  1.00  0.00     0.296 HD
ENDBRANCH   2   4
ENDBRANCH   1   2
BRANCH   1   6
ATOM      6  C   UNL     1       6.168   0.841  -0.673  1.00  0.00     0.047 C 
BRANCH   6   7
ATOM      7  C   UNL     1       6.940  -0.331  -1.092  1.00  0.00    -0.043 A 
ATOM      8  C   UNL     1       7.256  -0.552  -2.424  1.00  0.00     0.008 A 
ATOM      9  C   UNL     1       7.341  -1.269  -0.178  1.00  0.00     0.054 A 
ATOM     10  C   UNL     1       7.950  -1.672  -2.824  1.00  0.00     0.051 A 
ATOM     11  C   UNL     1       8.040  -2.400  -0.557  1.00  0.00     0.166 A 
ATOM     12  C   UNL     1       8.347  -2.605  -1.880  1.00  0.00     0.165 A 
ATOM     13  O   UNL     1       8.538  -3.461   0.179  1.00  0.00    -0.454 OA
ATOM     14  O   UNL     1       9.043  -3.813  -1.949  1.00  0.00    -0.454 OA
ATOM     15  C   UNL     1       8.900  -4.509  -0.733  1.00  0.00     0.468 C 
ENDBRANCH   6   7
ENDBRANCH   1   6
TORSDOF 4
ENDMDL
MODEL 5
REMARK VINA RESULT:      -7.1      2.014      2.626
REMARK SMILES O=C(O)CCc1ccc2c(c1)OCO2
REMARK SMILES IDX 4 1 2 2 1 3 3 4 5 6 6 7 7 8 11 9 8 10 10 11 9 12 12 13 14 14
REMARK SMILES IDX 13 15
REMARK H PARENT 3 5
REMARK Flexibility Score: inf
ROOT
ATOM      1  C   UNL     1       5.080   2.734   0.061  1.00  0.00     0.127 C 
ENDROOT
BRANCH   1   2
ATOM      2  C   UNL     1       6.065   3.620   0.661  1.00  0.00     0.303 C 
ATOM      3  O   UNL     1       6.795   4.401   0.047  1.00  0.00    -0.252 OA
BRANCH   2   4
ATOM      4  O   UNL     1       6.197   3.586   2.058  1.00  0.00    -0.481 OA
ATOM      5  H   UNL     1       5.485   4.067   2.584  1.00  0.00     0.296 HD
ENDBRANCH   2   4
ENDBRANCH   1   2
BRANCH   1   6
ATOM      6  C   UNL     1       5.656   1.504  -0.523  1.00  0.00     0.047 C 
BRANCH   6   7
ATOM      7  C   UNL     1       6.280   0.547   0.393  1.00  0.00    -0.043 A 
ATOM      8  C   UNL     1       5.638   0.123   1.546  1.00  0.00     0.008 A 
ATOM      9  C   UNL     1       7.542   0.069   0.154  1.00  0.00     0.054 A 
ATOM     10  C   UNL     1       6.239  -0.749   2.427  1.00  0.00     0.051 A 
ATOM     11  C   UNL     1       8.163  -0.807   1.023  1.00  0.00     0.166 A 
ATOM     12  C   UNL     1       7.515  -1.219   2.162  1.00  0.00     0.165 A 
ATOM     13  O   UNL     1       9.409  -1.409   0.986  1.00  0.00    -0.454 OA
ATOM     14  O   UNL     1       8.382  -2.086   2.828  1.00  0.00    -0.454 OA
ATOM     15  C   UNL     1       9.674  -1.972   2.280  1.00  0.00     0.468 C 
ENDBRANCH   6   7
ENDBRANCH   1   6
TORSDOF 4
ENDMDL
