@<TRIPOS>MOLECULE
/home/cewinharhar/GITHUB/reincatalyze/data/processed/docking_pred/2023-May-17-1006_maxeplen10_maxtrainstep1000_seadep16_gamma099_lrac9e-4_lrcr1e-3_sub6/fc1d4194c005f01296b9c57c803e441f6dc40ccd_ligand_6.pdbqt
 15 16 0 0 0
SMALL
GASTEIGER

@<TRIPOS>ATOM
      1  C          5.0800    2.7340    0.0610 C.3     1  UNL1        0.1270
      2  C          6.0650    3.6200    0.6610 C.2     1  UNL1        0.3030
      3  O          6.7950    4.4010    0.0470 O.2     1  UNL1       -0.2520
      4  O          6.1970    3.5860    2.0580 O.3     1  UNL1       -0.4810
      5  H          5.4850    4.0670    2.5840 H       1  UNL1        0.2960
      6  C          5.6560    1.5040   -0.5230 C.3     1  UNL1        0.0470
      7  C          6.2800    0.5470    0.3930 C.2     1  UNL1       -0.0430
      8  C          5.6380    0.1230    1.5460 C.2     1  UNL1        0.0080
      9  C          7.5420    0.0690    0.1540 C.2     1  UNL1        0.0540
     10  C          6.2390   -0.7490    2.4270 C.2     1  UNL1        0.0510
     11  C          8.1630   -0.8070    1.0230 C.2     1  UNL1        0.1660
     12  C          7.5150   -1.2190    2.1620 C.2     1  UNL1        0.1650
     13  O          9.4090   -1.4090    0.9860 O.2     1  UNL1       -0.4540
     14  O          8.3820   -2.0860    2.8280 O.2     1  UNL1       -0.4540
     15  C          9.6740   -1.9720    2.2800 C.3     1  UNL1        0.4680
@<TRIPOS>BOND
     1     6     1    1
     2     6     7    1
     3     3     2    2
     4     1     2    1
     5     9     7    2
     6     9    11    1
     7     7     8    1
     8     2     4    1
     9    13    11    1
    10    13    15    1
    11    11    12    2
    12     8    10    2
    13     4     5    1
    14    12    10    1
    15    12    14    1
    16    15    14    1
