@<TRIPOS>MOLECULE
/home/cewinharhar/GITHUB/reincatalyze/data/processed/docking_pred/2023-May-17-1006_maxeplen10_maxtrainstep1000_seadep16_gamma099_lrac9e-4_lrcr1e-3_sub6/fc1d4194c005f01296b9c57c803e441f6dc40ccd_ligand_6.pdbqt
 15 16 0 0 0
SMALL
GASTEIGER

@<TRIPOS>ATOM
      1  C          6.3980    1.3580    0.6930 C.3     1  UNL1        0.1270
      2  C          5.2880    1.1310    1.6050 C.2     1  UNL1        0.3030
      3  O          5.2230    0.2320    2.4460 O.2     1  UNL1       -0.2520
      4  O          4.1960    2.0090    1.5230 O.3     1  UNL1       -0.4810
      5  H          3.3470    1.7080    1.9760 H       1  UNL1        0.2960
      6  C          6.1680    0.8410   -0.6730 C.3     1  UNL1        0.0470
      7  C          6.9400   -0.3310   -1.0920 C.2     1  UNL1       -0.0430
      8  C          7.2560   -0.5520   -2.4240 C.2     1  UNL1        0.0080
      9  C          7.3410   -1.2690   -0.1780 C.2     1  UNL1        0.0540
     10  C          7.9500   -1.6720   -2.8240 C.2     1  UNL1        0.0510
     11  C          8.0400   -2.4000   -0.5570 C.2     1  UNL1        0.1660
     12  C          8.3470   -2.6050   -1.8800 C.2     1  UNL1        0.1650
     13  O          8.5380   -3.4610    0.1790 O.2     1  UNL1       -0.4540
     14  O          9.0430   -3.8130   -1.9490 O.2     1  UNL1       -0.4540
     15  C          8.9000   -4.5090   -0.7330 C.3     1  UNL1        0.4680
@<TRIPOS>BOND
     1    10     8    1
     2    10    12    2
     3     8     7    2
     4    14    12    1
     5    14    15    1
     6    12    11    1
     7     7     6    1
     8     7     9    1
     9    15    13    1
    10     6     1    1
    11    11     9    2
    12    11    13    1
    13     1     2    1
    14     4     2    1
    15     4     5    1
    16     2     3    2
