@<TRIPOS>MOLECULE
/home/cewinharhar/GITHUB/reincatalyze/data/processed/docking_pred/2023-May-17-1006_maxeplen10_maxtrainstep1000_seadep16_gamma099_lrac9e-4_lrcr1e-3_sub6/fd0126b23dad862f417327e64da043fff24e40de_ligand_6.pdbqt
 15 16 0 0 0
SMALL
GASTEIGER

@<TRIPOS>ATOM
      1  C          8.3050   -0.3180   -2.8470 C.3     1  UNL1        0.1270
      2  C          8.4700   -1.7460   -3.0660 C.2     1  UNL1        0.3030
      3  O          9.5380   -2.3590   -3.0270 O.2     1  UNL1       -0.2520
      4  O          7.3150   -2.4930   -3.3470 O.3     1  UNL1       -0.4810
      5  H          7.2730   -2.9230   -4.2580 H       1  UNL1        0.2960
      6  C          8.7600    0.1420   -1.5170 C.3     1  UNL1        0.0470
      7  C          7.7910    0.1040   -0.4200 C.2     1  UNL1       -0.0430
      8  C          7.7450   -0.9580    0.4710 C.2     1  UNL1        0.0080
      9  C          6.8700    1.1060   -0.2640 C.2     1  UNL1        0.0540
     10  C          6.8110   -1.0120    1.4810 C.2     1  UNL1        0.0510
     11  C          5.9240    1.0740    0.7430 C.2     1  UNL1        0.1660
     12  C          5.8910    0.0160    1.6190 C.2     1  UNL1        0.1650
     13  O          4.9160    1.9580    1.0860 O.2     1  UNL1       -0.4540
     14  O          4.8440    0.2610    2.5080 O.2     1  UNL1       -0.4540
     15  C          4.0330    1.2980    2.0060 C.3     1  UNL1        0.4680
@<TRIPOS>BOND
     1     5     4    1
     2     4     2    1
     3     2     3    2
     4     2     1    1
     5     1     6    1
     6     6     7    1
     7     7     9    2
     8     7     8    1
     9     9    11    1
    10     8    10    2
    11    11    13    1
    12    11    12    2
    13    13    15    1
    14    10    12    1
    15    12    14    1
    16    15    14    1
