MODEL 1
REMARK VINA RESULT:      -7.6      0.000      0.000
REMARK SMILES O=C(O)CCc1ccc2c(c1)OCO2
REMARK SMILES IDX 4 1 2 2 1 3 3 4 5 6 6 7 7 8 11 9 8 10 10 11 9 12 12 13 14 14
REMARK SMILES IDX 13 15
REMARK H PARENT 3 5
REMARK Flexibility Score: inf
ROOT
ATOM      1  C   UNL     1       4.720   1.861   0.690  1.00  0.00     0.127 C 
ENDROOT
BRANCH   1   2
ATOM      2  C   UNL     1       4.420   1.145   1.919  1.00  0.00     0.303 C 
ATOM      3  O   UNL     1       5.152   0.318   2.465  1.00  0.00    -0.252 OA
BRANCH   2   4
ATOM      4  O   UNL     1       3.190   1.417   2.539  1.00  0.00    -0.481 OA
ATOM      5  H   UNL     1       2.597   0.622   2.719  1.00  0.00     0.296 HD
ENDBRANCH   2   4
ENDBRANCH   1   2
BRANCH   1   6
ATOM      6  C   UNL     1       6.146   2.221   0.538  1.00  0.00     0.047 C 
BRANCH   6   7
ATOM      7  C   UNL     1       6.995   1.314  -0.237  1.00  0.00    -0.043 A 
ATOM      8  C   UNL     1       8.357   1.537  -0.376  1.00  0.00     0.008 A 
ATOM      9  C   UNL     1       6.458   0.232  -0.882  1.00  0.00     0.054 A 
ATOM     10  C   UNL     1       9.150   0.704  -1.134  1.00  0.00     0.051 A 
ATOM     11  C   UNL     1       7.234  -0.617  -1.648  1.00  0.00     0.166 A 
ATOM     12  C   UNL     1       8.582  -0.384  -1.776  1.00  0.00     0.165 A 
ATOM     13  O   UNL     1       6.914  -1.749  -2.376  1.00  0.00    -0.454 OA
ATOM     14  O   UNL     1       9.089  -1.393  -2.597  1.00  0.00    -0.454 OA
ATOM     15  C   UNL     1       8.024  -2.064  -3.230  1.00  0.00     0.468 C 
ENDBRANCH   6   7
ENDBRANCH   1   6
TORSDOF 4
ENDMDL
MODEL 2
REMARK VINA RESULT:      -7.6      2.135      2.541
REMARK SMILES O=C(O)CCc1ccc2c(c1)OCO2
REMARK SMILES IDX 4 1 2 2 1 3 3 4 5 6 6 7 7 8 11 9 8 10 10 11 9 12 12 13 14 14
REMARK SMILES IDX 13 15
REMARK H PARENT 3 5
REMARK Flexibility Score: inf
ROOT
ATOM      1  C   UNL     1       5.414   2.851   0.169  1.00  0.00     0.127 C 
ENDROOT
BRANCH   1   2
ATOM      2  C   UNL     1       6.163   3.830   0.941  1.00  0.00     0.303 C 
ATOM      3  O   UNL     1       6.192   3.903   2.171  1.00  0.00    -0.252 OA
BRANCH   2   4
ATOM      4  O   UNL     1       6.918   4.773   0.227  1.00  0.00    -0.481 OA
ATOM      5  H   UNL     1       7.919   4.658   0.258  1.00  0.00     0.296 HD
ENDBRANCH   2   4
ENDBRANCH   1   2
BRANCH   1   6
ATOM      6  C   UNL     1       5.329   1.520   0.808  1.00  0.00     0.047 C 
BRANCH   6   7
ATOM      7  C   UNL     1       6.095   0.428   0.202  1.00  0.00    -0.043 A 
ATOM      8  C   UNL     1       6.499  -0.672   0.943  1.00  0.00     0.008 A 
ATOM      9  C   UNL     1       6.469   0.482  -1.114  1.00  0.00     0.054 A 
ATOM     10  C   UNL     1       7.249  -1.681   0.383  1.00  0.00     0.051 A 
ATOM     11  C   UNL     1       7.222  -0.520  -1.697  1.00  0.00     0.166 A 
ATOM     12  C   UNL     1       7.614  -1.605  -0.951  1.00  0.00     0.165 A 
ATOM     13  O   UNL     1       7.706  -0.675  -2.984  1.00  0.00    -0.454 OA
ATOM     14  O   UNL     1       8.350  -2.433  -1.800  1.00  0.00    -0.454 OA
ATOM     15  C   UNL     1       8.682  -1.728  -2.974  1.00  0.00     0.468 C 
ENDBRANCH   6   7
ENDBRANCH   1   6
TORSDOF 4
ENDMDL
MODEL 3
REMARK VINA RESULT:      -7.6      2.461      2.824
REMARK SMILES O=C(O)CCc1ccc2c(c1)OCO2
REMARK SMILES IDX 4 1 2 2 1 3 3 4 5 6 6 7 7 8 11 9 8 10 10 11 9 12 12 13 14 14
REMARK SMILES IDX 13 15
REMARK H PARENT 3 5
REMARK Flexibility Score: inf
ROOT
ATOM      1  C   UNL     1       5.411   2.809   0.089  1.00  0.00     0.127 C 
ENDROOT
BRANCH   1   2
ATOM      2  C   UNL     1       6.277   3.739   0.796  1.00  0.00     0.303 C 
ATOM      3  O   UNL     1       6.787   4.752   0.314  1.00  0.00    -0.252 OA
BRANCH   2   4
ATOM      4  O   UNL     1       6.559   3.460   2.143  1.00  0.00    -0.481 OA
ATOM      5  H   UNL     1       6.405   4.214   2.795  1.00  0.00     0.296 HD
ENDBRANCH   2   4
ENDBRANCH   1   2
BRANCH   1   6
ATOM      6  C   UNL     1       5.350   1.463   0.698  1.00  0.00     0.047 C 
BRANCH   6   7
ATOM      7  C   UNL     1       6.198   0.419   0.119  1.00  0.00    -0.043 A 
ATOM      8  C   UNL     1       6.489   0.390  -1.236  1.00  0.00     0.008 A 
ATOM      9  C   UNL     1       6.701  -0.587   0.900  1.00  0.00     0.054 A 
ATOM     10  C   UNL     1       7.257  -0.612  -1.787  1.00  0.00     0.051 A 
ATOM     11  C   UNL     1       7.474  -1.602   0.369  1.00  0.00     0.166 A 
ATOM     12  C   UNL     1       7.755  -1.618  -0.976  1.00  0.00     0.165 A 
ATOM     13  O   UNL     1       8.078  -2.701   0.956  1.00  0.00    -0.454 OA
ATOM     14  O   UNL     1       8.543  -2.746  -1.210  1.00  0.00    -0.454 OA
ATOM     15  C   UNL     1       8.493  -3.596  -0.087  1.00  0.00     0.468 C 
ENDBRANCH   6   7
ENDBRANCH   1   6
TORSDOF 4
ENDMDL
MODEL 4
REMARK VINA RESULT:      -7.6      1.860      2.411
REMARK SMILES O=C(O)CCc1ccc2c(c1)OCO2
REMARK SMILES IDX 4 1 2 2 1 3 3 4 5 6 6 7 7 8 11 9 8 10 10 11 9 12 12 13 14 14
REMARK SMILES IDX 13 15
REMARK H PARENT 3 5
REMARK Flexibility Score: inf
ROOT
ATOM      1  C   UNL     1       6.427   1.243   0.694  1.00  0.00     0.127 C 
ENDROOT
BRANCH   1   2
ATOM      2  C   UNL     1       5.244   1.153   1.536  1.00  0.00     0.303 C 
ATOM      3  O   UNL     1       5.047   0.304   2.407  1.00  0.00    -0.252 OA
BRANCH   2   4
ATOM      4  O   UNL     1       4.239   2.113   1.340  1.00  0.00    -0.481 OA
ATOM      5  H   UNL     1       4.324   2.962   1.876  1.00  0.00     0.296 HD
ENDBRANCH   2   4
ENDBRANCH   1   2
BRANCH   1   6
ATOM      6  C   UNL     1       6.218   0.766  -0.689  1.00  0.00     0.047 C 
BRANCH   6   7
ATOM      7  C   UNL     1       6.980  -0.406  -1.124  1.00  0.00    -0.043 A 
ATOM      8  C   UNL     1       7.281  -0.621  -2.460  1.00  0.00     0.008 A 
ATOM      9  C   UNL     1       7.388  -1.351  -0.220  1.00  0.00     0.054 A 
ATOM     10  C   UNL     1       7.967  -1.741  -2.874  1.00  0.00     0.051 A 
ATOM     11  C   UNL     1       8.078  -2.482  -0.612  1.00  0.00     0.166 A 
ATOM     12  C   UNL     1       8.370  -2.681  -1.940  1.00  0.00     0.165 A 
ATOM     13  O   UNL     1       8.580  -3.550   0.112  1.00  0.00    -0.454 OA
ATOM     14  O   UNL     1       9.061  -3.891  -2.024  1.00  0.00    -0.454 OA
ATOM     15  C   UNL     1       8.928  -4.594  -0.810  1.00  0.00     0.468 C 
ENDBRANCH   6   7
ENDBRANCH   1   6
TORSDOF 4
ENDMDL
MODEL 5
REMARK VINA RESULT:      -7.5      1.438      5.379
REMARK SMILES O=C(O)CCc1ccc2c(c1)OCO2
REMARK SMILES IDX 4 1 2 2 1 3 3 4 5 6 6 7 7 8 11 9 8 10 10 11 9 12 12 13 14 14
REMARK SMILES IDX 13 15
REMARK H PARENT 3 5
REMARK Flexibility Score: inf
ROOT
ATOM      1  C   UNL     1       8.305  -0.318  -2.847  1.00  0.00     0.127 C 
ENDROOT
BRANCH   1   2
ATOM      2  C   UNL     1       8.470  -1.746  -3.066  1.00  0.00     0.303 C 
ATOM      3  O   UNL     1       9.538  -2.359  -3.027  1.00  0.00    -0.252 OA
BRANCH   2   4
ATOM      4  O   UNL     1       7.315  -2.493  -3.347  1.00  0.00    -0.481 OA
ATOM      5  H   UNL     1       7.273  -2.923  -4.258  1.00  0.00     0.296 HD
ENDBRANCH   2   4
ENDBRANCH   1   2
BRANCH   1   6
ATOM      6  C   UNL     1       8.760   0.142  -1.517  1.00  0.00     0.047 C 
BRANCH   6   7
ATOM      7  C   UNL     1       7.791   0.104  -0.420  1.00  0.00    -0.043 A 
ATOM      8  C   UNL     1       7.745  -0.958   0.471  1.00  0.00     0.008 A 
ATOM      9  C   UNL     1       6.870   1.106  -0.264  1.00  0.00     0.054 A 
ATOM     10  C   UNL     1       6.811  -1.012   1.481  1.00  0.00     0.051 A 
ATOM     11  C   UNL     1       5.924   1.074   0.743  1.00  0.00     0.166 A 
ATOM     12  C   UNL     1       5.891   0.016   1.619  1.00  0.00     0.165 A 
ATOM     13  O   UNL     1       4.916   1.958   1.086  1.00  0.00    -0.454 OA
ATOM     14  O   UNL     1       4.844   0.261   2.508  1.00  0.00    -0.454 OA
ATOM     15  C   UNL     1       4.033   1.298   2.006  1.00  0.00     0.468 C 
ENDBRANCH   6   7
ENDBRANCH   1   6
TORSDOF 4
ENDMDL
