@<TRIPOS>MOLECULE
/home/cewinharhar/GITHUB/reincatalyze/data/processed/docking_pred/2023-May-17-1006_maxeplen10_maxtrainstep1000_seadep16_gamma099_lrac9e-4_lrcr1e-3_sub6/fd0126b23dad862f417327e64da043fff24e40de_ligand_6.pdbqt
 15 16 0 0 0
SMALL
GASTEIGER

@<TRIPOS>ATOM
      1  C          6.4270    1.2430    0.6940 C.3     1  UNL1        0.1270
      2  C          5.2440    1.1530    1.5360 C.2     1  UNL1        0.3030
      3  O          5.0470    0.3040    2.4070 O.2     1  UNL1       -0.2520
      4  O          4.2390    2.1130    1.3400 O.3     1  UNL1       -0.4810
      5  H          4.3240    2.9620    1.8760 H       1  UNL1        0.2960
      6  C          6.2180    0.7660   -0.6890 C.3     1  UNL1        0.0470
      7  C          6.9800   -0.4060   -1.1240 C.2     1  UNL1       -0.0430
      8  C          7.2810   -0.6210   -2.4600 C.2     1  UNL1        0.0080
      9  C          7.3880   -1.3510   -0.2200 C.2     1  UNL1        0.0540
     10  C          7.9670   -1.7410   -2.8740 C.2     1  UNL1        0.0510
     11  C          8.0780   -2.4820   -0.6120 C.2     1  UNL1        0.1660
     12  C          8.3700   -2.6810   -1.9400 C.2     1  UNL1        0.1650
     13  O          8.5800   -3.5500    0.1120 O.2     1  UNL1       -0.4540
     14  O          9.0610   -3.8910   -2.0240 O.2     1  UNL1       -0.4540
     15  C          8.9280   -4.5940   -0.8100 C.3     1  UNL1        0.4680
@<TRIPOS>BOND
     1    10     8    1
     2    10    12    2
     3     8     7    2
     4    14    12    1
     5    14    15    1
     6    12    11    1
     7     7     6    1
     8     7     9    1
     9    15    13    1
    10     6     1    1
    11    11     9    2
    12    11    13    1
    13     1     2    1
    14     4     2    1
    15     4     5    1
    16     2     3    2
