@<TRIPOS>MOLECULE
/home/cewinharhar/GITHUB/reincatalyze/data/processed/docking_pred/2023-May-17-1006_maxeplen10_maxtrainstep1000_seadep16_gamma099_lrac9e-4_lrcr1e-3_sub6/fd0126b23dad862f417327e64da043fff24e40de_ligand_6.pdbqt
 15 16 0 0 0
SMALL
GASTEIGER

@<TRIPOS>ATOM
      1  C          5.4110    2.8090    0.0890 C.3     1  UNL1        0.1270
      2  C          6.2770    3.7390    0.7960 C.2     1  UNL1        0.3030
      3  O          6.7870    4.7520    0.3140 O.2     1  UNL1       -0.2520
      4  O          6.5590    3.4600    2.1430 O.3     1  UNL1       -0.4810
      5  H          6.4050    4.2140    2.7950 H       1  UNL1        0.2960
      6  C          5.3500    1.4630    0.6980 C.3     1  UNL1        0.0470
      7  C          6.1980    0.4190    0.1190 C.2     1  UNL1       -0.0430
      8  C          6.4890    0.3900   -1.2360 C.2     1  UNL1        0.0080
      9  C          6.7010   -0.5870    0.9000 C.2     1  UNL1        0.0540
     10  C          7.2570   -0.6120   -1.7870 C.2     1  UNL1        0.0510
     11  C          7.4740   -1.6020    0.3690 C.2     1  UNL1        0.1660
     12  C          7.7550   -1.6180   -0.9760 C.2     1  UNL1        0.1650
     13  O          8.0780   -2.7010    0.9560 O.2     1  UNL1       -0.4540
     14  O          8.5430   -2.7460   -1.2100 O.2     1  UNL1       -0.4540
     15  C          8.4930   -3.5960   -0.0870 C.3     1  UNL1        0.4680
@<TRIPOS>BOND
     1    10     8    1
     2    10    12    2
     3     8     7    2
     4    14    12    1
     5    14    15    1
     6    12    11    1
     7    15    13    1
     8     1     6    1
     9     1     2    1
    10     7     6    1
    11     7     9    1
    12     3     2    2
    13    11     9    2
    14    11    13    1
    15     2     4    1
    16     4     5    1
