@<TRIPOS>MOLECULE
/home/cewinharhar/GITHUB/reincatalyze/data/processed/docking_pred/2023-May-17-1006_maxeplen10_maxtrainstep1000_seadep16_gamma099_lrac9e-4_lrcr1e-3_sub6/fd0126b23dad862f417327e64da043fff24e40de_ligand_6.pdbqt
 15 16 0 0 0
SMALL
GASTEIGER

@<TRIPOS>ATOM
      1  C          5.4140    2.8510    0.1690 C.3     1  UNL1        0.1270
      2  C          6.1630    3.8300    0.9410 C.2     1  UNL1        0.3030
      3  O          6.1920    3.9030    2.1710 O.2     1  UNL1       -0.2520
      4  O          6.9180    4.7730    0.2270 O.3     1  UNL1       -0.4810
      5  H          7.9190    4.6580    0.2580 H       1  UNL1        0.2960
      6  C          5.3290    1.5200    0.8080 C.3     1  UNL1        0.0470
      7  C          6.0950    0.4280    0.2020 C.2     1  UNL1       -0.0430
      8  C          6.4990   -0.6720    0.9430 C.2     1  UNL1        0.0080
      9  C          6.4690    0.4820   -1.1140 C.2     1  UNL1        0.0540
     10  C          7.2490   -1.6810    0.3830 C.2     1  UNL1        0.0510
     11  C          7.2220   -0.5200   -1.6970 C.2     1  UNL1        0.1660
     12  C          7.6140   -1.6050   -0.9510 C.2     1  UNL1        0.1650
     13  O          7.7060   -0.6750   -2.9840 O.2     1  UNL1       -0.4540
     14  O          8.3500   -2.4330   -1.8000 O.2     1  UNL1       -0.4540
     15  C          8.6820   -1.7280   -2.9740 C.3     1  UNL1        0.4680
@<TRIPOS>BOND
     1    13    15    1
     2    13    11    1
     3    15    14    1
     4    14    12    1
     5    11     9    1
     6    11    12    2
     7     9     7    2
     8    12    10    1
     9     1     6    1
    10     1     2    1
    11     7     6    1
    12     7     8    1
    13     4     5    1
    14     4     2    1
    15    10     8    2
    16     2     3    2
