@<TRIPOS>MOLECULE
/home/cewinharhar/GITHUB/reincatalyze/data/processed/docking_pred/2023-May-17-1006_maxeplen10_maxtrainstep1000_seadep16_gamma099_lrac9e-4_lrcr1e-3_sub6/fd0126b23dad862f417327e64da043fff24e40de_ligand_6.pdbqt
 15 16 0 0 0
SMALL
GASTEIGER

@<TRIPOS>ATOM
      1  C          4.7200    1.8610    0.6900 C.3     1  UNL1        0.1270
      2  C          4.4200    1.1450    1.9190 C.2     1  UNL1        0.3030
      3  O          5.1520    0.3180    2.4650 O.2     1  UNL1       -0.2520
      4  O          3.1900    1.4170    2.5390 O.3     1  UNL1       -0.4810
      5  H          2.5970    0.6220    2.7190 H       1  UNL1        0.2960
      6  C          6.1460    2.2210    0.5380 C.3     1  UNL1        0.0470
      7  C          6.9950    1.3140   -0.2370 C.2     1  UNL1       -0.0430
      8  C          8.3570    1.5370   -0.3760 C.2     1  UNL1        0.0080
      9  C          6.4580    0.2320   -0.8820 C.2     1  UNL1        0.0540
     10  C          9.1500    0.7040   -1.1340 C.2     1  UNL1        0.0510
     11  C          7.2340   -0.6170   -1.6480 C.2     1  UNL1        0.1660
     12  C          8.5820   -0.3840   -1.7760 C.2     1  UNL1        0.1650
     13  O          6.9140   -1.7490   -2.3760 O.2     1  UNL1       -0.4540
     14  O          9.0890   -1.3930   -2.5970 O.2     1  UNL1       -0.4540
     15  C          8.0240   -2.0640   -3.2300 C.3     1  UNL1        0.4680
@<TRIPOS>BOND
     1    15    14    1
     2    15    13    1
     3    14    12    1
     4    13    11    1
     5    12    11    2
     6    12    10    1
     7    11     9    1
     8    10     8    2
     9     9     7    2
    10     8     7    1
    11     7     6    1
    12     6     1    1
    13     1     2    1
    14     2     3    2
    15     2     4    1
    16     4     5    1
