MODEL 1
REMARK VINA RESULT:      -4.0      0.000      0.000
REMARK SMILES O=C(O)CCc1ccc2c(c1)OCO2
REMARK SMILES IDX 4 1 2 2 1 3 3 4 5 6 6 7 7 8 11 9 8 10 10 11 9 12 12 13 14 14
REMARK SMILES IDX 13 15
REMARK H PARENT 3 5
REMARK Flexibility Score: inf
ROOT
ATOM      1  C   UNL     1       7.997  -5.518  11.867  1.00  0.00     0.127 C 
ENDROOT
BRANCH   1   2
ATOM      2  C   UNL     1       7.581  -4.170  11.514  1.00  0.00     0.303 C 
ATOM      3  O   UNL     1       7.227  -3.297  12.308  1.00  0.00    -0.252 OA
BRANCH   2   4
ATOM      4  O   UNL     1       7.581  -3.832  10.151  1.00  0.00    -0.481 OA
ATOM      5  H   UNL     1       7.507  -4.600   9.502  1.00  0.00     0.296 HD
ENDBRANCH   2   4
ENDBRANCH   1   2
BRANCH   1   6
ATOM      6  C   UNL     1       8.406  -6.343  10.710  1.00  0.00     0.047 C 
BRANCH   6   7
ATOM      7  C   UNL     1       9.757  -6.909  10.726  1.00  0.00    -0.043 A 
ATOM      8  C   UNL     1       9.985  -8.247  10.444  1.00  0.00     0.008 A 
ATOM      9  C   UNL     1      10.837  -6.136  11.060  1.00  0.00     0.054 A 
ATOM     10  C   UNL     1      11.250  -8.789  10.494  1.00  0.00     0.051 A 
ATOM     11  C   UNL     1      12.115  -6.658  11.116  1.00  0.00     0.166 A 
ATOM     12  C   UNL     1      12.326  -7.986  10.833  1.00  0.00     0.165 A 
ATOM     13  O   UNL     1      13.332  -6.076  11.423  1.00  0.00    -0.454 OA
ATOM     14  O   UNL     1      13.696  -8.214  10.971  1.00  0.00    -0.454 OA
ATOM     15  C   UNL     1      14.290  -7.124  11.637  1.00  0.00     0.468 C 
ENDBRANCH   6   7
ENDBRANCH   1   6
TORSDOF 4
ENDMDL
MODEL 2
REMARK VINA RESULT:      -4.0      0.862      2.028
REMARK SMILES O=C(O)CCc1ccc2c(c1)OCO2
REMARK SMILES IDX 4 1 2 2 1 3 3 4 5 6 6 7 7 8 11 9 8 10 10 11 9 12 12 13 14 14
REMARK SMILES IDX 13 15
REMARK H PARENT 3 5
REMARK Flexibility Score: inf
ROOT
ATOM      1  C   UNL     1       7.953  -5.531  11.732  1.00  0.00     0.127 C 
ENDROOT
BRANCH   1   2
ATOM      2  C   UNL     1       7.552  -4.194  11.321  1.00  0.00     0.303 C 
ATOM      3  O   UNL     1       7.578  -3.761  10.168  1.00  0.00    -0.252 OA
BRANCH   2   4
ATOM      4  O   UNL     1       7.098  -3.321  12.322  1.00  0.00    -0.481 OA
ATOM      5  H   UNL     1       7.796  -2.736  12.753  1.00  0.00     0.296 HD
ENDBRANCH   2   4
ENDBRANCH   1   2
BRANCH   1   6
ATOM      6  C   UNL     1       8.515  -6.352  10.639  1.00  0.00     0.047 C 
BRANCH   6   7
ATOM      7  C   UNL     1       9.906  -6.791  10.768  1.00  0.00    -0.043 A 
ATOM      8  C   UNL     1      10.899  -5.932  11.215  1.00  0.00     0.008 A 
ATOM      9  C   UNL     1      10.276  -8.060  10.412  1.00  0.00     0.054 A 
ATOM     10  C   UNL     1      12.213  -6.333  11.303  1.00  0.00     0.051 A 
ATOM     11  C   UNL     1      11.589  -8.485  10.493  1.00  0.00     0.166 A 
ATOM     12  C   UNL     1      12.562  -7.623  10.939  1.00  0.00     0.165 A 
ATOM     13  O   UNL     1      12.182  -9.698  10.193  1.00  0.00    -0.454 OA
ATOM     14  O   UNL     1      13.767  -8.326  10.909  1.00  0.00    -0.454 OA
ATOM     15  C   UNL     1      13.604  -9.507  10.158  1.00  0.00     0.468 C 
ENDBRANCH   6   7
ENDBRANCH   1   6
TORSDOF 4
ENDMDL
MODEL 3
REMARK VINA RESULT:      -4.0      1.949      5.744
REMARK SMILES O=C(O)CCc1ccc2c(c1)OCO2
REMARK SMILES IDX 4 1 2 2 1 3 3 4 5 6 6 7 7 8 11 9 8 10 10 11 9 12 12 13 14 14
REMARK SMILES IDX 13 15
REMARK H PARENT 3 5
REMARK Flexibility Score: inf
ROOT
ATOM      1  C   UNL     1      13.225  -9.118   9.306  1.00  0.00     0.127 C 
ENDROOT
BRANCH   1   2
ATOM      2  C   UNL     1      14.276  -8.427   8.574  1.00  0.00     0.303 C 
ATOM      3  O   UNL     1      15.483  -8.660   8.662  1.00  0.00    -0.252 OA
BRANCH   2   4
ATOM      4  O   UNL     1      13.884  -7.407   7.693  1.00  0.00    -0.481 OA
ATOM      5  H   UNL     1      13.662  -7.693   6.752  1.00  0.00     0.296 HD
ENDBRANCH   2   4
ENDBRANCH   1   2
BRANCH   1   6
ATOM      6  C   UNL     1      13.056  -8.650  10.698  1.00  0.00     0.047 C 
BRANCH   6   7
ATOM      7  C   UNL     1      12.094  -7.573  10.938  1.00  0.00    -0.043 A 
ATOM      8  C   UNL     1      12.343  -6.571  11.864  1.00  0.00     0.008 A 
ATOM      9  C   UNL     1      10.895  -7.545  10.277  1.00  0.00     0.054 A 
ATOM     10  C   UNL     1      11.423  -5.578  12.117  1.00  0.00     0.051 A 
ATOM     11  C   UNL     1       9.957  -6.557  10.514  1.00  0.00     0.166 A 
ATOM     12  C   UNL     1      10.218  -5.571  11.435  1.00  0.00     0.165 A 
ATOM     13  O   UNL     1       8.703  -6.333   9.975  1.00  0.00    -0.454 OA
ATOM     14  O   UNL     1       9.102  -4.733  11.454  1.00  0.00    -0.454 OA
ATOM     15  C   UNL     1       8.030  -5.361  10.790  1.00  0.00     0.468 C 
ENDBRANCH   6   7
ENDBRANCH   1   6
TORSDOF 4
ENDMDL
MODEL 4
REMARK VINA RESULT:      -3.8      1.809      2.328
REMARK SMILES O=C(O)CCc1ccc2c(c1)OCO2
REMARK SMILES IDX 4 1 2 2 1 3 3 4 5 6 6 7 7 8 11 9 8 10 10 11 9 12 12 13 14 14
REMARK SMILES IDX 13 15
REMARK H PARENT 3 5
REMARK Flexibility Score: inf
ROOT
ATOM      1  C   UNL     1       7.997  -5.743  10.891  1.00  0.00     0.127 C 
ENDROOT
BRANCH   1   2
ATOM      2  C   UNL     1       8.054  -4.411  11.474  1.00  0.00     0.303 C 
ATOM      3  O   UNL     1       7.259  -3.496  11.252  1.00  0.00    -0.252 OA
BRANCH   2   4
ATOM      4  O   UNL     1       9.104  -4.143  12.366  1.00  0.00    -0.481 OA
ATOM      5  H   UNL     1       8.862  -4.117  13.345  1.00  0.00     0.296 HD
ENDBRANCH   2   4
ENDBRANCH   1   2
BRANCH   1   6
ATOM      6  C   UNL     1       8.002  -6.835  11.888  1.00  0.00     0.047 C 
BRANCH   6   7
ATOM      7  C   UNL     1       8.973  -7.915  11.704  1.00  0.00    -0.043 A 
ATOM      8  C   UNL     1       8.907  -9.084  12.446  1.00  0.00     0.008 A 
ATOM      9  C   UNL     1      10.006  -7.785  10.813  1.00  0.00     0.054 A 
ATOM     10  C   UNL     1       9.840 -10.086  12.300  1.00  0.00     0.051 A 
ATOM     11  C   UNL     1      10.953  -8.777  10.649  1.00  0.00     0.166 A 
ATOM     12  C   UNL     1      10.874  -9.931  11.391  1.00  0.00     0.165 A 
ATOM     13  O   UNL     1      12.061  -8.862   9.824  1.00  0.00    -0.454 OA
ATOM     14  O   UNL     1      11.953 -10.730  11.010  1.00  0.00    -0.454 OA
ATOM     15  C   UNL     1      12.873  -9.958  10.272  1.00  0.00     0.468 C 
ENDBRANCH   6   7
ENDBRANCH   1   6
TORSDOF 4
ENDMDL
MODEL 5
REMARK VINA RESULT:      -3.8      1.602      2.038
REMARK SMILES O=C(O)CCc1ccc2c(c1)OCO2
REMARK SMILES IDX 4 1 2 2 1 3 3 4 5 6 6 7 7 8 11 9 8 10 10 11 9 12 12 13 14 14
REMARK SMILES IDX 13 15
REMARK H PARENT 3 5
REMARK Flexibility Score: inf
ROOT
ATOM      1  C   UNL     1       9.590  -5.354  11.688  1.00  0.00     0.127 C 
ENDROOT
BRANCH   1   2
ATOM      2  C   UNL     1       8.395  -5.289  10.862  1.00  0.00     0.303 C 
ATOM      3  O   UNL     1       7.968  -6.197  10.146  1.00  0.00    -0.252 OA
BRANCH   2   4
ATOM      4  O   UNL     1       7.663  -4.091  10.880  1.00  0.00    -0.481 OA
ATOM      5  H   UNL     1       7.668  -3.554  10.026  1.00  0.00     0.296 HD
ENDBRANCH   2   4
ENDBRANCH   1   2
BRANCH   1   6
ATOM      6  C   UNL     1       9.852  -6.691  12.262  1.00  0.00     0.047 C 
BRANCH   6   7
ATOM      7  C   UNL     1      10.693  -7.607  11.489  1.00  0.00    -0.043 A 
ATOM      8  C   UNL     1      10.370  -8.948  11.353  1.00  0.00     0.008 A 
ATOM      9  C   UNL     1      11.852  -7.169  10.905  1.00  0.00     0.054 A 
ATOM     10  C   UNL     1      11.179  -9.818  10.657  1.00  0.00     0.051 A 
ATOM     11  C   UNL     1      12.679  -8.024  10.201  1.00  0.00     0.166 A 
ATOM     12  C   UNL     1      12.345  -9.350  10.074  1.00  0.00     0.165 A 
ATOM     13  O   UNL     1      13.875  -7.807   9.540  1.00  0.00    -0.454 OA
ATOM     14  O   UNL     1      13.357  -9.950   9.323  1.00  0.00    -0.454 OA
ATOM     15  C   UNL     1      14.466  -9.083   9.249  1.00  0.00     0.468 C 
ENDBRANCH   6   7
ENDBRANCH   1   6
TORSDOF 4
ENDMDL
