@<TRIPOS>MOLECULE
/home/cewinharhar/GITHUB/reincatalyze/data/processed/docking_pred/2023-May-17-1006_maxeplen10_maxtrainstep1000_seadep16_gamma099_lrac9e-4_lrcr1e-3_sub6/fd751eb3811fc03d22e30b1993ea0072812fb772_ligand_6.pdbqt
 15 16 0 0 0
SMALL
GASTEIGER

@<TRIPOS>ATOM
      1  C          9.5900   -5.3540   11.6880 C.3     1  UNL1        0.1270
      2  C          8.3950   -5.2890   10.8620 C.2     1  UNL1        0.3030
      3  O          7.9680   -6.1970   10.1460 O.2     1  UNL1       -0.2520
      4  O          7.6630   -4.0910   10.8800 O.3     1  UNL1       -0.4810
      5  H          7.6680   -3.5540   10.0260 H       1  UNL1        0.2960
      6  C          9.8520   -6.6910   12.2620 C.3     1  UNL1        0.0470
      7  C         10.6930   -7.6070   11.4890 C.2     1  UNL1       -0.0430
      8  C         10.3700   -8.9480   11.3530 C.2     1  UNL1        0.0080
      9  C         11.8520   -7.1690   10.9050 C.2     1  UNL1        0.0540
     10  C         11.1790   -9.8180   10.6570 C.2     1  UNL1        0.0510
     11  C         12.6790   -8.0240   10.2010 C.2     1  UNL1        0.1660
     12  C         12.3450   -9.3500   10.0740 C.2     1  UNL1        0.1650
     13  O         13.8750   -7.8070    9.5400 O.2     1  UNL1       -0.4540
     14  O         13.3570   -9.9500    9.3230 O.2     1  UNL1       -0.4540
     15  C         14.4660   -9.0830    9.2490 C.3     1  UNL1        0.4680
@<TRIPOS>BOND
     1    15    14    1
     2    15    13    1
     3    14    12    1
     4    13    11    1
     5     5     4    1
     6    12    11    2
     7    12    10    1
     8     3     2    2
     9    11     9    1
    10    10     8    2
    11     2     4    1
    12     2     1    1
    13     9     7    2
    14     8     7    1
    15     7     6    1
    16     1     6    1
