@<TRIPOS>MOLECULE
/home/cewinharhar/GITHUB/reincatalyze/data/processed/docking_pred/2023-May-17-1006_maxeplen10_maxtrainstep1000_seadep16_gamma099_lrac9e-4_lrcr1e-3_sub6/fd751eb3811fc03d22e30b1993ea0072812fb772_ligand_6.pdbqt
 15 16 0 0 0
SMALL
GASTEIGER

@<TRIPOS>ATOM
      1  C         13.2250   -9.1180    9.3060 C.3     1  UNL1        0.1270
      2  C         14.2760   -8.4270    8.5740 C.2     1  UNL1        0.3030
      3  O         15.4830   -8.6600    8.6620 O.2     1  UNL1       -0.2520
      4  O         13.8840   -7.4070    7.6930 O.3     1  UNL1       -0.4810
      5  H         13.6620   -7.6930    6.7520 H       1  UNL1        0.2960
      6  C         13.0560   -8.6500   10.6980 C.3     1  UNL1        0.0470
      7  C         12.0940   -7.5730   10.9380 C.2     1  UNL1       -0.0430
      8  C         12.3430   -6.5710   11.8640 C.2     1  UNL1        0.0080
      9  C         10.8950   -7.5450   10.2770 C.2     1  UNL1        0.0540
     10  C         11.4230   -5.5780   12.1170 C.2     1  UNL1        0.0510
     11  C          9.9570   -6.5570   10.5140 C.2     1  UNL1        0.1660
     12  C         10.2180   -5.5710   11.4350 C.2     1  UNL1        0.1650
     13  O          8.7030   -6.3330    9.9750 O.2     1  UNL1       -0.4540
     14  O          9.1020   -4.7330   11.4540 O.2     1  UNL1       -0.4540
     15  C          8.0300   -5.3610   10.7900 C.3     1  UNL1        0.4680
@<TRIPOS>BOND
     1     5     4    1
     2     4     2    1
     3     2     3    2
     4     2     1    1
     5     1     6    1
     6    13    11    1
     7    13    15    1
     8     9    11    1
     9     9     7    2
    10    11    12    2
    11     6     7    1
    12    15    14    1
    13     7     8    1
    14    12    14    1
    15    12    10    1
    16     8    10    2
