@<TRIPOS>MOLECULE
/home/cewinharhar/GITHUB/reincatalyze/data/processed/docking_pred/2023-May-17-1006_maxeplen10_maxtrainstep1000_seadep16_gamma099_lrac9e-4_lrcr1e-3_sub6/fd751eb3811fc03d22e30b1993ea0072812fb772_ligand_6.pdbqt
 15 16 0 0 0
SMALL
GASTEIGER

@<TRIPOS>ATOM
      1  C          7.9970   -5.7430   10.8910 C.3     1  UNL1        0.1270
      2  C          8.0540   -4.4110   11.4740 C.2     1  UNL1        0.3030
      3  O          7.2590   -3.4960   11.2520 O.2     1  UNL1       -0.2520
      4  O          9.1040   -4.1430   12.3660 O.3     1  UNL1       -0.4810
      5  H          8.8620   -4.1170   13.3450 H       1  UNL1        0.2960
      6  C          8.0020   -6.8350   11.8880 C.3     1  UNL1        0.0470
      7  C          8.9730   -7.9150   11.7040 C.2     1  UNL1       -0.0430
      8  C          8.9070   -9.0840   12.4460 C.2     1  UNL1        0.0080
      9  C         10.0060   -7.7850   10.8130 C.2     1  UNL1        0.0540
     10  C          9.8400  -10.0860   12.3000 C.2     1  UNL1        0.0510
     11  C         10.9530   -8.7770   10.6490 C.2     1  UNL1        0.1660
     12  C         10.8740   -9.9310   11.3910 C.2     1  UNL1        0.1650
     13  O         12.0610   -8.8620    9.8240 O.2     1  UNL1       -0.4540
     14  O         11.9530  -10.7300   11.0100 O.2     1  UNL1       -0.4540
     15  C         12.8730   -9.9580   10.2720 C.3     1  UNL1        0.4680
@<TRIPOS>BOND
     1    13    15    1
     2    13    11    1
     3    15    14    1
     4    11     9    1
     5    11    12    2
     6     9     7    2
     7     1     2    1
     8     1     6    1
     9    14    12    1
    10     3     2    2
    11    12    10    1
    12     2     4    1
    13     7     6    1
    14     7     8    1
    15    10     8    2
    16     4     5    1
