@<TRIPOS>MOLECULE
/home/cewinharhar/GITHUB/reincatalyze/data/processed/docking_pred/2023-May-17-1006_maxeplen10_maxtrainstep1000_seadep16_gamma099_lrac9e-4_lrcr1e-3_sub6/fd751eb3811fc03d22e30b1993ea0072812fb772_ligand_6.pdbqt
 15 16 0 0 0
SMALL
GASTEIGER

@<TRIPOS>ATOM
      1  C          7.9530   -5.5310   11.7320 C.3     1  UNL1        0.1270
      2  C          7.5520   -4.1940   11.3210 C.2     1  UNL1        0.3030
      3  O          7.5780   -3.7610   10.1680 O.2     1  UNL1       -0.2520
      4  O          7.0980   -3.3210   12.3220 O.3     1  UNL1       -0.4810
      5  H          7.7960   -2.7360   12.7530 H       1  UNL1        0.2960
      6  C          8.5150   -6.3520   10.6390 C.3     1  UNL1        0.0470
      7  C          9.9060   -6.7910   10.7680 C.2     1  UNL1       -0.0430
      8  C         10.8990   -5.9320   11.2150 C.2     1  UNL1        0.0080
      9  C         10.2760   -8.0600   10.4120 C.2     1  UNL1        0.0540
     10  C         12.2130   -6.3330   11.3030 C.2     1  UNL1        0.0510
     11  C         11.5890   -8.4850   10.4930 C.2     1  UNL1        0.1660
     12  C         12.5620   -7.6230   10.9390 C.2     1  UNL1        0.1650
     13  O         12.1820   -9.6980   10.1930 O.2     1  UNL1       -0.4540
     14  O         13.7670   -8.3260   10.9090 O.2     1  UNL1       -0.4540
     15  C         13.6040   -9.5070   10.1580 C.3     1  UNL1        0.4680
@<TRIPOS>BOND
     1    15    13    1
     2    15    14    1
     3     3     2    2
     4    13    11    1
     5     9    11    1
     6     9     7    2
     7    11    12    2
     8     6     7    1
     9     6     1    1
    10     7     8    1
    11    14    12    1
    12    12    10    1
    13     8    10    2
    14     2     1    1
    15     2     4    1
    16     4     5    1
