@<TRIPOS>MOLECULE
/home/cewinharhar/GITHUB/reincatalyze/data/processed/docking_pred/2023-May-17-1006_maxeplen10_maxtrainstep1000_seadep16_gamma099_lrac9e-4_lrcr1e-3_sub6/fd751eb3811fc03d22e30b1993ea0072812fb772_ligand_6.pdbqt
 15 16 0 0 0
SMALL
GASTEIGER

@<TRIPOS>ATOM
      1  C          7.9970   -5.5180   11.8670 C.3     1  UNL1        0.1270
      2  C          7.5810   -4.1700   11.5140 C.2     1  UNL1        0.3030
      3  O          7.2270   -3.2970   12.3080 O.2     1  UNL1       -0.2520
      4  O          7.5810   -3.8320   10.1510 O.3     1  UNL1       -0.4810
      5  H          7.5070   -4.6000    9.5020 H       1  UNL1        0.2960
      6  C          8.4060   -6.3430   10.7100 C.3     1  UNL1        0.0470
      7  C          9.7570   -6.9090   10.7260 C.2     1  UNL1       -0.0430
      8  C          9.9850   -8.2470   10.4440 C.2     1  UNL1        0.0080
      9  C         10.8370   -6.1360   11.0600 C.2     1  UNL1        0.0540
     10  C         11.2500   -8.7890   10.4940 C.2     1  UNL1        0.0510
     11  C         12.1150   -6.6580   11.1160 C.2     1  UNL1        0.1660
     12  C         12.3260   -7.9860   10.8330 C.2     1  UNL1        0.1650
     13  O         13.3320   -6.0760   11.4230 O.2     1  UNL1       -0.4540
     14  O         13.6960   -8.2140   10.9710 O.2     1  UNL1       -0.4540
     15  C         14.2900   -7.1240   11.6370 C.3     1  UNL1        0.4680
@<TRIPOS>BOND
     1     5     4    1
     2     4     2    1
     3     8    10    1
     4     8     7    2
     5    10    12    2
     6     6     7    1
     7     6     1    1
     8     7     9    1
     9    12    14    1
    10    12    11    1
    11    14    15    1
    12     9    11    2
    13    11    13    1
    14    13    15    1
    15     2     1    1
    16     2     3    2
