@<TRIPOS>MOLECULE
/home/cewinharhar/GITHUB/reincatalyze/data/processed/docking_pred/2023-May-17-1006_maxeplen10_maxtrainstep1000_seadep16_gamma099_lrac9e-4_lrcr1e-3_sub6/ff0363d9ee1910d446632d9597fe578fef33cb13_ligand_6.pdbqt
 15 16 0 0 0
SMALL
GASTEIGER

@<TRIPOS>ATOM
      1  C          8.3030   -0.3330   -2.8480 C.3     1  UNL1        0.1270
      2  C          8.4670   -1.7600   -3.0780 C.2     1  UNL1        0.3030
      3  O          9.5350   -2.3730   -3.0460 O.2     1  UNL1       -0.2520
      4  O          7.3110   -2.5040   -3.3610 O.3     1  UNL1       -0.4810
      5  H          7.3730   -3.4980   -3.2080 H       1  UNL1        0.2960
      6  C          8.7560    0.1160   -1.5140 C.3     1  UNL1        0.0470
      7  C          7.7850    0.0730   -0.4190 C.2     1  UNL1       -0.0430
      8  C          7.7310   -0.9970    0.4610 C.2     1  UNL1        0.0080
      9  C          6.8690    1.0780   -0.2550 C.2     1  UNL1        0.0540
     10  C          6.7950   -1.0560    1.4690 C.2     1  UNL1        0.0510
     11  C          5.9210    1.0410    0.7500 C.2     1  UNL1        0.1660
     12  C          5.8800   -0.0260    1.6150 C.2     1  UNL1        0.1650
     13  O          4.9170    1.9270    1.0980 O.2     1  UNL1       -0.4540
     14  O          4.8330    0.2170    2.5050 O.2     1  UNL1       -0.4540
     15  C          4.0290    1.2630    2.0100 C.3     1  UNL1        0.4680
@<TRIPOS>BOND
     1     4     5    1
     2     4     2    1
     3     2     3    2
     4     2     1    1
     5     1     6    1
     6     6     7    1
     7     7     9    2
     8     7     8    1
     9     9    11    1
    10     8    10    2
    11    11    13    1
    12    11    12    2
    13    13    15    1
    14    10    12    1
    15    12    14    1
    16    15    14    1
