MODEL 1
REMARK VINA RESULT:      -7.7      0.000      0.000
REMARK SMILES O=C(O)CCc1ccc2c(c1)OCO2
REMARK SMILES IDX 4 1 2 2 1 3 3 4 5 6 6 7 7 8 11 9 8 10 10 11 9 12 12 13 14 14
REMARK SMILES IDX 13 15
REMARK H PARENT 3 5
REMARK Flexibility Score: inf
ROOT
ATOM      1  C   UNL     1       5.407   2.864   0.142  1.00  0.00     0.127 C 
ENDROOT
BRANCH   1   2
ATOM      2  C   UNL     1       6.236   3.849   0.819  1.00  0.00     0.303 C 
ATOM      3  O   UNL     1       6.858   4.761   0.272  1.00  0.00    -0.252 OA
BRANCH   2   4
ATOM      4  O   UNL     1       6.336   3.755   2.216  1.00  0.00    -0.481 OA
ATOM      5  H   UNL     1       5.650   4.268   2.748  1.00  0.00     0.296 HD
ENDBRANCH   2   4
ENDBRANCH   1   2
BRANCH   1   6
ATOM      6  C   UNL     1       5.344   1.557   0.831  1.00  0.00     0.047 C 
BRANCH   6   7
ATOM      7  C   UNL     1       6.126   0.455   0.265  1.00  0.00    -0.043 A 
ATOM      8  C   UNL     1       6.600  -0.579   1.058  1.00  0.00     0.008 A 
ATOM      9  C   UNL     1       6.445   0.435  -1.067  1.00  0.00     0.054 A 
ATOM     10  C   UNL     1       7.365  -1.597   0.534  1.00  0.00     0.051 A 
ATOM     11  C   UNL     1       7.211  -0.577  -1.615  1.00  0.00     0.166 A 
ATOM     12  C   UNL     1       7.674  -1.596  -0.817  1.00  0.00     0.165 A 
ATOM     13  O   UNL     1       7.650  -0.799  -2.908  1.00  0.00    -0.454 OA
ATOM     14  O   UNL     1       8.406  -2.452  -1.641  1.00  0.00    -0.454 OA
ATOM     15  C   UNL     1       8.664  -1.814  -2.871  1.00  0.00     0.468 C 
ENDBRANCH   6   7
ENDBRANCH   1   6
TORSDOF 4
ENDMDL
MODEL 2
REMARK VINA RESULT:      -7.6      2.134      2.519
REMARK SMILES O=C(O)CCc1ccc2c(c1)OCO2
REMARK SMILES IDX 4 1 2 2 1 3 3 4 5 6 6 7 7 8 11 9 8 10 10 11 9 12 12 13 14 14
REMARK SMILES IDX 13 15
REMARK H PARENT 3 5
REMARK Flexibility Score: inf
ROOT
ATOM      1  C   UNL     1       4.743   1.887   0.704  1.00  0.00     0.127 C 
ENDROOT
BRANCH   1   2
ATOM      2  C   UNL     1       4.412   1.159   1.919  1.00  0.00     0.303 C 
ATOM      3  O   UNL     1       5.120   0.309   2.461  1.00  0.00    -0.252 OA
BRANCH   2   4
ATOM      4  O   UNL     1       3.181   1.449   2.528  1.00  0.00    -0.481 OA
ATOM      5  H   UNL     1       2.906   2.419   2.537  1.00  0.00     0.296 HD
ENDBRANCH   2   4
ENDBRANCH   1   2
BRANCH   1   6
ATOM      6  C   UNL     1       6.178   2.220   0.576  1.00  0.00     0.047 C 
BRANCH   6   7
ATOM      7  C   UNL     1       7.015   1.316  -0.216  1.00  0.00    -0.043 A 
ATOM      8  C   UNL     1       8.373   1.543  -0.380  1.00  0.00     0.008 A 
ATOM      9  C   UNL     1       6.468   0.235  -0.855  1.00  0.00     0.054 A 
ATOM     10  C   UNL     1       9.154   0.714  -1.154  1.00  0.00     0.051 A 
ATOM     11  C   UNL     1       7.233  -0.610  -1.637  1.00  0.00     0.166 A 
ATOM     12  C   UNL     1       8.578  -0.374  -1.789  1.00  0.00     0.165 A 
ATOM     13  O   UNL     1       6.902  -1.741  -2.362  1.00  0.00    -0.454 OA
ATOM     14  O   UNL     1       9.072  -1.380  -2.622  1.00  0.00    -0.454 OA
ATOM     15  C   UNL     1       7.997  -2.051  -3.237  1.00  0.00     0.468 C 
ENDBRANCH   6   7
ENDBRANCH   1   6
TORSDOF 4
ENDMDL
MODEL 3
REMARK VINA RESULT:      -7.5      1.797      5.284
REMARK SMILES O=C(O)CCc1ccc2c(c1)OCO2
REMARK SMILES IDX 4 1 2 2 1 3 3 4 5 6 6 7 7 8 11 9 8 10 10 11 9 12 12 13 14 14
REMARK SMILES IDX 13 15
REMARK H PARENT 3 5
REMARK Flexibility Score: inf
ROOT
ATOM      1  C   UNL     1       8.303  -0.333  -2.848  1.00  0.00     0.127 C 
ENDROOT
BRANCH   1   2
ATOM      2  C   UNL     1       8.467  -1.760  -3.078  1.00  0.00     0.303 C 
ATOM      3  O   UNL     1       9.535  -2.373  -3.046  1.00  0.00    -0.252 OA
BRANCH   2   4
ATOM      4  O   UNL     1       7.311  -2.504  -3.361  1.00  0.00    -0.481 OA
ATOM      5  H   UNL     1       7.373  -3.498  -3.208  1.00  0.00     0.296 HD
ENDBRANCH   2   4
ENDBRANCH   1   2
BRANCH   1   6
ATOM      6  C   UNL     1       8.756   0.116  -1.514  1.00  0.00     0.047 C 
BRANCH   6   7
ATOM      7  C   UNL     1       7.785   0.073  -0.419  1.00  0.00    -0.043 A 
ATOM      8  C   UNL     1       7.731  -0.997   0.461  1.00  0.00     0.008 A 
ATOM      9  C   UNL     1       6.869   1.078  -0.255  1.00  0.00     0.054 A 
ATOM     10  C   UNL     1       6.795  -1.056   1.469  1.00  0.00     0.051 A 
ATOM     11  C   UNL     1       5.921   1.041   0.750  1.00  0.00     0.166 A 
ATOM     12  C   UNL     1       5.880  -0.026   1.615  1.00  0.00     0.165 A 
ATOM     13  O   UNL     1       4.917   1.927   1.098  1.00  0.00    -0.454 OA
ATOM     14  O   UNL     1       4.833   0.217   2.505  1.00  0.00    -0.454 OA
ATOM     15  C   UNL     1       4.029   1.263   2.010  1.00  0.00     0.468 C 
ENDBRANCH   6   7
ENDBRANCH   1   6
TORSDOF 4
ENDMDL
MODEL 4
REMARK VINA RESULT:      -7.4      1.938      2.847
REMARK SMILES O=C(O)CCc1ccc2c(c1)OCO2
REMARK SMILES IDX 4 1 2 2 1 3 3 4 5 6 6 7 7 8 11 9 8 10 10 11 9 12 12 13 14 14
REMARK SMILES IDX 13 15
REMARK H PARENT 3 5
REMARK Flexibility Score: inf
ROOT
ATOM      1  C   UNL     1       6.393   1.356   0.625  1.00  0.00     0.127 C 
ENDROOT
BRANCH   1   2
ATOM      2  C   UNL     1       5.181   1.338   1.428  1.00  0.00     0.303 C 
ATOM      3  O   UNL     1       4.253   2.145   1.343  1.00  0.00    -0.252 OA
BRANCH   2   4
ATOM      4  O   UNL     1       5.054   0.317   2.382  1.00  0.00    -0.481 OA
ATOM      5  H   UNL     1       5.166  -0.626   2.043  1.00  0.00     0.296 HD
ENDBRANCH   2   4
ENDBRANCH   1   2
BRANCH   1   6
ATOM      6  C   UNL     1       6.196   0.905  -0.770  1.00  0.00     0.047 C 
BRANCH   6   7
ATOM      7  C   UNL     1       6.967  -0.255  -1.222  1.00  0.00    -0.043 A 
ATOM      8  C   UNL     1       7.298  -0.429  -2.557  1.00  0.00     0.008 A 
ATOM      9  C   UNL     1       7.352  -1.228  -0.338  1.00  0.00     0.054 A 
ATOM     10  C   UNL     1       7.992  -1.538  -2.989  1.00  0.00     0.051 A 
ATOM     11  C   UNL     1       8.049  -2.348  -0.749  1.00  0.00     0.166 A 
ATOM     12  C   UNL     1       8.372  -2.507  -2.075  1.00  0.00     0.165 A 
ATOM     13  O   UNL     1       8.533  -3.438  -0.047  1.00  0.00    -0.454 OA
ATOM     14  O   UNL     1       9.063  -3.715  -2.180  1.00  0.00    -0.454 OA
ATOM     15  C   UNL     1       8.901  -4.454  -0.991  1.00  0.00     0.468 C 
ENDBRANCH   6   7
ENDBRANCH   1   6
TORSDOF 4
ENDMDL
