@<TRIPOS>MOLECULE
/home/cewinharhar/GITHUB/reincatalyze/data/processed/docking_pred/2023-May-17-1006_maxeplen10_maxtrainstep1000_seadep16_gamma099_lrac9e-4_lrcr1e-3_sub6/ff0363d9ee1910d446632d9597fe578fef33cb13_ligand_6.pdbqt
 15 16 0 0 0
SMALL
GASTEIGER

@<TRIPOS>ATOM
      1  C          5.3940    2.7840    0.2360 C.3     1  UNL1        0.1270
      2  C          6.1470    3.7930    0.9640 C.2     1  UNL1        0.3030
      3  O          6.1790    3.9180    2.1900 O.2     1  UNL1       -0.2520
      4  O          6.9010    4.7050    0.2090 O.3     1  UNL1       -0.4810
      5  H          6.5810    5.6610    0.2160 H       1  UNL1        0.2960
      6  C          5.4270    1.4440    0.8610 C.3     1  UNL1        0.0470
      7  C          6.2420    0.4140    0.2130 C.2     1  UNL1       -0.0430
      8  C          6.4790    0.4300   -1.1530 C.2     1  UNL1        0.0080
      9  C          6.7650   -0.6240    0.9380 C.2     1  UNL1        0.0540
     10  C          7.2150   -0.5570   -1.7690 C.2     1  UNL1        0.0510
     11  C          7.5070   -1.6250    0.3410 C.2     1  UNL1        0.1660
     12  C          7.7350   -1.5960   -1.0130 C.2     1  UNL1        0.1650
     13  O          8.1220   -2.7490    0.8650 O.2     1  UNL1       -0.4540
     14  O          8.5020   -2.7220   -1.3180 O.2     1  UNL1       -0.4540
     15  C          8.4870   -3.6100   -0.2240 C.3     1  UNL1        0.4680
@<TRIPOS>BOND
     1    10     8    1
     2    10    12    2
     3    14    12    1
     4    14    15    1
     5     8     7    2
     6    12    11    1
     7    15    13    1
     8     4     5    1
     9     4     2    1
    10     7     6    1
    11     7     9    1
    12     1     6    1
    13     1     2    1
    14    11    13    1
    15    11     9    2
    16     2     3    2
