@<TRIPOS>MOLECULE
/home/cewinharhar/GITHUB/reincatalyze/data/processed/docking_pred/2023-May-17-1006_maxeplen10_maxtrainstep1000_seadep16_gamma099_lrac9e-4_lrcr1e-3_sub6/ff0363d9ee1910d446632d9597fe578fef33cb13_ligand_6.pdbqt
 15 16 0 0 0
SMALL
GASTEIGER

@<TRIPOS>ATOM
      1  C          4.7430    1.8870    0.7040 C.3     1  UNL1        0.1270
      2  C          4.4120    1.1590    1.9190 C.2     1  UNL1        0.3030
      3  O          5.1200    0.3090    2.4610 O.2     1  UNL1       -0.2520
      4  O          3.1810    1.4490    2.5280 O.3     1  UNL1       -0.4810
      5  H          2.9060    2.4190    2.5370 H       1  UNL1        0.2960
      6  C          6.1780    2.2200    0.5760 C.3     1  UNL1        0.0470
      7  C          7.0150    1.3160   -0.2160 C.2     1  UNL1       -0.0430
      8  C          8.3730    1.5430   -0.3800 C.2     1  UNL1        0.0080
      9  C          6.4680    0.2350   -0.8550 C.2     1  UNL1        0.0540
     10  C          9.1540    0.7140   -1.1540 C.2     1  UNL1        0.0510
     11  C          7.2330   -0.6100   -1.6370 C.2     1  UNL1        0.1660
     12  C          8.5780   -0.3740   -1.7890 C.2     1  UNL1        0.1650
     13  O          6.9020   -1.7410   -2.3620 O.2     1  UNL1       -0.4540
     14  O          9.0720   -1.3800   -2.6220 O.2     1  UNL1       -0.4540
     15  C          7.9970   -2.0510   -3.2370 C.3     1  UNL1        0.4680
@<TRIPOS>BOND
     1    15    14    1
     2    15    13    1
     3    14    12    1
     4    13    11    1
     5    12    11    2
     6    12    10    1
     7    11     9    1
     8    10     8    2
     9     9     7    2
    10     8     7    1
    11     7     6    1
    12     6     1    1
    13     1     2    1
    14     2     3    2
    15     2     4    1
    16     4     5    1
