@<TRIPOS>MOLECULE
/home/cewinharhar/GITHUB/reincatalyze/data/processed/docking_pred/2023-May-17-1006_maxeplen10_maxtrainstep1000_seadep16_gamma099_lrac9e-4_lrcr1e-3_sub6/ff0363d9ee1910d446632d9597fe578fef33cb13_ligand_6.pdbqt
 15 16 0 0 0
SMALL
GASTEIGER

@<TRIPOS>ATOM
      1  C          6.3930    1.3560    0.6250 C.3     1  UNL1        0.1270
      2  C          5.1810    1.3380    1.4280 C.2     1  UNL1        0.3030
      3  O          4.2530    2.1450    1.3430 O.2     1  UNL1       -0.2520
      4  O          5.0540    0.3170    2.3820 O.3     1  UNL1       -0.4810
      5  H          5.1660   -0.6260    2.0430 H       1  UNL1        0.2960
      6  C          6.1960    0.9050   -0.7700 C.3     1  UNL1        0.0470
      7  C          6.9670   -0.2550   -1.2220 C.2     1  UNL1       -0.0430
      8  C          7.2980   -0.4290   -2.5570 C.2     1  UNL1        0.0080
      9  C          7.3520   -1.2280   -0.3380 C.2     1  UNL1        0.0540
     10  C          7.9920   -1.5380   -2.9890 C.2     1  UNL1        0.0510
     11  C          8.0490   -2.3480   -0.7490 C.2     1  UNL1        0.1660
     12  C          8.3720   -2.5070   -2.0750 C.2     1  UNL1        0.1650
     13  O          8.5330   -3.4380   -0.0470 O.2     1  UNL1       -0.4540
     14  O          9.0630   -3.7150   -2.1800 O.2     1  UNL1       -0.4540
     15  C          8.9010   -4.4540   -0.9910 C.3     1  UNL1        0.4680
@<TRIPOS>BOND
     1    10     8    1
     2    10    12    2
     3     8     7    2
     4    14    12    1
     5    14    15    1
     6    12    11    1
     7     7     6    1
     8     7     9    1
     9    15    13    1
    10     6     1    1
    11    11     9    2
    12    11    13    1
    13     1     2    1
    14     3     2    2
    15     2     4    1
    16     5     4    1
