@<TRIPOS>MOLECULE
/home/cewinharhar/GITHUB/reincatalyze/data/processed/docking_pred/2023-May-22-2206_sub9_nm5_bs15_s42_ex16_mel10_mts10000_k50_ec02_g099_lra9e-4_lrc1e-3/00fabcb6e86abbd64330e8a307762c5d347247e8_ligand_9.pdbqt
 14 15 0 0 0
SMALL
GASTEIGER

@<TRIPOS>ATOM
      1  C          6.7280    0.5900    1.2860 C.3     1  UNL1        0.0800
      2  C          5.3600    1.1660    1.4010 C.2     1  UNL1        0.1300
      3  C          4.8410    2.1500    0.4120 C.3     1  UNL1        0.0870
      4  O          4.6190    0.8460    2.3160 O.2     1  UNL1       -0.3000
      5  C          7.3080    0.8180   -0.0960 C.3     1  UNL1        0.0430
      6  C          7.6920   -0.4490   -0.7430 C.2     1  UNL1       -0.0440
      7  C          7.7470   -0.5730   -2.1360 C.2     1  UNL1        0.0080
      8  C          8.0080   -1.5420    0.0310 C.2     1  UNL1        0.0540
      9  C          8.1140   -1.7870   -2.6880 C.2     1  UNL1        0.0510
     10  C          8.3800   -2.7670   -0.5310 C.2     1  UNL1        0.1660
     11  C          8.4330   -2.8910   -1.9020 C.2     1  UNL1        0.1650
     12  O          8.7350   -3.9820    0.0140 O.2     1  UNL1       -0.4540
     13  O          8.8250   -4.1920   -2.1720 O.2     1  UNL1       -0.4540
     14  C          9.1150   -4.8930   -0.9860 C.3     1  UNL1        0.4680
@<TRIPOS>BOND
     1     9     7    1
     2     9    11    2
     3    13    11    1
     4    13    14    1
     5     7     6    2
     6    11    10    1
     7    14    12    1
     8     6     5    1
     9     6     8    1
    10    10    12    1
    11    10     8    2
    12     5     1    1
    13     3     2    1
    14     1     2    1
    15     2     4    2
