@<TRIPOS>MOLECULE
/home/cewinharhar/GITHUB/reincatalyze/data/processed/docking_pred/2023-May-22-2206_sub9_nm5_bs15_s42_ex16_mel10_mts10000_k50_ec02_g099_lra9e-4_lrc1e-3/01f25cbd7413d58f388abe94d9cfceb48e05f66f_ligand_9.pdbqt
 14 15 0 0 0
SMALL
GASTEIGER

@<TRIPOS>ATOM
      1  C          5.4590   -0.0240    2.0080 C.3     1  UNL1        0.0800
      2  C          4.5860    1.1560    1.7580 C.2     1  UNL1        0.1300
      3  C          4.8980    2.1470    0.6940 C.3     1  UNL1        0.0870
      4  O          3.5810    1.3450    2.4250 O.2     1  UNL1       -0.3000
      5  C          6.8820    0.2380    1.5550 C.3     1  UNL1        0.0430
      6  C          7.3040   -0.7060    0.5060 C.2     1  UNL1       -0.0440
      7  C          7.1860   -0.3920   -0.8530 C.2     1  UNL1        0.0080
      8  C          7.8300   -1.9280    0.8590 C.2     1  UNL1        0.0540
      9  C          7.6000   -1.3180   -1.7940 C.2     1  UNL1        0.0510
     10  C          8.2480   -2.8600   -0.0960 C.2     1  UNL1        0.1660
     11  C          8.1310   -2.5520   -1.4330 C.2     1  UNL1        0.1650
     12  O          8.7940   -4.1220   -0.0010 O.2     1  UNL1       -0.4540
     13  O          8.6140   -3.6430   -2.1390 O.2     1  UNL1       -0.4540
     14  C          9.1290   -4.6240   -1.2700 C.3     1  UNL1        0.4680
@<TRIPOS>BOND
     1    13    11    1
     2    13    14    1
     3     9    11    2
     4     9     7    1
     5    11    10    1
     6    14    12    1
     7     7     6    2
     8    10    12    1
     9    10     8    2
    10     6     8    1
    11     6     5    1
    12     3     2    1
    13     5     1    1
    14     2     1    1
    15     2     4    2
