@<TRIPOS>MOLECULE
/home/cewinharhar/GITHUB/reincatalyze/data/processed/docking_pred/2023-May-22-2206_sub9_nm5_bs15_s42_ex16_mel10_mts10000_k50_ec02_g099_lra9e-4_lrc1e-3/01f25cbd7413d58f388abe94d9cfceb48e05f66f_ligand_9.pdbqt
 14 15 0 0 0
SMALL
GASTEIGER

@<TRIPOS>ATOM
      1  C          5.3340   -0.0720    1.9780 C.3     1  UNL1        0.0800
      2  C          4.4650    1.1240    1.7980 C.2     1  UNL1        0.1300
      3  C          4.7450    2.1430    0.7510 C.3     1  UNL1        0.0870
      4  O          3.4910    1.3040    2.5100 O.2     1  UNL1       -0.3000
      5  C          6.8020    0.3000    1.9090 C.3     1  UNL1        0.0430
      6  C          7.3930   -0.0490    0.6040 C.2     1  UNL1       -0.0440
      7  C          7.8350    0.9360   -0.2870 C.2     1  UNL1        0.0080
      8  C          7.5210   -1.3710    0.2440 C.2     1  UNL1        0.0540
      9  C          8.3820    0.5500   -1.4970 C.2     1  UNL1        0.0510
     10  C          8.0760   -1.7570   -0.9800 C.2     1  UNL1        0.1660
     11  C          8.5090   -0.7880   -1.8580 C.2     1  UNL1        0.1650
     12  O          8.3080   -2.9850   -1.5610 O.2     1  UNL1       -0.4540
     13  O          9.0050   -1.4490   -2.9710 O.2     1  UNL1       -0.4540
     14  C          8.9800   -2.8440   -2.7860 C.3     1  UNL1        0.4680
@<TRIPOS>BOND
     1    13    14    1
     2    13    11    1
     3    14    12    1
     4    11     9    2
     5    11    10    1
     6    12    10    1
     7     9     7    1
     8    10     8    2
     9     7     6    2
    10     8     6    1
    11     6     5    1
    12     3     2    1
    13     2     1    1
    14     2     4    2
    15     5     1    1
