@<TRIPOS>MOLECULE
/home/cewinharhar/GITHUB/reincatalyze/data/processed/docking_pred/2023-May-22-2206_sub9_nm5_bs15_s42_ex16_mel10_mts10000_k50_ec02_g099_lra9e-4_lrc1e-3/01f25cbd7413d58f388abe94d9cfceb48e05f66f_ligand_9.pdbqt
 14 15 0 0 0
SMALL
GASTEIGER

@<TRIPOS>ATOM
      1  C          5.5520    1.9220    1.2640 C.3     1  UNL1        0.0800
      2  C          5.1150    0.7100    2.0110 C.2     1  UNL1        0.1300
      3  C          6.0150   -0.4590    2.1990 C.3     1  UNL1        0.0870
      4  O          3.9960    0.6410    2.4940 O.2     1  UNL1       -0.3000
      5  C          5.4170    1.7240   -0.2330 C.3     1  UNL1        0.0430
      6  C          6.5830    1.0200   -0.7980 C.2     1  UNL1       -0.0440
      7  C          7.8910    1.4510   -0.5490 C.2     1  UNL1        0.0080
      8  C          6.3920   -0.0900   -1.5880 C.2     1  UNL1        0.0540
      9  C          8.9450    0.7510   -1.1060 C.2     1  UNL1        0.0510
     10  C          7.4610   -0.7950   -2.1480 C.2     1  UNL1        0.1660
     11  C          8.7490   -0.3710   -1.9050 C.2     1  UNL1        0.1650
     12  O          7.5310   -1.9110   -2.9560 O.2     1  UNL1       -0.4540
     13  O          9.5910   -1.2440   -2.5740 O.2     1  UNL1       -0.4540
     14  C          8.8660   -2.2880   -3.1790 C.3     1  UNL1        0.4680
@<TRIPOS>BOND
     1    14    12    1
     2    14    13    1
     3    12    10    1
     4    13    11    1
     5    10    11    2
     6    10     8    1
     7    11     9    1
     8     8     6    2
     9     9     7    2
    10     6     7    1
    11     6     5    1
    12     5     1    1
    13     1     2    1
    14     2     3    1
    15     2     4    2
