@<TRIPOS>MOLECULE
/home/cewinharhar/GITHUB/reincatalyze/data/processed/docking_pred/2023-May-22-2206_sub9_nm5_bs15_s42_ex16_mel10_mts10000_k50_ec02_g099_lra9e-4_lrc1e-3/01f25cbd7413d58f388abe94d9cfceb48e05f66f_ligand_9.pdbqt
 14 15 0 0 0
SMALL
GASTEIGER

@<TRIPOS>ATOM
      1  C          5.7570    1.3980   -0.2470 C.3     1  UNL1        0.0800
      2  C          5.1070    1.2740    1.0870 C.2     1  UNL1        0.1300
      3  C          5.3800    0.1180    1.9840 C.3     1  UNL1        0.0870
      4  O          4.3260    2.1220    1.4860 O.2     1  UNL1       -0.3000
      5  C          7.2450    1.1240   -0.1630 C.3     1  UNL1        0.0430
      6  C          7.6010   -0.1590   -0.7960 C.2     1  UNL1       -0.0440
      7  C          7.6290   -0.3070   -2.1870 C.2     1  UNL1        0.0080
      8  C          7.9190   -1.2430   -0.0090 C.2     1  UNL1        0.0540
      9  C          7.9710   -1.5340   -2.7250 C.2     1  UNL1        0.0510
     10  C          8.2650   -2.4810   -0.5570 C.2     1  UNL1        0.1660
     11  C          8.2910   -2.6280   -1.9260 C.2     1  UNL1        0.1650
     12  O          8.6150   -3.6920    0.0020 O.2     1  UNL1       -0.4540
     13  O          8.6610   -3.9390   -2.1820 O.2     1  UNL1       -0.4540
     14  C          8.9640   -4.6230   -0.9890 C.3     1  UNL1        0.4680
@<TRIPOS>BOND
     1     9     7    1
     2     9    11    2
     3     7     6    2
     4    13    11    1
     5    13    14    1
     6    11    10    1
     7    14    12    1
     8     6     5    1
     9     6     8    1
    10    10     8    2
    11    10    12    1
    12     1     5    1
    13     1     2    1
    14     2     4    2
    15     2     3    1
