@<TRIPOS>MOLECULE
/home/cewinharhar/GITHUB/reincatalyze/data/processed/docking_pred/2023-May-22-2206_sub9_nm5_bs15_s42_ex16_mel10_mts10000_k50_ec02_g099_lra9e-4_lrc1e-3/0310d41f91ab2de901a6698b161cc991790b6b4b_ligand_9.pdbqt
 14 15 0 0 0
SMALL
GASTEIGER

@<TRIPOS>ATOM
      1  C          5.5850    1.8800    1.3100 C.3     1  UNL1        0.0800
      2  C          5.1300    0.6580    2.0300 C.2     1  UNL1        0.1300
      3  C          6.0160   -0.5250    2.1960 C.3     1  UNL1        0.0870
      4  O          4.0080    0.5920    2.5060 O.2     1  UNL1       -0.3000
      5  C          5.4470    1.7180   -0.1910 C.3     1  UNL1        0.0430
      6  C          6.6040    1.0160   -0.7740 C.2     1  UNL1       -0.0440
      7  C          7.9160    1.4470   -0.5430 C.2     1  UNL1        0.0080
      8  C          6.4020   -0.0940   -1.5620 C.2     1  UNL1        0.0540
      9  C          8.9620    0.7480   -1.1150 C.2     1  UNL1        0.0510
     10  C          7.4640   -0.7980   -2.1380 C.2     1  UNL1        0.1660
     11  C          8.7550   -0.3730   -1.9130 C.2     1  UNL1        0.1650
     12  O          7.5240   -1.9120   -2.9480 O.2     1  UNL1       -0.4540
     13  O          9.5880   -1.2450   -2.5960 O.2     1  UNL1       -0.4540
     14  C          8.8550   -2.2890   -3.1910 C.3     1  UNL1        0.4680
@<TRIPOS>BOND
     1    14    12    1
     2    14    13    1
     3    12    10    1
     4    13    11    1
     5    10    11    2
     6    10     8    1
     7    11     9    1
     8     8     6    2
     9     9     7    2
    10     6     7    1
    11     6     5    1
    12     5     1    1
    13     1     2    1
    14     2     3    1
    15     2     4    2
