@<TRIPOS>MOLECULE
/home/cewinharhar/GITHUB/reincatalyze/data/processed/docking_pred/2023-May-22-2206_sub9_nm5_bs15_s42_ex16_mel10_mts10000_k50_ec02_g099_lra9e-4_lrc1e-3/034cecc51265c6b10d0b2cc1c9f67b1ec6b5e3be_ligand_9.pdbqt
 14 15 0 0 0
SMALL
GASTEIGER

@<TRIPOS>ATOM
      1  C          6.8360    0.9010    1.3120 C.3     1  UNL1        0.0800
      2  C          5.3770    1.1760    1.4290 C.2     1  UNL1        0.1300
      3  C          4.6920    2.1500    0.5380 C.3     1  UNL1        0.0870
      4  O          4.6970    0.6050    2.2660 O.2     1  UNL1       -0.3000
      5  C          7.3200    1.0930   -0.1120 C.3     1  UNL1        0.0430
      6  C          7.6430   -0.1930   -0.7570 C.2     1  UNL1       -0.0440
      7  C          7.6380   -0.3360   -2.1490 C.2     1  UNL1        0.0080
      8  C          7.9600   -1.2840    0.0190 C.2     1  UNL1        0.0540
      9  C          7.9500   -1.5660   -2.6980 C.2     1  UNL1        0.0510
     10  C          8.2760   -2.5260   -0.5410 C.2     1  UNL1        0.1660
     11  C          8.2700   -2.6680   -1.9110 C.2     1  UNL1        0.1650
     12  O          8.6190   -3.7440    0.0060 O.2     1  UNL1       -0.4540
     13  O          8.6150   -3.9830   -2.1790 O.2     1  UNL1       -0.4540
     14  C          8.9330   -4.6770   -0.9960 C.3     1  UNL1        0.4680
@<TRIPOS>BOND
     1     9     7    1
     2     9    11    2
     3    13    11    1
     4    13    14    1
     5     7     6    2
     6    11    10    1
     7    14    12    1
     8     6     5    1
     9     6     8    1
    10    10    12    1
    11    10     8    2
    12     5     1    1
    13     3     2    1
    14     1     2    1
    15     2     4    2
