MODEL 1
REMARK VINA RESULT:      -7.7      0.000      0.000
REMARK SMILES CC(=O)CCc1ccc2c(c1)OCO2
REMARK SMILES IDX 4 1 2 2 1 3 3 4 5 5 6 6 7 7 11 8 8 9 10 10 9 11 12 12 14 13
REMARK SMILES IDX 13 14
REMARK H PARENT
REMARK Flexibility Score: inf
ROOT
ATOM      1  C   UNL     1       5.499   1.947   1.250  1.00  0.00     0.080 C 
ENDROOT
BRANCH   1   2
ATOM      2  C   UNL     1       5.078   0.729   1.998  1.00  0.00     0.130 C 
ATOM      3  C   UNL     1       5.986  -0.437   2.166  1.00  0.00     0.087 C 
ATOM      4  O   UNL     1       3.967   0.653   2.497  1.00  0.00    -0.300 OA
ENDBRANCH   1   2
BRANCH   1   5
ATOM      5  C   UNL     1       5.377   1.743  -0.247  1.00  0.00     0.043 C 
BRANCH   5   6
ATOM      6  C   UNL     1       6.548   1.041  -0.800  1.00  0.00    -0.044 A 
ATOM      7  C   UNL     1       7.854   1.472  -0.536  1.00  0.00     0.008 A 
ATOM      8  C   UNL     1       6.367  -0.068  -1.595  1.00  0.00     0.054 A 
ATOM      9  C   UNL     1       8.915   0.773  -1.082  1.00  0.00     0.051 A 
ATOM     10  C   UNL     1       7.443  -0.772  -2.144  1.00  0.00     0.166 A 
ATOM     11  C   UNL     1       8.727  -0.348  -1.885  1.00  0.00     0.165 A 
ATOM     12  O   UNL     1       7.522  -1.886  -2.953  1.00  0.00    -0.454 OA
ATOM     13  O   UNL     1       9.578  -1.220  -2.547  1.00  0.00    -0.454 OA
ATOM     14  C   UNL     1       8.859  -2.263  -3.162  1.00  0.00     0.468 C 
ENDBRANCH   5   6
ENDBRANCH   1   5
TORSDOF 3
ENDMDL
MODEL 2
REMARK VINA RESULT:      -7.3      1.796      2.261
REMARK SMILES CC(=O)CCc1ccc2c(c1)OCO2
REMARK SMILES IDX 4 1 2 2 1 3 3 4 5 5 6 6 7 7 11 8 8 9 10 10 9 11 12 12 14 13
REMARK SMILES IDX 13 14
REMARK H PARENT
REMARK Flexibility Score: inf
ROOT
ATOM      1  C   UNL     1       5.678   1.537  -0.167  1.00  0.00     0.080 C 
ENDROOT
BRANCH   1   2
ATOM      2  C   UNL     1       4.998   1.279   1.133  1.00  0.00     0.130 C 
ATOM      3  C   UNL     1       5.387   0.138   2.004  1.00  0.00     0.087 C 
ATOM      4  O   UNL     1       4.095   2.001   1.522  1.00  0.00    -0.300 OA
ENDBRANCH   1   2
BRANCH   1   5
ATOM      5  C   UNL     1       7.157   1.212  -0.089  1.00  0.00     0.043 C 
BRANCH   5   6
ATOM      6  C   UNL     1       7.477  -0.049  -0.779  1.00  0.00    -0.044 A 
ATOM      7  C   UNL     1       7.338  -0.182  -2.166  1.00  0.00     0.008 A 
ATOM      8  C   UNL     1       7.927  -1.129  -0.054  1.00  0.00     0.054 A 
ATOM      9  C   UNL     1       7.655  -1.390  -2.759  1.00  0.00     0.051 A 
ATOM     10  C   UNL     1       8.246  -2.348  -0.659  1.00  0.00     0.166 A 
ATOM     11  C   UNL     1       8.108  -2.480  -2.023  1.00  0.00     0.165 A 
ATOM     12  O   UNL     1       8.704  -3.551  -0.165  1.00  0.00    -0.454 OA
ATOM     13  O   UNL     1       8.490  -3.774  -2.341  1.00  0.00    -0.454 OA
ATOM     14  C   UNL     1       8.961  -4.459  -1.205  1.00  0.00     0.468 C 
ENDBRANCH   5   6
ENDBRANCH   1   5
TORSDOF 3
ENDMDL
MODEL 3
REMARK VINA RESULT:      -7.3      2.066      2.642
REMARK SMILES CC(=O)CCc1ccc2c(c1)OCO2
REMARK SMILES IDX 4 1 2 2 1 3 3 4 5 5 6 6 7 7 11 8 8 9 10 10 9 11 12 12 14 13
REMARK SMILES IDX 13 14
REMARK H PARENT
REMARK Flexibility Score: inf
ROOT
ATOM      1  C   UNL     1       5.429  -0.057   2.012  1.00  0.00     0.080 C 
ENDROOT
BRANCH   1   2
ATOM      2  C   UNL     1       4.577   1.141   1.770  1.00  0.00     0.130 C 
ATOM      3  C   UNL     1       4.905   2.131   0.710  1.00  0.00     0.087 C 
ATOM      4  O   UNL     1       3.578   1.345   2.441  1.00  0.00    -0.300 OA
ENDBRANCH   1   2
BRANCH   1   5
ATOM      5  C   UNL     1       6.863   0.194   1.590  1.00  0.00     0.043 C 
BRANCH   5   6
ATOM      6  C   UNL     1       7.291  -0.736   0.530  1.00  0.00    -0.044 A 
ATOM      7  C   UNL     1       7.165  -0.411  -0.825  1.00  0.00     0.008 A 
ATOM      8  C   UNL     1       7.833  -1.955   0.870  1.00  0.00     0.054 A 
ATOM      9  C   UNL     1       7.584  -1.324  -1.776  1.00  0.00     0.051 A 
ATOM     10  C   UNL     1       8.256  -2.874  -0.095  1.00  0.00     0.166 A 
ATOM     11  C   UNL     1       8.131  -2.556  -1.429  1.00  0.00     0.165 A 
ATOM     12  O   UNL     1       8.817  -4.131  -0.014  1.00  0.00    -0.454 OA
ATOM     13  O   UNL     1       8.623  -3.634  -2.146  1.00  0.00    -0.454 OA
ATOM     14  C   UNL     1       9.152  -4.617  -1.288  1.00  0.00     0.468 C 
ENDBRANCH   5   6
ENDBRANCH   1   5
TORSDOF 3
ENDMDL
MODEL 4
REMARK VINA RESULT:      -7.1      1.950      2.509
REMARK SMILES CC(=O)CCc1ccc2c(c1)OCO2
REMARK SMILES IDX 4 1 2 2 1 3 3 4 5 5 6 6 7 7 11 8 8 9 10 10 9 11 12 12 14 13
REMARK SMILES IDX 13 14
REMARK H PARENT
REMARK Flexibility Score: inf
ROOT
ATOM      1  C   UNL     1       6.836   0.901   1.312  1.00  0.00     0.080 C 
ENDROOT
BRANCH   1   2
ATOM      2  C   UNL     1       5.377   1.176   1.429  1.00  0.00     0.130 C 
ATOM      3  C   UNL     1       4.692   2.150   0.538  1.00  0.00     0.087 C 
ATOM      4  O   UNL     1       4.697   0.605   2.266  1.00  0.00    -0.300 OA
ENDBRANCH   1   2
BRANCH   1   5
ATOM      5  C   UNL     1       7.320   1.093  -0.112  1.00  0.00     0.043 C 
BRANCH   5   6
ATOM      6  C   UNL     1       7.643  -0.193  -0.757  1.00  0.00    -0.044 A 
ATOM      7  C   UNL     1       7.638  -0.336  -2.149  1.00  0.00     0.008 A 
ATOM      8  C   UNL     1       7.960  -1.284   0.019  1.00  0.00     0.054 A 
ATOM      9  C   UNL     1       7.950  -1.566  -2.698  1.00  0.00     0.051 A 
ATOM     10  C   UNL     1       8.276  -2.526  -0.541  1.00  0.00     0.166 A 
ATOM     11  C   UNL     1       8.270  -2.668  -1.911  1.00  0.00     0.165 A 
ATOM     12  O   UNL     1       8.619  -3.744   0.006  1.00  0.00    -0.454 OA
ATOM     13  O   UNL     1       8.615  -3.983  -2.179  1.00  0.00    -0.454 OA
ATOM     14  C   UNL     1       8.933  -4.677  -0.996  1.00  0.00     0.468 C 
ENDBRANCH   5   6
ENDBRANCH   1   5
TORSDOF 3
ENDMDL
MODEL 5
REMARK VINA RESULT:      -7.1      1.241      1.424
REMARK SMILES CC(=O)CCc1ccc2c(c1)OCO2
REMARK SMILES IDX 4 1 2 2 1 3 3 4 5 5 6 6 7 7 11 8 8 9 10 10 9 11 12 12 14 13
REMARK SMILES IDX 13 14
REMARK H PARENT
REMARK Flexibility Score: inf
ROOT
ATOM      1  C   UNL     1       6.277   1.330   0.836  1.00  0.00     0.080 C 
ENDROOT
BRANCH   1   2
ATOM      2  C   UNL     1       5.679   0.458   1.886  1.00  0.00     0.130 C 
ATOM      3  C   UNL     1       6.426  -0.691   2.464  1.00  0.00     0.087 C 
ATOM      4  O   UNL     1       4.551   0.663   2.303  1.00  0.00    -0.300 OA
ENDBRANCH   1   2
BRANCH   1   5
ATOM      5  C   UNL     1       5.768   0.959  -0.543  1.00  0.00     0.043 C 
BRANCH   5   6
ATOM      6  C   UNL     1       6.748   0.151  -1.288  1.00  0.00    -0.044 A 
ATOM      7  C   UNL     1       7.475   0.683  -2.359  1.00  0.00     0.008 A 
ATOM      8  C   UNL     1       6.965  -1.161  -0.930  1.00  0.00     0.054 A 
ATOM      9  C   UNL     1       8.383  -0.123  -3.021  1.00  0.00     0.051 A 
ATOM     10  C   UNL     1       7.884  -1.972  -1.602  1.00  0.00     0.166 A 
ATOM     11  C   UNL     1       8.598  -1.449  -2.657  1.00  0.00     0.165 A 
ATOM     12  O   UNL     1       8.273  -3.284  -1.441  1.00  0.00    -0.454 OA
ATOM     13  O   UNL     1       9.421  -2.461  -3.125  1.00  0.00    -0.454 OA
ATOM     14  C   UNL     1       9.312  -3.615  -2.325  1.00  0.00     0.468 C 
ENDBRANCH   5   6
ENDBRANCH   1   5
TORSDOF 3
ENDMDL
