@<TRIPOS>MOLECULE
/home/cewinharhar/GITHUB/reincatalyze/data/processed/docking_pred/2023-May-22-2206_sub9_nm5_bs15_s42_ex16_mel10_mts10000_k50_ec02_g099_lra9e-4_lrc1e-3/034cecc51265c6b10d0b2cc1c9f67b1ec6b5e3be_ligand_9.pdbqt
 14 15 0 0 0
SMALL
GASTEIGER

@<TRIPOS>ATOM
      1  C          5.4290   -0.0570    2.0120 C.3     1  UNL1        0.0800
      2  C          4.5770    1.1410    1.7700 C.2     1  UNL1        0.1300
      3  C          4.9050    2.1310    0.7100 C.3     1  UNL1        0.0870
      4  O          3.5780    1.3450    2.4410 O.2     1  UNL1       -0.3000
      5  C          6.8630    0.1940    1.5900 C.3     1  UNL1        0.0430
      6  C          7.2910   -0.7360    0.5300 C.2     1  UNL1       -0.0440
      7  C          7.1650   -0.4110   -0.8250 C.2     1  UNL1        0.0080
      8  C          7.8330   -1.9550    0.8700 C.2     1  UNL1        0.0540
      9  C          7.5840   -1.3240   -1.7760 C.2     1  UNL1        0.0510
     10  C          8.2560   -2.8740   -0.0950 C.2     1  UNL1        0.1660
     11  C          8.1310   -2.5560   -1.4290 C.2     1  UNL1        0.1650
     12  O          8.8170   -4.1310   -0.0140 O.2     1  UNL1       -0.4540
     13  O          8.6230   -3.6340   -2.1460 O.2     1  UNL1       -0.4540
     14  C          9.1520   -4.6170   -1.2880 C.3     1  UNL1        0.4680
@<TRIPOS>BOND
     1    13    11    1
     2    13    14    1
     3     9    11    2
     4     9     7    1
     5    11    10    1
     6    14    12    1
     7     7     6    2
     8    10    12    1
     9    10     8    2
    10     6     8    1
    11     6     5    1
    12     3     2    1
    13     5     1    1
    14     2     1    1
    15     2     4    2
