@<TRIPOS>MOLECULE
/home/cewinharhar/GITHUB/reincatalyze/data/processed/docking_pred/2023-May-22-2206_sub9_nm5_bs15_s42_ex16_mel10_mts10000_k50_ec02_g099_lra9e-4_lrc1e-3/034cecc51265c6b10d0b2cc1c9f67b1ec6b5e3be_ligand_9.pdbqt
 14 15 0 0 0
SMALL
GASTEIGER

@<TRIPOS>ATOM
      1  C          6.2770    1.3300    0.8360 C.3     1  UNL1        0.0800
      2  C          5.6790    0.4580    1.8860 C.2     1  UNL1        0.1300
      3  C          6.4260   -0.6910    2.4640 C.3     1  UNL1        0.0870
      4  O          4.5510    0.6630    2.3030 O.2     1  UNL1       -0.3000
      5  C          5.7680    0.9590   -0.5430 C.3     1  UNL1        0.0430
      6  C          6.7480    0.1510   -1.2880 C.2     1  UNL1       -0.0440
      7  C          7.4750    0.6830   -2.3590 C.2     1  UNL1        0.0080
      8  C          6.9650   -1.1610   -0.9300 C.2     1  UNL1        0.0540
      9  C          8.3830   -0.1230   -3.0210 C.2     1  UNL1        0.0510
     10  C          7.8840   -1.9720   -1.6020 C.2     1  UNL1        0.1660
     11  C          8.5980   -1.4490   -2.6570 C.2     1  UNL1        0.1650
     12  O          8.2730   -3.2840   -1.4410 O.2     1  UNL1       -0.4540
     13  O          9.4210   -2.4610   -3.1250 O.2     1  UNL1       -0.4540
     14  C          9.3120   -3.6150   -2.3250 C.3     1  UNL1        0.4680
@<TRIPOS>BOND
     1    13    11    1
     2    13    14    1
     3     9    11    2
     4     9     7    1
     5    11    10    1
     6     7     6    2
     7    14    12    1
     8    10    12    1
     9    10     8    2
    10     6     8    1
    11     6     5    1
    12     5     1    1
    13     1     2    1
    14     2     4    2
    15     2     3    1
