@<TRIPOS>MOLECULE
/home/cewinharhar/GITHUB/reincatalyze/data/processed/docking_pred/2023-May-22-2206_sub9_nm5_bs15_s42_ex16_mel10_mts10000_k50_ec02_g099_lra9e-4_lrc1e-3/035d1107efb5fe3e99d2a33353f0da4e413613a6_ligand_9.pdbqt
 14 15 0 0 0
SMALL
GASTEIGER

@<TRIPOS>ATOM
      1  C          5.4760   -0.3540    1.8790 C.3     1  UNL1        0.0800
      2  C          5.4760    1.1250    1.6970 C.2     1  UNL1        0.1300
      3  C          4.3300    1.8340    1.0680 C.3     1  UNL1        0.0870
      4  O          6.4250    1.8010    2.0600 O.2     1  UNL1       -0.3000
      5  C          6.8850   -0.8880    2.0450 C.3     1  UNL1        0.0430
      6  C          7.3720   -1.5360    0.8150 C.2     1  UNL1       -0.0440
      7  C          7.1420   -0.9790   -0.4480 C.2     1  UNL1        0.0080
      8  C          8.0740   -2.7170    0.8980 C.2     1  UNL1        0.0540
      9  C          7.6240   -1.6320   -1.5680 C.2     1  UNL1        0.0510
     10  C          8.5600   -3.3730   -0.2370 C.2     1  UNL1        0.1660
     11  C          8.3330   -2.8260   -1.4800 C.2     1  UNL1        0.1650
     12  O          9.2730   -4.5390   -0.4150 O.2     1  UNL1       -0.4540
     13  O          8.9180   -3.6760   -2.4050 O.2     1  UNL1       -0.4540
     14  C          9.6040   -4.7270   -1.7670 C.3     1  UNL1        0.4680
@<TRIPOS>BOND
     1    13    14    1
     2    13    11    1
     3    14    12    1
     4     9    11    2
     5     9     7    1
     6    11    10    1
     7     7     6    2
     8    12    10    1
     9    10     8    2
    10     6     8    1
    11     6     5    1
    12     3     2    1
    13     2     1    1
    14     2     4    2
    15     1     5    1
