MODEL 1
REMARK VINA RESULT:      -6.6      0.000      0.000
REMARK SMILES CC(=O)CCc1ccc2c(c1)OCO2
REMARK SMILES IDX 4 1 2 2 1 3 3 4 5 5 6 6 7 7 11 8 8 9 10 10 9 11 12 12 14 13
REMARK SMILES IDX 13 14
REMARK H PARENT
REMARK Flexibility Score: inf
ROOT
ATOM      1  C   UNL     1       5.461  -0.223   2.182  1.00  0.00     0.080 C 
ENDROOT
BRANCH   1   2
ATOM      2  C   UNL     1       4.496   0.885   1.935  1.00  0.00     0.130 C 
ATOM      3  C   UNL     1       4.685   1.851   0.820  1.00  0.00     0.087 C 
ATOM      4  O   UNL     1       3.516   1.033   2.647  1.00  0.00    -0.300 OA
ENDBRANCH   1   2
BRANCH   1   5
ATOM      5  C   UNL     1       6.840   0.121   1.656  1.00  0.00     0.043 C 
BRANCH   5   6
ATOM      6  C   UNL     1       7.263  -0.800   0.585  1.00  0.00    -0.044 A 
ATOM      7  C   UNL     1       7.090  -0.481  -0.766  1.00  0.00     0.008 A 
ATOM      8  C   UNL     1       7.843  -2.004   0.912  1.00  0.00     0.054 A 
ATOM      9  C   UNL     1       7.507  -1.385  -1.727  1.00  0.00     0.051 A 
ATOM     10  C   UNL     1       8.263  -2.914  -0.063  1.00  0.00     0.166 A 
ATOM     11  C   UNL     1       8.093  -2.602  -1.394  1.00  0.00     0.165 A 
ATOM     12  O   UNL     1       8.857  -4.156   0.004  1.00  0.00    -0.454 OA
ATOM     13  O   UNL     1       8.592  -3.669  -2.123  1.00  0.00    -0.454 OA
ATOM     14  C   UNL     1       9.169  -4.637  -1.279  1.00  0.00     0.468 C 
ENDBRANCH   5   6
ENDBRANCH   1   5
TORSDOF 3
ENDMDL
MODEL 2
REMARK VINA RESULT:      -5.9      1.046      1.978
REMARK SMILES CC(=O)CCc1ccc2c(c1)OCO2
REMARK SMILES IDX 4 1 2 2 1 3 3 4 5 5 6 6 7 7 11 8 8 9 10 10 9 11 12 12 14 13
REMARK SMILES IDX 13 14
REMARK H PARENT
REMARK Flexibility Score: inf
ROOT
ATOM      1  C   UNL     1       5.293  -0.203   2.308  1.00  0.00     0.080 C 
ENDROOT
BRANCH   1   2
ATOM      2  C   UNL     1       4.381   0.931   1.986  1.00  0.00     0.130 C 
ATOM      3  C   UNL     1       4.653   1.854   0.852  1.00  0.00     0.087 C 
ATOM      4  O   UNL     1       3.378   1.136   2.650  1.00  0.00    -0.300 OA
ENDBRANCH   1   2
BRANCH   1   5
ATOM      5  C   UNL     1       6.732   0.136   1.972  1.00  0.00     0.043 C 
BRANCH   5   6
ATOM      6  C   UNL     1       7.269  -0.745   0.920  1.00  0.00    -0.044 A 
ATOM      7  C   UNL     1       7.583  -2.085   1.176  1.00  0.00     0.008 A 
ATOM      8  C   UNL     1       7.469  -0.250  -0.348  1.00  0.00     0.054 A 
ATOM      9  C   UNL     1       8.084  -2.865   0.150  1.00  0.00     0.051 A 
ATOM     10  C   UNL     1       7.975  -1.043  -1.383  1.00  0.00     0.166 A 
ATOM     11  C   UNL     1       8.285  -2.361  -1.132  1.00  0.00     0.165 A 
ATOM     12  O   UNL     1       8.260  -0.789  -2.708  1.00  0.00    -0.454 OA
ATOM     13  O   UNL     1       8.758  -2.895  -2.320  1.00  0.00    -0.454 OA
ATOM     14  C   UNL     1       8.673  -1.958  -3.368  1.00  0.00     0.468 C 
ENDBRANCH   5   6
ENDBRANCH   1   5
TORSDOF 3
ENDMDL
MODEL 3
REMARK VINA RESULT:      -5.8      1.035      1.039
REMARK SMILES CC(=O)CCc1ccc2c(c1)OCO2
REMARK SMILES IDX 4 1 2 2 1 3 3 4 5 5 6 6 7 7 11 8 8 9 10 10 9 11 12 12 14 13
REMARK SMILES IDX 13 14
REMARK H PARENT
REMARK Flexibility Score: inf
ROOT
ATOM      1  C   UNL     1       5.476  -0.354   1.879  1.00  0.00     0.080 C 
ENDROOT
BRANCH   1   2
ATOM      2  C   UNL     1       5.476   1.125   1.697  1.00  0.00     0.130 C 
ATOM      3  C   UNL     1       4.330   1.834   1.068  1.00  0.00     0.087 C 
ATOM      4  O   UNL     1       6.425   1.801   2.060  1.00  0.00    -0.300 OA
ENDBRANCH   1   2
BRANCH   1   5
ATOM      5  C   UNL     1       6.885  -0.888   2.045  1.00  0.00     0.043 C 
BRANCH   5   6
ATOM      6  C   UNL     1       7.372  -1.536   0.815  1.00  0.00    -0.044 A 
ATOM      7  C   UNL     1       7.142  -0.979  -0.448  1.00  0.00     0.008 A 
ATOM      8  C   UNL     1       8.074  -2.717   0.898  1.00  0.00     0.054 A 
ATOM      9  C   UNL     1       7.624  -1.632  -1.568  1.00  0.00     0.051 A 
ATOM     10  C   UNL     1       8.560  -3.373  -0.237  1.00  0.00     0.166 A 
ATOM     11  C   UNL     1       8.333  -2.826  -1.480  1.00  0.00     0.165 A 
ATOM     12  O   UNL     1       9.273  -4.539  -0.415  1.00  0.00    -0.454 OA
ATOM     13  O   UNL     1       8.918  -3.676  -2.405  1.00  0.00    -0.454 OA
ATOM     14  C   UNL     1       9.604  -4.727  -1.767  1.00  0.00     0.468 C 
ENDBRANCH   5   6
ENDBRANCH   1   5
TORSDOF 3
ENDMDL
MODEL 4
REMARK VINA RESULT:      -5.8      1.366      6.111
REMARK SMILES CC(=O)CCc1ccc2c(c1)OCO2
REMARK SMILES IDX 4 1 2 2 1 3 3 4 5 5 6 6 7 7 11 8 8 9 10 10 9 11 12 12 14 13
REMARK SMILES IDX 13 14
REMARK H PARENT
REMARK Flexibility Score: inf
ROOT
ATOM      1  C   UNL     1       8.816  -3.911  -0.378  1.00  0.00     0.080 C 
ENDROOT
BRANCH   1   2
ATOM      2  C   UNL     1       9.316  -4.823  -1.444  1.00  0.00     0.130 C 
ATOM      3  C   UNL     1       8.887  -6.245  -1.519  1.00  0.00     0.087 C 
ATOM      4  O   UNL     1      10.097  -4.425  -2.293  1.00  0.00    -0.300 OA
ENDBRANCH   1   2
BRANCH   1   5
ATOM      5  C   UNL     1       8.315  -2.604  -0.961  1.00  0.00     0.043 C 
BRANCH   5   6
ATOM      6  C   UNL     1       7.484  -1.859   0.002  1.00  0.00    -0.044 A 
ATOM      7  C   UNL     1       7.411  -2.231   1.349  1.00  0.00     0.008 A 
ATOM      8  C   UNL     1       6.760  -0.768  -0.423  1.00  0.00     0.054 A 
ATOM      9  C   UNL     1       6.615  -1.494   2.207  1.00  0.00     0.051 A 
ATOM     10  C   UNL     1       5.957  -0.026   0.448  1.00  0.00     0.166 A 
ATOM     11  C   UNL     1       5.884  -0.392   1.774  1.00  0.00     0.165 A 
ATOM     12  O   UNL     1       5.153   1.080   0.273  1.00  0.00    -0.454 OA
ATOM     13  O   UNL     1       5.029   0.507   2.391  1.00  0.00    -0.454 OA
ATOM     14  C   UNL     1       4.615   1.511   1.496  1.00  0.00     0.468 C 
ENDBRANCH   5   6
ENDBRANCH   1   5
TORSDOF 3
ENDMDL
MODEL 5
REMARK VINA RESULT:      -5.8      1.867      5.440
REMARK SMILES CC(=O)CCc1ccc2c(c1)OCO2
REMARK SMILES IDX 4 1 2 2 1 3 3 4 5 5 6 6 7 7 11 8 8 9 10 10 9 11 12 12 14 13
REMARK SMILES IDX 13 14
REMARK H PARENT
REMARK Flexibility Score: inf
ROOT
ATOM      1  C   UNL     1       8.013  -1.716  -2.253  1.00  0.00     0.080 C 
ENDROOT
BRANCH   1   2
ATOM      2  C   UNL     1       8.747  -0.429  -2.402  1.00  0.00     0.130 C 
ATOM      3  C   UNL     1       8.245   0.659  -3.284  1.00  0.00     0.087 C 
ATOM      4  O   UNL     1       9.789  -0.228  -1.800  1.00  0.00    -0.300 OA
ENDBRANCH   1   2
BRANCH   1   5
ATOM      5  C   UNL     1       8.178  -2.286  -0.858  1.00  0.00     0.043 C 
BRANCH   5   6
ATOM      6  C   UNL     1       7.315  -1.598   0.119  1.00  0.00    -0.044 A 
ATOM      7  C   UNL     1       7.219  -2.032   1.446  1.00  0.00     0.008 A 
ATOM      8  C   UNL     1       6.583  -0.499  -0.272  1.00  0.00     0.054 A 
ATOM      9  C   UNL     1       6.393  -1.346   2.318  1.00  0.00     0.051 A 
ATOM     10  C   UNL     1       5.751   0.191   0.614  1.00  0.00     0.166 A 
ATOM     11  C   UNL     1       5.654  -0.236   1.919  1.00  0.00     0.165 A 
ATOM     12  O   UNL     1       4.934   1.293   0.470  1.00  0.00    -0.454 OA
ATOM     13  O   UNL     1       4.772   0.621   2.558  1.00  0.00    -0.454 OA
ATOM     14  C   UNL     1       4.362   1.659   1.700  1.00  0.00     0.468 C 
ENDBRANCH   5   6
ENDBRANCH   1   5
TORSDOF 3
ENDMDL
