@<TRIPOS>MOLECULE
/home/cewinharhar/GITHUB/reincatalyze/data/processed/docking_pred/2023-May-22-2206_sub9_nm5_bs15_s42_ex16_mel10_mts10000_k50_ec02_g099_lra9e-4_lrc1e-3/035d1107efb5fe3e99d2a33353f0da4e413613a6_ligand_9.pdbqt
 14 15 0 0 0
SMALL
GASTEIGER

@<TRIPOS>ATOM
      1  C          5.4610   -0.2230    2.1820 C.3     1  UNL1        0.0800
      2  C          4.4960    0.8850    1.9350 C.2     1  UNL1        0.1300
      3  C          4.6850    1.8510    0.8200 C.3     1  UNL1        0.0870
      4  O          3.5160    1.0330    2.6470 O.2     1  UNL1       -0.3000
      5  C          6.8400    0.1210    1.6560 C.3     1  UNL1        0.0430
      6  C          7.2630   -0.8000    0.5850 C.2     1  UNL1       -0.0440
      7  C          7.0900   -0.4810   -0.7660 C.2     1  UNL1        0.0080
      8  C          7.8430   -2.0040    0.9120 C.2     1  UNL1        0.0540
      9  C          7.5070   -1.3850   -1.7270 C.2     1  UNL1        0.0510
     10  C          8.2630   -2.9140   -0.0630 C.2     1  UNL1        0.1660
     11  C          8.0930   -2.6020   -1.3940 C.2     1  UNL1        0.1650
     12  O          8.8570   -4.1560    0.0040 O.2     1  UNL1       -0.4540
     13  O          8.5920   -3.6690   -2.1230 O.2     1  UNL1       -0.4540
     14  C          9.1690   -4.6370   -1.2790 C.3     1  UNL1        0.4680
@<TRIPOS>BOND
     1    13    11    1
     2    13    14    1
     3     9    11    2
     4     9     7    1
     5    11    10    1
     6    14    12    1
     7     7     6    2
     8    10    12    1
     9    10     8    2
    10     6     8    1
    11     6     5    1
    12     3     2    1
    13     5     1    1
    14     2     1    1
    15     2     4    2
