@<TRIPOS>MOLECULE
/home/cewinharhar/GITHUB/reincatalyze/data/processed/docking_pred/2023-May-22-2206_sub9_nm5_bs15_s42_ex16_mel10_mts10000_k50_ec02_g099_lra9e-4_lrc1e-3/035d1107efb5fe3e99d2a33353f0da4e413613a6_ligand_9.pdbqt
 14 15 0 0 0
SMALL
GASTEIGER

@<TRIPOS>ATOM
      1  C          5.2930   -0.2030    2.3080 C.3     1  UNL1        0.0800
      2  C          4.3810    0.9310    1.9860 C.2     1  UNL1        0.1300
      3  C          4.6530    1.8540    0.8520 C.3     1  UNL1        0.0870
      4  O          3.3780    1.1360    2.6500 O.2     1  UNL1       -0.3000
      5  C          6.7320    0.1360    1.9720 C.3     1  UNL1        0.0430
      6  C          7.2690   -0.7450    0.9200 C.2     1  UNL1       -0.0440
      7  C          7.5830   -2.0850    1.1760 C.2     1  UNL1        0.0080
      8  C          7.4690   -0.2500   -0.3480 C.2     1  UNL1        0.0540
      9  C          8.0840   -2.8650    0.1500 C.2     1  UNL1        0.0510
     10  C          7.9750   -1.0430   -1.3830 C.2     1  UNL1        0.1660
     11  C          8.2850   -2.3610   -1.1320 C.2     1  UNL1        0.1650
     12  O          8.2600   -0.7890   -2.7080 O.2     1  UNL1       -0.4540
     13  O          8.7580   -2.8950   -2.3200 O.2     1  UNL1       -0.4540
     14  C          8.6730   -1.9580   -3.3680 C.3     1  UNL1        0.4680
@<TRIPOS>BOND
     1    14    12    1
     2    14    13    1
     3    12    10    1
     4    13    11    1
     5    10    11    2
     6    10     8    1
     7    11     9    1
     8     8     6    2
     9     9     7    2
    10     3     2    1
    11     6     7    1
    12     6     5    1
    13     5     1    1
    14     2     1    1
    15     2     4    2
