@<TRIPOS>MOLECULE
/home/cewinharhar/GITHUB/reincatalyze/data/processed/docking_pred/2023-May-22-2206_sub9_nm5_bs15_s42_ex16_mel10_mts10000_k50_ec02_g099_lra9e-4_lrc1e-3/035d1107efb5fe3e99d2a33353f0da4e413613a6_ligand_9.pdbqt
 14 15 0 0 0
SMALL
GASTEIGER

@<TRIPOS>ATOM
      1  C          8.8160   -3.9110   -0.3780 C.3     1  UNL1        0.0800
      2  C          9.3160   -4.8230   -1.4440 C.2     1  UNL1        0.1300
      3  C          8.8870   -6.2450   -1.5190 C.3     1  UNL1        0.0870
      4  O         10.0970   -4.4250   -2.2930 O.2     1  UNL1       -0.3000
      5  C          8.3150   -2.6040   -0.9610 C.3     1  UNL1        0.0430
      6  C          7.4840   -1.8590    0.0020 C.2     1  UNL1       -0.0440
      7  C          7.4110   -2.2310    1.3490 C.2     1  UNL1        0.0080
      8  C          6.7600   -0.7680   -0.4230 C.2     1  UNL1        0.0540
      9  C          6.6150   -1.4940    2.2070 C.2     1  UNL1        0.0510
     10  C          5.9570   -0.0260    0.4480 C.2     1  UNL1        0.1660
     11  C          5.8840   -0.3920    1.7740 C.2     1  UNL1        0.1650
     12  O          5.1530    1.0800    0.2730 O.2     1  UNL1       -0.4540
     13  O          5.0290    0.5070    2.3910 O.2     1  UNL1       -0.4540
     14  C          4.6150    1.5110    1.4960 C.3     1  UNL1        0.4680
@<TRIPOS>BOND
     1     4     2    2
     2     3     2    1
     3     2     1    1
     4     5     1    1
     5     5     6    1
     6     8     6    2
     7     8    10    1
     8     6     7    1
     9    12    10    1
    10    12    14    1
    11    10    11    2
    12     7     9    2
    13    14    13    1
    14    11     9    1
    15    11    13    1
