MODEL 1
REMARK VINA RESULT:      -7.7      0.000      0.000
REMARK SMILES CC(=O)CCc1ccc2c(c1)OCO2
REMARK SMILES IDX 4 1 2 2 1 3 3 4 5 5 6 6 7 7 11 8 8 9 10 10 9 11 12 12 14 13
REMARK SMILES IDX 13 14
REMARK H PARENT
REMARK Flexibility Score: inf
ROOT
ATOM      1  C   UNL     1       5.517   1.946   1.253  1.00  0.00     0.080 C 
ENDROOT
BRANCH   1   2
ATOM      2  C   UNL     1       5.107   0.729   2.007  1.00  0.00     0.130 C 
ATOM      3  C   UNL     1       6.028  -0.425   2.186  1.00  0.00     0.087 C 
ATOM      4  O   UNL     1       3.995   0.643   2.501  1.00  0.00    -0.300 OA
ENDBRANCH   1   2
BRANCH   1   5
ATOM      5  C   UNL     1       5.389   1.737  -0.243  1.00  0.00     0.043 C 
BRANCH   5   6
ATOM      6  C   UNL     1       6.560   1.035  -0.799  1.00  0.00    -0.044 A 
ATOM      7  C   UNL     1       7.865   1.464  -0.533  1.00  0.00     0.008 A 
ATOM      8  C   UNL     1       6.377  -0.071  -1.597  1.00  0.00     0.054 A 
ATOM      9  C   UNL     1       8.926   0.766  -1.081  1.00  0.00     0.051 A 
ATOM     10  C   UNL     1       7.453  -0.774  -2.148  1.00  0.00     0.166 A 
ATOM     11  C   UNL     1       8.737  -0.352  -1.889  1.00  0.00     0.165 A 
ATOM     12  O   UNL     1       7.531  -1.885  -2.961  1.00  0.00    -0.454 OA
ATOM     13  O   UNL     1       9.587  -1.222  -2.553  1.00  0.00    -0.454 OA
ATOM     14  C   UNL     1       8.868  -2.262  -3.171  1.00  0.00     0.468 C 
ENDBRANCH   5   6
ENDBRANCH   1   5
TORSDOF 3
ENDMDL
MODEL 2
REMARK VINA RESULT:      -7.5      1.940      2.419
REMARK SMILES CC(=O)CCc1ccc2c(c1)OCO2
REMARK SMILES IDX 4 1 2 2 1 3 3 4 5 5 6 6 7 7 11 8 8 9 10 10 9 11 12 12 14 13
REMARK SMILES IDX 13 14
REMARK H PARENT
REMARK Flexibility Score: inf
ROOT
ATOM      1  C   UNL     1       5.782   1.379  -0.336  1.00  0.00     0.080 C 
ENDROOT
BRANCH   1   2
ATOM      2  C   UNL     1       5.130   1.299   1.001  1.00  0.00     0.130 C 
ATOM      3  C   UNL     1       5.428   0.193   1.950  1.00  0.00     0.087 C 
ATOM      4  O   UNL     1       4.327   2.146   1.359  1.00  0.00    -0.300 OA
ENDBRANCH   1   2
BRANCH   1   5
ATOM      5  C   UNL     1       7.268   1.097  -0.241  1.00  0.00     0.043 C 
BRANCH   5   6
ATOM      6  C   UNL     1       7.619  -0.198  -0.851  1.00  0.00    -0.044 A 
ATOM      7  C   UNL     1       7.637  -0.373  -2.240  1.00  0.00     0.008 A 
ATOM      8  C   UNL     1       7.940  -1.267  -0.046  1.00  0.00     0.054 A 
ATOM      9  C   UNL     1       7.974  -1.611  -2.756  1.00  0.00     0.051 A 
ATOM     10  C   UNL     1       8.281  -2.516  -0.573  1.00  0.00     0.166 A 
ATOM     11  C   UNL     1       8.298  -2.690  -1.939  1.00  0.00     0.165 A 
ATOM     12  O   UNL     1       8.633  -3.716   0.008  1.00  0.00    -0.454 OA
ATOM     13  O   UNL     1       8.665  -4.006  -2.171  1.00  0.00    -0.454 OA
ATOM     14  C   UNL     1       8.974  -4.667  -0.967  1.00  0.00     0.468 C 
ENDBRANCH   5   6
ENDBRANCH   1   5
TORSDOF 3
ENDMDL
MODEL 3
REMARK VINA RESULT:      -7.2      2.048      2.618
REMARK SMILES CC(=O)CCc1ccc2c(c1)OCO2
REMARK SMILES IDX 4 1 2 2 1 3 3 4 5 5 6 6 7 7 11 8 8 9 10 10 9 11 12 12 14 13
REMARK SMILES IDX 13 14
REMARK H PARENT
REMARK Flexibility Score: inf
ROOT
ATOM      1  C   UNL     1       5.445  -0.034   2.009  1.00  0.00     0.080 C 
ENDROOT
BRANCH   1   2
ATOM      2  C   UNL     1       4.581   1.154   1.765  1.00  0.00     0.130 C 
ATOM      3  C   UNL     1       4.898   2.146   0.703  1.00  0.00     0.087 C 
ATOM      4  O   UNL     1       3.581   1.350   2.437  1.00  0.00    -0.300 OA
ENDBRANCH   1   2
BRANCH   1   5
ATOM      5  C   UNL     1       6.873   0.224   1.570  1.00  0.00     0.043 C 
BRANCH   5   6
ATOM      6  C   UNL     1       7.295  -0.706   0.507  1.00  0.00    -0.044 A 
ATOM      7  C   UNL     1       7.171  -0.376  -0.847  1.00  0.00     0.008 A 
ATOM      8  C   UNL     1       7.827  -1.930   0.844  1.00  0.00     0.054 A 
ATOM      9  C   UNL     1       7.584  -1.289  -1.801  1.00  0.00     0.051 A 
ATOM     10  C   UNL     1       8.244  -2.849  -0.124  1.00  0.00     0.166 A 
ATOM     11  C   UNL     1       8.122  -2.526  -1.457  1.00  0.00     0.165 A 
ATOM     12  O   UNL     1       8.796  -4.110  -0.046  1.00  0.00    -0.454 OA
ATOM     13  O   UNL     1       8.606  -3.606  -2.178  1.00  0.00    -0.454 OA
ATOM     14  C   UNL     1       9.128  -4.595  -1.322  1.00  0.00     0.468 C 
ENDBRANCH   5   6
ENDBRANCH   1   5
TORSDOF 3
ENDMDL
MODEL 4
REMARK VINA RESULT:      -7.1      1.265      1.486
REMARK SMILES CC(=O)CCc1ccc2c(c1)OCO2
REMARK SMILES IDX 4 1 2 2 1 3 3 4 5 5 6 6 7 7 11 8 8 9 10 10 9 11 12 12 14 13
REMARK SMILES IDX 13 14
REMARK H PARENT
REMARK Flexibility Score: inf
ROOT
ATOM      1  C   UNL     1       6.412   1.194   0.938  1.00  0.00     0.080 C 
ENDROOT
BRANCH   1   2
ATOM      2  C   UNL     1       5.678   0.357   1.928  1.00  0.00     0.130 C 
ATOM      3  C   UNL     1       6.272  -0.883   2.495  1.00  0.00     0.087 C 
ATOM      4  O   UNL     1       4.559   0.668   2.304  1.00  0.00    -0.300 OA
ENDBRANCH   1   2
BRANCH   1   5
ATOM      5  C   UNL     1       5.907   0.951  -0.470  1.00  0.00     0.043 C 
BRANCH   5   6
ATOM      6  C   UNL     1       6.837   0.113  -1.247  1.00  0.00    -0.044 A 
ATOM      7  C   UNL     1       7.514   0.612  -2.366  1.00  0.00     0.008 A 
ATOM      8  C   UNL     1       7.055  -1.193  -0.871  1.00  0.00     0.054 A 
ATOM      9  C   UNL     1       8.376  -0.221  -3.056  1.00  0.00     0.051 A 
ATOM     10  C   UNL     1       7.928  -2.031  -1.572  1.00  0.00     0.166 A 
ATOM     11  C   UNL     1       8.593  -1.541  -2.673  1.00  0.00     0.165 A 
ATOM     12  O   UNL     1       8.308  -3.345  -1.402  1.00  0.00    -0.454 OA
ATOM     13  O   UNL     1       9.377  -2.575  -3.161  1.00  0.00    -0.454 OA
ATOM     14  C   UNL     1       9.296  -3.709  -2.331  1.00  0.00     0.468 C 
ENDBRANCH   5   6
ENDBRANCH   1   5
TORSDOF 3
ENDMDL
MODEL 5
REMARK VINA RESULT:      -6.8      1.190      5.178
REMARK SMILES CC(=O)CCc1ccc2c(c1)OCO2
REMARK SMILES IDX 4 1 2 2 1 3 3 4 5 5 6 6 7 7 11 8 8 9 10 10 9 11 12 12 14 13
REMARK SMILES IDX 13 14
REMARK H PARENT
REMARK Flexibility Score: inf
ROOT
ATOM      1  C   UNL     1       8.385   0.200  -2.564  1.00  0.00     0.080 C 
ENDROOT
BRANCH   1   2
ATOM      2  C   UNL     1       8.054  -1.246  -2.699  1.00  0.00     0.130 C 
ATOM      3  C   UNL     1       9.100  -2.261  -2.996  1.00  0.00     0.087 C 
ATOM      4  O   UNL     1       6.907  -1.641  -2.568  1.00  0.00    -0.300 OA
ENDBRANCH   1   2
BRANCH   1   5
ATOM      5  C   UNL     1       8.893   0.522  -1.173  1.00  0.00     0.043 C 
BRANCH   5   6
ATOM      6  C   UNL     1       7.833   0.383  -0.158  1.00  0.00    -0.044 A 
ATOM      7  C   UNL     1       7.898  -0.593   0.842  1.00  0.00     0.008 A 
ATOM      8  C   UNL     1       6.749   1.231  -0.184  1.00  0.00     0.054 A 
ATOM      9  C   UNL     1       6.874  -0.675   1.768  1.00  0.00     0.051 A 
ATOM     10  C   UNL     1       5.716   1.145   0.754  1.00  0.00     0.166 A 
ATOM     11  C   UNL     1       5.779   0.183   1.738  1.00  0.00     0.165 A 
ATOM     12  O   UNL     1       4.551   1.858   0.938  1.00  0.00    -0.454 OA
ATOM     13  O   UNL     1       4.640   0.329   2.515  1.00  0.00    -0.454 OA
ATOM     14  C   UNL     1       3.879   1.437   2.097  1.00  0.00     0.468 C 
ENDBRANCH   5   6
ENDBRANCH   1   5
TORSDOF 3
ENDMDL
