@<TRIPOS>MOLECULE
/home/cewinharhar/GITHUB/reincatalyze/data/processed/docking_pred/2023-May-22-2206_sub9_nm5_bs15_s42_ex16_mel10_mts10000_k50_ec02_g099_lra9e-4_lrc1e-3/04093ca98f76925b46d8e425639cb467aa73d951_ligand_9.pdbqt
 14 15 0 0 0
SMALL
GASTEIGER

@<TRIPOS>ATOM
      1  C          5.7820    1.3790   -0.3360 C.3     1  UNL1        0.0800
      2  C          5.1300    1.2990    1.0010 C.2     1  UNL1        0.1300
      3  C          5.4280    0.1930    1.9500 C.3     1  UNL1        0.0870
      4  O          4.3270    2.1460    1.3590 O.2     1  UNL1       -0.3000
      5  C          7.2680    1.0970   -0.2410 C.3     1  UNL1        0.0430
      6  C          7.6190   -0.1980   -0.8510 C.2     1  UNL1       -0.0440
      7  C          7.6370   -0.3730   -2.2400 C.2     1  UNL1        0.0080
      8  C          7.9400   -1.2670   -0.0460 C.2     1  UNL1        0.0540
      9  C          7.9740   -1.6110   -2.7560 C.2     1  UNL1        0.0510
     10  C          8.2810   -2.5160   -0.5730 C.2     1  UNL1        0.1660
     11  C          8.2980   -2.6900   -1.9390 C.2     1  UNL1        0.1650
     12  O          8.6330   -3.7160    0.0080 O.2     1  UNL1       -0.4540
     13  O          8.6650   -4.0060   -2.1710 O.2     1  UNL1       -0.4540
     14  C          8.9740   -4.6670   -0.9670 C.3     1  UNL1        0.4680
@<TRIPOS>BOND
     1     9     7    1
     2     9    11    2
     3     7     6    2
     4    13    11    1
     5    13    14    1
     6    11    10    1
     7    14    12    1
     8     6     5    1
     9     6     8    1
    10    10     8    2
    11    10    12    1
    12     1     5    1
    13     1     2    1
    14     2     4    2
    15     2     3    1
