@<TRIPOS>MOLECULE
/home/cewinharhar/GITHUB/reincatalyze/data/processed/docking_pred/2023-May-22-2206_sub9_nm5_bs15_s42_ex16_mel10_mts10000_k50_ec02_g099_lra9e-4_lrc1e-3/0493ae4577fb245076a56c9e7bbbfc493763ce5a_ligand_9.pdbqt
 14 15 0 0 0
SMALL
GASTEIGER

@<TRIPOS>ATOM
      1  C          5.5380   -0.2180    1.9980 C.3     1  UNL1        0.0800
      2  C          5.2690    1.0000    1.1830 C.2     1  UNL1        0.1300
      3  C          5.9200    1.2150   -0.1360 C.3     1  UNL1        0.0870
      4  O          4.5000    1.8610    1.5790 O.2     1  UNL1       -0.3000
      5  C          6.4990   -1.1530    1.2910 C.3     1  UNL1        0.0430
      6  C          7.6250   -1.5390    2.1590 C.2     1  UNL1       -0.0440
      7  C          7.6620   -1.1840    3.5130 C.2     1  UNL1        0.0080
      8  C          8.6690   -2.2690    1.6390 C.2     1  UNL1        0.0540
      9  C          8.7440   -1.5760    4.2800 C.2     1  UNL1        0.0510
     10  C          9.7610   -2.6630    2.4180 C.2     1  UNL1        0.1660
     11  C          9.7990   -2.3130    3.7500 C.2     1  UNL1        0.1650
     12  O         10.9050   -3.3800    2.1390 O.2     1  UNL1       -0.4540
     13  O         10.9770   -2.8290    4.2660 O.2     1  UNL1       -0.4540
     14  C         11.6640   -3.5900    3.3020 C.3     1  UNL1        0.4680
@<TRIPOS>BOND
     1     3     2    1
     2     2     4    2
     3     2     1    1
     4     5     1    1
     5     5     6    1
     6     8     6    2
     7     8    10    1
     8    12    10    1
     9    12    14    1
    10     6     7    1
    11    10    11    2
    12    14    13    1
    13     7     9    2
    14    11    13    1
    15    11     9    1
