@<TRIPOS>MOLECULE
/home/cewinharhar/GITHUB/reincatalyze/data/processed/docking_pred/2023-May-22-2206_sub9_nm5_bs15_s42_ex16_mel10_mts10000_k50_ec02_g099_lra9e-4_lrc1e-3/051d9442833557c4466992e4bdada3c2de553c76_ligand_9.pdbqt
 14 15 0 0 0
SMALL
GASTEIGER

@<TRIPOS>ATOM
      1  C          6.3740    1.2240    0.9300 C.3     1  UNL1        0.0800
      2  C          5.6620    0.3800    1.9300 C.2     1  UNL1        0.1300
      3  C          6.2810   -0.8460    2.5010 C.3     1  UNL1        0.0870
      4  O          4.5400    0.6740    2.3130 O.2     1  UNL1       -0.3000
      5  C          5.8690    0.9570   -0.4740 C.3     1  UNL1        0.0430
      6  C          6.8130    0.1280   -1.2450 C.2     1  UNL1       -0.0440
      7  C          7.5050    0.6390   -2.3490 C.2     1  UNL1        0.0080
      8  C          7.0280   -1.1810   -0.8780 C.2     1  UNL1        0.0540
      9  C          8.3780   -0.1860   -3.0340 C.2     1  UNL1        0.0510
     10  C          7.9120   -2.0110   -1.5740 C.2     1  UNL1        0.1660
     11  C          8.5930   -1.5090   -2.6610 C.2     1  UNL1        0.1650
     12  O          8.2930   -3.3260   -1.4100 O.2     1  UNL1       -0.4540
     13  O          9.3860   -2.5370   -3.1470 O.2     1  UNL1       -0.4540
     14  C          9.2950   -3.6790   -2.3290 C.3     1  UNL1        0.4680
@<TRIPOS>BOND
     1    13    11    1
     2    13    14    1
     3     9    11    2
     4     9     7    1
     5    11    10    1
     6     7     6    2
     7    14    12    1
     8    10    12    1
     9    10     8    2
    10     6     8    1
    11     6     5    1
    12     5     1    1
    13     1     2    1
    14     2     4    2
    15     2     3    1
