@<TRIPOS>MOLECULE
/home/cewinharhar/GITHUB/reincatalyze/data/processed/docking_pred/2023-May-22-2206_sub9_nm5_bs15_s42_ex16_mel10_mts10000_k50_ec02_g099_lra9e-4_lrc1e-3/05fc2472135fbee8f2c0d268145bdd055e68f396_ligand_9.pdbqt
 14 15 0 0 0
SMALL
GASTEIGER

@<TRIPOS>ATOM
      1  C          5.3340   -0.0180    2.1010 C.3     1  UNL1        0.0800
      2  C          4.4490    1.1510    1.8340 C.2     1  UNL1        0.1300
      3  C          4.7720    2.1490    0.7800 C.3     1  UNL1        0.0870
      4  O          3.4270    1.3230    2.4780 O.2     1  UNL1       -0.3000
      5  C          6.7570    0.2560    1.6570 C.3     1  UNL1        0.0430
      6  C          7.1190   -0.5360    0.4670 C.2     1  UNL1       -0.0440
      7  C          6.8290   -0.0890   -0.8270 C.2     1  UNL1        0.0080
      8  C          7.7610   -1.7440    0.6220 C.2     1  UNL1        0.0540
      9  C          7.1940   -0.8750   -1.9050 C.2     1  UNL1        0.0510
     10  C          8.1280   -2.5340   -0.4720 C.2     1  UNL1        0.1660
     11  C          7.8420   -2.0960   -1.7460 C.2     1  UNL1        0.1650
     12  O          8.7640   -3.7530   -0.5800 O.2     1  UNL1       -0.4540
     13  O          8.3130   -3.0640   -2.6180 O.2     1  UNL1       -0.4540
     14  C          8.9850   -4.0890   -1.9250 C.3     1  UNL1        0.4680
@<TRIPOS>BOND
     1    13    14    1
     2    13    11    1
     3    14    12    1
     4     9    11    2
     5     9     7    1
     6    11    10    1
     7     7     6    2
     8    12    10    1
     9    10     8    2
    10     6     8    1
    11     6     5    1
    12     3     2    1
    13     5     1    1
    14     2     1    1
    15     2     4    2
