@<TRIPOS>MOLECULE
/home/cewinharhar/GITHUB/reincatalyze/data/processed/docking_pred/2023-May-22-2206_sub9_nm5_bs15_s42_ex16_mel10_mts10000_k50_ec02_g099_lra9e-4_lrc1e-3/074f71e156faecc69724e62cc987f5104d3c940c_ligand_9.pdbqt
 14 15 0 0 0
SMALL
GASTEIGER

@<TRIPOS>ATOM
      1  C          6.7660    0.6040    1.3630 C.3     1  UNL1        0.0800
      2  C          5.3530    1.0500    1.5150 C.2     1  UNL1        0.1300
      3  C          4.7860    2.1430    0.6810 C.3     1  UNL1        0.0870
      4  O          4.6160    0.5270    2.3340 O.2     1  UNL1       -0.3000
      5  C          7.2790    0.8660   -0.0390 C.3     1  UNL1        0.0430
      6  C          7.6940   -0.3780   -0.7110 C.2     1  UNL1       -0.0440
      7  C          7.8680   -0.4400   -2.0980 C.2     1  UNL1        0.0080
      8  C          7.9210   -1.5130    0.0350 C.2     1  UNL1        0.0540
      9  C          8.2590   -1.6360   -2.6730 C.2     1  UNL1        0.0510
     10  C          8.3180   -2.7190   -0.5510 C.2     1  UNL1        0.1660
     11  C          8.4880   -2.7810   -1.9160 C.2     1  UNL1        0.1650
     12  O          8.6010   -3.9650   -0.0350 O.2     1  UNL1       -0.4540
     13  O          8.8770   -4.0770   -2.2130 O.2     1  UNL1       -0.4540
     14  C          9.0490   -4.8370   -1.0400 C.3     1  UNL1        0.4680
@<TRIPOS>BOND
     1     9     7    1
     2     9    11    2
     3    13    11    1
     4    13    14    1
     5     7     6    2
     6    11    10    1
     7    14    12    1
     8     6     5    1
     9     6     8    1
    10    10    12    1
    11    10     8    2
    12     5     1    1
    13     3     2    1
    14     1     2    1
    15     2     4    2
