@<TRIPOS>MOLECULE
/home/cewinharhar/GITHUB/reincatalyze/data/processed/docking_pred/2023-May-22-2206_sub9_nm5_bs15_s42_ex16_mel10_mts10000_k50_ec02_g099_lra9e-4_lrc1e-3/08d2e2d4a7c660d60546aaed77652d308bf13ce5_ligand_9.pdbqt
 14 15 0 0 0
SMALL
GASTEIGER

@<TRIPOS>ATOM
      1  C          5.5050    1.9290    1.2500 C.3     1  UNL1        0.0800
      2  C          5.0420    0.7230    1.9920 C.2     1  UNL1        0.1300
      3  C          5.9000   -0.4830    2.1350 C.3     1  UNL1        0.0870
      4  O          3.9360    0.6910    2.5070 O.2     1  UNL1       -0.3000
      5  C          5.3850    1.7330   -0.2480 C.3     1  UNL1        0.0430
      6  C          6.5570    1.0320   -0.8030 C.2     1  UNL1       -0.0440
      7  C          7.8610    1.4660   -0.5420 C.2     1  UNL1        0.0080
      8  C          6.3750   -0.0780   -1.5960 C.2     1  UNL1        0.0540
      9  C          8.9230    0.7680   -1.0900 C.2     1  UNL1        0.0510
     10  C          7.4510   -0.7800   -2.1470 C.2     1  UNL1        0.1660
     11  C          8.7350   -0.3540   -1.8910 C.2     1  UNL1        0.1650
     12  O          7.5310   -1.8950   -2.9540 O.2     1  UNL1       -0.4540
     13  O          9.5860   -1.2240   -2.5540 O.2     1  UNL1       -0.4540
     14  C          8.8680   -2.2690   -3.1660 C.3     1  UNL1        0.4680
@<TRIPOS>BOND
     1    14    12    1
     2    14    13    1
     3    12    10    1
     4    13    11    1
     5    10    11    2
     6    10     8    1
     7    11     9    1
     8     8     6    2
     9     9     7    2
    10     6     7    1
    11     6     5    1
    12     5     1    1
    13     1     2    1
    14     2     3    1
    15     2     4    2
