@<TRIPOS>MOLECULE
/home/cewinharhar/GITHUB/reincatalyze/data/processed/docking_pred/2023-May-22-2206_sub9_nm5_bs15_s42_ex16_mel10_mts10000_k50_ec02_g099_lra9e-4_lrc1e-3/090474ec6ad34f6c7e6271970b3dfdf762d08d64_ligand_9.pdbqt
 14 15 0 0 0
SMALL
GASTEIGER

@<TRIPOS>ATOM
      1  C          6.6650    0.5130   -0.9460 C.3     1  UNL1        0.0800
      2  C          7.2360   -0.3800   -1.9930 C.2     1  UNL1        0.1300
      3  C          8.3920    0.0380   -2.8300 C.3     1  UNL1        0.0870
      4  O          6.7660   -1.4880   -2.1960 O.2     1  UNL1       -0.3000
      5  C          6.8410   -0.0800    0.4380 C.3     1  UNL1        0.0430
      6  C          8.0230    0.4730    1.1230 C.2     1  UNL1       -0.0440
      7  C          7.9650    1.6810    1.8260 C.2     1  UNL1        0.0080
      8  C          9.2180   -0.2090    1.0780 C.2     1  UNL1        0.0540
      9  C          9.1070    2.1500    2.4500 C.2     1  UNL1        0.0510
     10  C         10.3690    0.2690    1.7110 C.2     1  UNL1        0.1660
     11  C         10.3130    1.4580    2.4020 C.2     1  UNL1        0.1650
     12  O         11.6560   -0.2150    1.8100 O.2     1  UNL1       -0.4540
     13  O         11.5800    1.6820    2.9190 O.2     1  UNL1       -0.4540
     14  C         12.4390    0.6010    2.6440 C.3     1  UNL1        0.4680
@<TRIPOS>BOND
     1     3     2    1
     2     4     2    2
     3     2     1    1
     4     1     5    1
     5     5     6    1
     6     8     6    2
     7     8    10    1
     8     6     7    1
     9    10    12    1
    10    10    11    2
    11    12    14    1
    12     7     9    2
    13    11     9    1
    14    11    13    1
    15    14    13    1
