@<TRIPOS>MOLECULE
/home/cewinharhar/GITHUB/reincatalyze/data/processed/docking_pred/2023-May-22-2206_sub9_nm5_bs15_s42_ex16_mel10_mts10000_k50_ec02_g099_lra9e-4_lrc1e-3/090474ec6ad34f6c7e6271970b3dfdf762d08d64_ligand_9.pdbqt
 14 15 0 0 0
SMALL
GASTEIGER

@<TRIPOS>ATOM
      1  C          9.6720    1.3180    2.6610 C.3     1  UNL1        0.0800
      2  C         11.1230    0.9790    2.6820 C.2     1  UNL1        0.1300
      3  C         12.0870    1.7280    3.5310 C.3     1  UNL1        0.0870
      4  O         11.5640    0.0700    1.9980 O.2     1  UNL1       -0.3000
      5  C          9.2930    2.0350    1.3810 C.3     1  UNL1        0.0430
      6  C          8.5400    1.1590    0.4660 C.2     1  UNL1       -0.0440
      7  C          7.1470    1.0420    0.5430 C.2     1  UNL1        0.0080
      8  C          9.2120    0.4350   -0.4930 C.2     1  UNL1        0.0540
      9  C          6.4940    0.2050   -0.3430 C.2     1  UNL1        0.0510
     10  C          8.5460   -0.4100   -1.3860 C.2     1  UNL1        0.1660
     11  C          7.1760   -0.5260   -1.3100 C.2     1  UNL1        0.1650
     12  O          8.9810   -1.2230   -2.4120 O.2     1  UNL1       -0.4540
     13  O          6.7940   -1.4160   -2.3020 O.2     1  UNL1       -0.4540
     14  C          7.8960   -1.8120   -3.0820 C.3     1  UNL1        0.4680
@<TRIPOS>BOND
     1    14    12    1
     2    14    13    1
     3    12    10    1
     4    13    11    1
     5    10    11    2
     6    10     8    1
     7    11     9    1
     8     8     6    2
     9     9     7    2
    10     6     7    1
    11     6     5    1
    12     5     1    1
    13     4     2    2
    14     1     2    1
    15     2     3    1
