@<TRIPOS>MOLECULE
/home/cewinharhar/GITHUB/reincatalyze/data/processed/docking_pred/2023-May-22-2206_sub9_nm5_bs15_s42_ex16_mel10_mts10000_k50_ec02_g099_lra9e-4_lrc1e-3/09c0e00cbaa22f287e1ef7d21129eabb08ea3244_ligand_9.pdbqt
 14 15 0 0 0
SMALL
GASTEIGER

@<TRIPOS>ATOM
      1  C          5.8570    1.5880    0.9130 C.3     1  UNL1        0.0800
      2  C          5.3820    0.5520    1.8710 C.2     1  UNL1        0.1300
      3  C          6.2040   -0.6430    2.1990 C.3     1  UNL1        0.0870
      4  O          4.2950    0.6550    2.4170 O.2     1  UNL1       -0.3000
      5  C          5.7750    1.0940   -0.5180 C.3     1  UNL1        0.0430
      6  C          7.0200    0.4270   -0.9380 C.2     1  UNL1       -0.0440
      7  C          8.2720    1.0240   -0.7480 C.2     1  UNL1        0.0080
      8  C          6.9620   -0.8140   -1.5300 C.2     1  UNL1        0.0540
      9  C          9.4060    0.3490   -1.1620 C.2     1  UNL1        0.0510
     10  C          8.1120   -1.4920   -1.9460 C.2     1  UNL1        0.1660
     11  C          9.3440   -0.9050   -1.7610 C.2     1  UNL1        0.1650
     12  O          8.3160   -2.7140   -2.5510 O.2     1  UNL1       -0.4540
     13  O         10.2880   -1.7890   -2.2590 O.2     1  UNL1       -0.4540
     14  C          9.6870   -2.9880   -2.6870 C.3     1  UNL1        0.4680
@<TRIPOS>BOND
     1    14    12    1
     2    14    13    1
     3    12    10    1
     4    13    11    1
     5    10    11    2
     6    10     8    1
     7    11     9    1
     8     8     6    2
     9     9     7    2
    10     6     7    1
    11     6     5    1
    12     5     1    1
    13     1     2    1
    14     2     3    1
    15     2     4    2
