MODEL 1
REMARK VINA RESULT:      -8.2      0.000      0.000
REMARK SMILES CC(=O)CCc1ccc2c(c1)OCO2
REMARK SMILES IDX 4 1 2 2 1 3 3 4 5 5 6 6 7 7 11 8 8 9 10 10 9 11 12 12 14 13
REMARK SMILES IDX 13 14
REMARK H PARENT
REMARK Flexibility Score: inf
ROOT
ATOM      1  C   UNL     1       5.857   1.588   0.913  1.00  0.00     0.080 C 
ENDROOT
BRANCH   1   2
ATOM      2  C   UNL     1       5.382   0.552   1.871  1.00  0.00     0.130 C 
ATOM      3  C   UNL     1       6.204  -0.643   2.199  1.00  0.00     0.087 C 
ATOM      4  O   UNL     1       4.295   0.655   2.417  1.00  0.00    -0.300 OA
ENDBRANCH   1   2
BRANCH   1   5
ATOM      5  C   UNL     1       5.775   1.094  -0.518  1.00  0.00     0.043 C 
BRANCH   5   6
ATOM      6  C   UNL     1       7.020   0.427  -0.938  1.00  0.00    -0.044 A 
ATOM      7  C   UNL     1       8.272   1.024  -0.748  1.00  0.00     0.008 A 
ATOM      8  C   UNL     1       6.962  -0.814  -1.530  1.00  0.00     0.054 A 
ATOM      9  C   UNL     1       9.406   0.349  -1.162  1.00  0.00     0.051 A 
ATOM     10  C   UNL     1       8.112  -1.492  -1.946  1.00  0.00     0.166 A 
ATOM     11  C   UNL     1       9.344  -0.905  -1.761  1.00  0.00     0.165 A 
ATOM     12  O   UNL     1       8.316  -2.714  -2.551  1.00  0.00    -0.454 OA
ATOM     13  O   UNL     1      10.288  -1.789  -2.259  1.00  0.00    -0.454 OA
ATOM     14  C   UNL     1       9.687  -2.988  -2.687  1.00  0.00     0.468 C 
ENDBRANCH   5   6
ENDBRANCH   1   5
TORSDOF 3
ENDMDL
MODEL 2
REMARK VINA RESULT:      -7.7      1.107      1.795
REMARK SMILES CC(=O)CCc1ccc2c(c1)OCO2
REMARK SMILES IDX 4 1 2 2 1 3 3 4 5 5 6 6 7 7 11 8 8 9 10 10 9 11 12 12 14 13
REMARK SMILES IDX 13 14
REMARK H PARENT
REMARK Flexibility Score: inf
ROOT
ATOM      1  C   UNL     1       5.875   1.248  -0.311  1.00  0.00     0.080 C 
ENDROOT
BRANCH   1   2
ATOM      2  C   UNL     1       5.286   1.101   1.050  1.00  0.00     0.130 C 
ATOM      3  C   UNL     1       5.604  -0.066   1.916  1.00  0.00     0.087 C 
ATOM      4  O   UNL     1       4.520   1.940   1.495  1.00  0.00    -0.300 OA
ENDBRANCH   1   2
BRANCH   1   5
ATOM      5  C   UNL     1       7.390   1.252  -0.257  1.00  0.00     0.043 C 
BRANCH   5   6
ATOM      6  C   UNL     1       7.968   0.152  -1.050  1.00  0.00    -0.044 A 
ATOM      7  C   UNL     1       7.393  -0.262  -2.257  1.00  0.00     0.008 A 
ATOM      8  C   UNL     1       9.101  -0.489  -0.603  1.00  0.00     0.054 A 
ATOM      9  C   UNL     1       7.980  -1.299  -2.959  1.00  0.00     0.051 A 
ATOM     10  C   UNL     1       9.690  -1.537  -1.316  1.00  0.00     0.166 A 
ATOM     11  C   UNL     1       9.125  -1.946  -2.504  1.00  0.00     0.165 A 
ATOM     12  O   UNL     1      10.800  -2.323  -1.086  1.00  0.00    -0.454 OA
ATOM     13  O   UNL     1       9.908  -2.984  -2.984  1.00  0.00    -0.454 OA
ATOM     14  C   UNL     1      11.031  -3.196  -2.162  1.00  0.00     0.468 C 
ENDBRANCH   5   6
ENDBRANCH   1   5
TORSDOF 3
ENDMDL
MODEL 3
REMARK VINA RESULT:      -7.5      1.256      2.033
REMARK SMILES CC(=O)CCc1ccc2c(c1)OCO2
REMARK SMILES IDX 4 1 2 2 1 3 3 4 5 5 6 6 7 7 11 8 8 9 10 10 9 11 12 12 14 13
REMARK SMILES IDX 13 14
REMARK H PARENT
REMARK Flexibility Score: inf
ROOT
ATOM      1  C   UNL     1       6.578   0.150   0.929  1.00  0.00     0.080 C 
ENDROOT
BRANCH   1   2
ATOM      2  C   UNL     1       5.381   0.968   1.268  1.00  0.00     0.130 C 
ATOM      3  C   UNL     1       4.986   2.148   0.453  1.00  0.00     0.087 C 
ATOM      4  O   UNL     1       4.685   0.692   2.231  1.00  0.00    -0.300 OA
ENDBRANCH   1   2
BRANCH   1   5
ATOM      5  C   UNL     1       7.411   0.813  -0.151  1.00  0.00     0.043 C 
BRANCH   5   6
ATOM      6  C   UNL     1       8.080  -0.179  -1.011  1.00  0.00    -0.044 A 
ATOM      7  C   UNL     1       7.675  -0.397  -2.333  1.00  0.00     0.008 A 
ATOM      8  C   UNL     1       9.133  -0.914  -0.513  1.00  0.00     0.054 A 
ATOM      9  C   UNL     1       8.341  -1.340  -3.093  1.00  0.00     0.051 A 
ATOM     10  C   UNL     1       9.804  -1.866  -1.286  1.00  0.00     0.166 A 
ATOM     11  C   UNL     1       9.405  -2.081  -2.586  1.00  0.00     0.165 A 
ATOM     12  O   UNL     1      10.861  -2.712  -1.026  1.00  0.00    -0.454 OA
ATOM     13  O   UNL     1      10.234  -3.064  -3.103  1.00  0.00    -0.454 OA
ATOM     14  C   UNL     1      11.230  -3.427  -2.177  1.00  0.00     0.468 C 
ENDBRANCH   5   6
ENDBRANCH   1   5
TORSDOF 3
ENDMDL
MODEL 4
REMARK VINA RESULT:      -7.4      1.499      1.912
REMARK SMILES CC(=O)CCc1ccc2c(c1)OCO2
REMARK SMILES IDX 4 1 2 2 1 3 3 4 5 5 6 6 7 7 11 8 8 9 10 10 9 11 12 12 14 13
REMARK SMILES IDX 13 14
REMARK H PARENT
REMARK Flexibility Score: inf
ROOT
ATOM      1  C   UNL     1       5.755   1.101  -0.355  1.00  0.00     0.080 C 
ENDROOT
BRANCH   1   2
ATOM      2  C   UNL     1       5.245   1.188   1.042  1.00  0.00     0.130 C 
ATOM      3  C   UNL     1       5.510   0.117   2.039  1.00  0.00     0.087 C 
ATOM      4  O   UNL     1       4.589   2.149   1.411  1.00  0.00    -0.300 OA
ENDBRANCH   1   2
BRANCH   1   5
ATOM      5  C   UNL     1       7.269   1.040  -0.385  1.00  0.00     0.043 C 
BRANCH   5   6
ATOM      6  C   UNL     1       7.753  -0.226  -0.965  1.00  0.00    -0.044 A 
ATOM      7  C   UNL     1       8.071  -0.335  -2.324  1.00  0.00     0.008 A 
ATOM      8  C   UNL     1       7.902  -1.332  -0.160  1.00  0.00     0.054 A 
ATOM      9  C   UNL     1       8.521  -1.548  -2.812  1.00  0.00     0.051 A 
ATOM     10  C   UNL     1       8.359  -2.556  -0.659  1.00  0.00     0.166 A 
ATOM     11  C   UNL     1       8.671  -2.665  -1.996  1.00  0.00     0.165 A 
ATOM     12  O   UNL     1       8.588  -3.783  -0.073  1.00  0.00    -0.454 OA
ATOM     13  O   UNL     1       9.090  -3.969  -2.205  1.00  0.00    -0.454 OA
ATOM     14  C   UNL     1       9.139  -4.688  -0.995  1.00  0.00     0.468 C 
ENDBRANCH   5   6
ENDBRANCH   1   5
TORSDOF 3
ENDMDL
MODEL 5
REMARK VINA RESULT:      -7.4      1.407      2.193
REMARK SMILES CC(=O)CCc1ccc2c(c1)OCO2
REMARK SMILES IDX 4 1 2 2 1 3 3 4 5 5 6 6 7 7 11 8 8 9 10 10 9 11 12 12 14 13
REMARK SMILES IDX 13 14
REMARK H PARENT
REMARK Flexibility Score: inf
ROOT
ATOM      1  C   UNL     1       6.634   0.039   1.889  1.00  0.00     0.080 C 
ENDROOT
BRANCH   1   2
ATOM      2  C   UNL     1       5.359   0.782   1.689  1.00  0.00     0.130 C 
ATOM      3  C   UNL     1       5.188   1.753   0.575  1.00  0.00     0.087 C 
ATOM      4  O   UNL     1       4.411   0.615   2.439  1.00  0.00    -0.300 OA
ENDBRANCH   1   2
BRANCH   1   5
ATOM      5  C   UNL     1       6.503  -1.407   1.452  1.00  0.00     0.043 C 
BRANCH   5   6
ATOM      6  C   UNL     1       7.257  -1.674   0.215  1.00  0.00    -0.044 A 
ATOM      7  C   UNL     1       6.869  -1.126  -1.013  1.00  0.00     0.008 A 
ATOM      8  C   UNL     1       8.373  -2.478   0.256  1.00  0.00     0.054 A 
ATOM      9  C   UNL     1       7.616  -1.412  -2.142  1.00  0.00     0.051 A 
ATOM     10  C   UNL     1       9.126  -2.763  -0.887  1.00  0.00     0.166 A 
ATOM     11  C   UNL     1       8.744  -2.226  -2.096  1.00  0.00     0.165 A 
ATOM     12  O   UNL     1      10.256  -3.522  -1.103  1.00  0.00    -0.454 OA
ATOM     13  O   UNL     1       9.658  -2.669  -3.039  1.00  0.00    -0.454 OA
ATOM     14  C   UNL     1      10.685  -3.420  -2.437  1.00  0.00     0.468 C 
ENDBRANCH   5   6
ENDBRANCH   1   5
TORSDOF 3
ENDMDL
