@<TRIPOS>MOLECULE
/home/cewinharhar/GITHUB/reincatalyze/data/processed/docking_pred/2023-May-22-2206_sub9_nm5_bs15_s42_ex16_mel10_mts10000_k50_ec02_g099_lra9e-4_lrc1e-3/09c0e00cbaa22f287e1ef7d21129eabb08ea3244_ligand_9.pdbqt
 14 15 0 0 0
SMALL
GASTEIGER

@<TRIPOS>ATOM
      1  C          5.8750    1.2480   -0.3110 C.3     1  UNL1        0.0800
      2  C          5.2860    1.1010    1.0500 C.2     1  UNL1        0.1300
      3  C          5.6040   -0.0660    1.9160 C.3     1  UNL1        0.0870
      4  O          4.5200    1.9400    1.4950 O.2     1  UNL1       -0.3000
      5  C          7.3900    1.2520   -0.2570 C.3     1  UNL1        0.0430
      6  C          7.9680    0.1520   -1.0500 C.2     1  UNL1       -0.0440
      7  C          7.3930   -0.2620   -2.2570 C.2     1  UNL1        0.0080
      8  C          9.1010   -0.4890   -0.6030 C.2     1  UNL1        0.0540
      9  C          7.9800   -1.2990   -2.9590 C.2     1  UNL1        0.0510
     10  C          9.6900   -1.5370   -1.3160 C.2     1  UNL1        0.1660
     11  C          9.1250   -1.9460   -2.5040 C.2     1  UNL1        0.1650
     12  O         10.8000   -2.3230   -1.0860 O.2     1  UNL1       -0.4540
     13  O          9.9080   -2.9840   -2.9840 O.2     1  UNL1       -0.4540
     14  C         11.0310   -3.1960   -2.1620 C.3     1  UNL1        0.4680
@<TRIPOS>BOND
     1    13    11    1
     2    13    14    1
     3     9    11    2
     4     9     7    1
     5    11    10    1
     6     7     6    2
     7    14    12    1
     8    10    12    1
     9    10     8    2
    10     6     8    1
    11     6     5    1
    12     1     5    1
    13     1     2    1
    14     2     4    2
    15     2     3    1
