@<TRIPOS>MOLECULE
/home/cewinharhar/GITHUB/reincatalyze/data/processed/docking_pred/2023-May-22-2206_sub9_nm5_bs15_s42_ex16_mel10_mts10000_k50_ec02_g099_lra9e-4_lrc1e-3/09c0e00cbaa22f287e1ef7d21129eabb08ea3244_ligand_9.pdbqt
 14 15 0 0 0
SMALL
GASTEIGER

@<TRIPOS>ATOM
      1  C          6.5780    0.1500    0.9290 C.3     1  UNL1        0.0800
      2  C          5.3810    0.9680    1.2680 C.2     1  UNL1        0.1300
      3  C          4.9860    2.1480    0.4530 C.3     1  UNL1        0.0870
      4  O          4.6850    0.6920    2.2310 O.2     1  UNL1       -0.3000
      5  C          7.4110    0.8130   -0.1510 C.3     1  UNL1        0.0430
      6  C          8.0800   -0.1790   -1.0110 C.2     1  UNL1       -0.0440
      7  C          7.6750   -0.3970   -2.3330 C.2     1  UNL1        0.0080
      8  C          9.1330   -0.9140   -0.5130 C.2     1  UNL1        0.0540
      9  C          8.3410   -1.3400   -3.0930 C.2     1  UNL1        0.0510
     10  C          9.8040   -1.8660   -1.2860 C.2     1  UNL1        0.1660
     11  C          9.4050   -2.0810   -2.5860 C.2     1  UNL1        0.1650
     12  O         10.8610   -2.7120   -1.0260 O.2     1  UNL1       -0.4540
     13  O         10.2340   -3.0640   -3.1030 O.2     1  UNL1       -0.4540
     14  C         11.2300   -3.4270   -2.1770 C.3     1  UNL1        0.4680
@<TRIPOS>BOND
     1    13    11    1
     2    13    14    1
     3     9    11    2
     4     9     7    1
     5    11    10    1
     6     7     6    2
     7    14    12    1
     8    10    12    1
     9    10     8    2
    10     6     8    1
    11     6     5    1
    12     5     1    1
    13     3     2    1
    14     1     2    1
    15     2     4    2
