@<TRIPOS>MOLECULE
/home/cewinharhar/GITHUB/reincatalyze/data/processed/docking_pred/2023-May-22-2206_sub9_nm5_bs15_s42_ex16_mel10_mts10000_k50_ec02_g099_lra9e-4_lrc1e-3/0df60b8790b800bbceb9ee276e91b409308b6f54_ligand_9.pdbqt
 14 15 0 0 0
SMALL
GASTEIGER

@<TRIPOS>ATOM
      1  C          6.7930    0.8380    1.4310 C.3     1  UNL1        0.0800
      2  C          5.3430    1.1690    1.4970 C.2     1  UNL1        0.1300
      3  C          4.7170    2.1290    0.5490 C.3     1  UNL1        0.0870
      4  O          4.6210    0.6590    2.3390 O.2     1  UNL1       -0.3000
      5  C          7.3490    1.0730    0.0410 C.3     1  UNL1        0.0430
      6  C          7.6680   -0.1940   -0.6420 C.2     1  UNL1       -0.0440
      7  C          7.6540   -0.2990   -2.0370 C.2     1  UNL1        0.0080
      8  C          7.9930   -1.3060    0.1020 C.2     1  UNL1        0.0540
      9  C          7.9630   -1.5140   -2.6220 C.2     1  UNL1        0.0510
     10  C          8.3050   -2.5320   -0.4950 C.2     1  UNL1        0.1660
     11  C          8.2900   -2.6360   -1.8680 C.2     1  UNL1        0.1650
     12  O          8.6540   -3.7640    0.0170 O.2     1  UNL1       -0.4540
     13  O          8.6340   -3.9430   -2.1740 O.2     1  UNL1       -0.4540
     14  C          8.9610   -4.6680   -1.0130 C.3     1  UNL1        0.4680
@<TRIPOS>BOND
     1     9     7    1
     2     9    11    2
     3    13    11    1
     4    13    14    1
     5     7     6    2
     6    11    10    1
     7    14    12    1
     8     6     5    1
     9     6     8    1
    10    10    12    1
    11    10     8    2
    12     5     1    1
    13     3     2    1
    14     1     2    1
    15     2     4    2
