@<TRIPOS>MOLECULE
/home/cewinharhar/GITHUB/reincatalyze/data/processed/docking_pred/2023-May-22-2206_sub9_nm5_bs15_s42_ex16_mel10_mts10000_k50_ec02_g099_lra9e-4_lrc1e-3/0df60b8790b800bbceb9ee276e91b409308b6f54_ligand_9.pdbqt
 14 15 0 0 0
SMALL
GASTEIGER

@<TRIPOS>ATOM
      1  C          6.3810    1.1830    0.9190 C.3     1  UNL1        0.0800
      2  C          5.6680    0.3620    1.9370 C.2     1  UNL1        0.1300
      3  C          6.2730   -0.8710    2.5090 C.3     1  UNL1        0.0870
      4  O          4.5580    0.6790    2.3330 O.2     1  UNL1       -0.3000
      5  C          5.8680    0.8940   -0.4780 C.3     1  UNL1        0.0430
      6  C          6.8180    0.0740   -1.2500 C.2     1  UNL1       -0.0440
      7  C          7.5010    0.5890   -2.3570 C.2     1  UNL1        0.0080
      8  C          7.0490   -1.2320   -0.8790 C.2     1  UNL1        0.0540
      9  C          8.3810   -0.2280   -3.0430 C.2     1  UNL1        0.0510
     10  C          7.9410   -2.0540   -1.5750 C.2     1  UNL1        0.1660
     11  C          8.6120   -1.5480   -2.6660 C.2     1  UNL1        0.1650
     12  O          8.3370   -3.3640   -1.4090 O.2     1  UNL1       -0.4540
     13  O          9.4150   -2.5680   -3.1520 O.2     1  UNL1       -0.4540
     14  C          9.3400   -3.7090   -2.3300 C.3     1  UNL1        0.4680
@<TRIPOS>BOND
     1    13    11    1
     2    13    14    1
     3     9    11    2
     4     9     7    1
     5    11    10    1
     6     7     6    2
     7    14    12    1
     8    10    12    1
     9    10     8    2
    10     6     8    1
    11     6     5    1
    12     5     1    1
    13     1     2    1
    14     2     4    2
    15     2     3    1
