@<TRIPOS>MOLECULE
/home/cewinharhar/GITHUB/reincatalyze/data/processed/docking_pred/2023-May-22-2206_sub9_nm5_bs15_s42_ex16_mel10_mts10000_k50_ec02_g099_lra9e-4_lrc1e-3/0df60b8790b800bbceb9ee276e91b409308b6f54_ligand_9.pdbqt
 14 15 0 0 0
SMALL
GASTEIGER

@<TRIPOS>ATOM
      1  C          5.3580   -0.1220    2.0060 C.3     1  UNL1        0.0800
      2  C          4.5480    1.1060    1.7740 C.2     1  UNL1        0.1300
      3  C          4.9010    2.0840    0.7100 C.3     1  UNL1        0.0870
      4  O          3.5640    1.3460    2.4550 O.2     1  UNL1       -0.3000
      5  C          6.8130    0.1010    1.6430 C.3     1  UNL1        0.0430
      6  C          7.2550   -0.8110    0.5730 C.2     1  UNL1       -0.0440
      7  C          7.1200   -0.4750   -0.7790 C.2     1  UNL1        0.0080
      8  C          7.8190   -2.0230    0.9000 C.2     1  UNL1        0.0540
      9  C          7.5540   -1.3710   -1.7390 C.2     1  UNL1        0.0510
     10  C          8.2560   -2.9250   -0.0750 C.2     1  UNL1        0.1660
     11  C          8.1220   -2.5960   -1.4050 C.2     1  UNL1        0.1650
     12  O          8.8390   -4.1730   -0.0070 O.2     1  UNL1       -0.4540
     13  O          8.6320   -3.6590   -2.1340 O.2     1  UNL1       -0.4540
     14  C          9.1800   -4.6410   -1.2860 C.3     1  UNL1        0.4680
@<TRIPOS>BOND
     1    13    11    1
     2    13    14    1
     3     9    11    2
     4     9     7    1
     5    11    10    1
     6    14    12    1
     7     7     6    2
     8    10    12    1
     9    10     8    2
    10     6     8    1
    11     6     5    1
    12     3     2    1
    13     5     1    1
    14     2     1    1
    15     2     4    2
