@<TRIPOS>MOLECULE
/home/cewinharhar/GITHUB/reincatalyze/data/processed/docking_pred/2023-May-22-2206_sub9_nm5_bs15_s42_ex16_mel10_mts10000_k50_ec02_g099_lra9e-4_lrc1e-3/0f3266fadafcf1f0427c019efa4a75acf26c4d64_ligand_9.pdbqt
 14 15 0 0 0
SMALL
GASTEIGER

@<TRIPOS>ATOM
      1  C          8.1040   -1.7720   -2.2750 C.3     1  UNL1        0.0800
      2  C          8.7710   -0.4440   -2.3740 C.2     1  UNL1        0.1300
      3  C          8.2000    0.6580   -3.1950 C.3     1  UNL1        0.0870
      4  O          9.8130   -0.2200   -1.7790 O.2     1  UNL1       -0.3000
      5  C          8.2330   -2.3500   -0.8800 C.3     1  UNL1        0.0430
      6  C          7.3610   -1.6540    0.0830 C.2     1  UNL1       -0.0440
      7  C          7.2420   -2.0850    1.4090 C.2     1  UNL1        0.0080
      8  C          6.6440   -0.5510   -0.3210 C.2     1  UNL1        0.0540
      9  C          6.4090   -1.3910    2.2680 C.2     1  UNL1        0.0510
     10  C          5.8030    0.1480    0.5520 C.2     1  UNL1        0.1660
     11  C          5.6840   -0.2770    1.8560 C.2     1  UNL1        0.1650
     12  O          4.9970    1.2550    0.3940 O.2     1  UNL1       -0.4540
     13  O          4.8000    0.5890    2.4800 O.2     1  UNL1       -0.4540
     14  C          4.4100    1.6280    1.6150 C.3     1  UNL1        0.4680
@<TRIPOS>BOND
     1     3     2    1
     2     2     1    1
     3     2     4    2
     4     1     5    1
     5     5     6    1
     6     8     6    2
     7     8    10    1
     8     6     7    1
     9    12    10    1
    10    12    14    1
    11    10    11    2
    12     7     9    2
    13    14    13    1
    14    11     9    1
    15    11    13    1
