@<TRIPOS>MOLECULE
/home/cewinharhar/GITHUB/reincatalyze/data/processed/docking_pred/2023-May-22-2206_sub9_nm5_bs15_s42_ex16_mel10_mts10000_k50_ec02_g099_lra9e-4_lrc1e-3/0f3266fadafcf1f0427c019efa4a75acf26c4d64_ligand_9.pdbqt
 14 15 0 0 0
SMALL
GASTEIGER

@<TRIPOS>ATOM
      1  C          8.7000   -3.9810   -0.4440 C.3     1  UNL1        0.0800
      2  C          9.2890   -4.8550   -1.4970 C.2     1  UNL1        0.1300
      3  C          8.9440   -6.2980   -1.5960 C.3     1  UNL1        0.0870
      4  O         10.0780   -4.4080   -2.3140 O.2     1  UNL1       -0.3000
      5  C          8.3090   -2.6290   -1.0070 C.3     1  UNL1        0.0430
      6  C          7.4830   -1.8600   -0.0590 C.2     1  UNL1       -0.0440
      7  C          7.4280   -2.1910    1.3000 C.2     1  UNL1        0.0080
      8  C          6.7460   -0.7890   -0.5090 C.2     1  UNL1        0.0540
      9  C          6.6360   -1.4330    2.1430 C.2     1  UNL1        0.0510
     10  C          5.9470   -0.0250    0.3480 C.2     1  UNL1        0.1660
     11  C          5.8910   -0.3500    1.6850 C.2     1  UNL1        0.1650
     12  O          5.1330    1.0690    0.1470 O.2     1  UNL1       -0.4540
     13  O          5.0360    0.5610    2.2840 O.2     1  UNL1       -0.4540
     14  C          4.6040    1.5340    1.3620 C.3     1  UNL1        0.4680
@<TRIPOS>BOND
     1     4     2    2
     2     3     2    1
     3     2     1    1
     4     5     1    1
     5     5     6    1
     6     8     6    2
     7     8    10    1
     8     6     7    1
     9    12    10    1
    10    12    14    1
    11    10    11    2
    12     7     9    2
    13    14    13    1
    14    11     9    1
    15    11    13    1
