@<TRIPOS>MOLECULE
/home/cewinharhar/GITHUB/reincatalyze/data/processed/docking_pred/2023-May-22-2206_sub9_nm5_bs15_s42_ex16_mel10_mts10000_k50_ec02_g099_lra9e-4_lrc1e-3/0f3266fadafcf1f0427c019efa4a75acf26c4d64_ligand_9.pdbqt
 14 15 0 0 0
SMALL
GASTEIGER

@<TRIPOS>ATOM
      1  C          5.9730    0.6880    2.0460 C.3     1  UNL1        0.0800
      2  C          4.6770    1.3150    1.6640 C.2     1  UNL1        0.1300
      3  C          3.4040    0.9530    2.3430 C.3     1  UNL1        0.0870
      4  O          4.6230    2.1490    0.7750 O.2     1  UNL1       -0.3000
      5  C          5.8910   -0.8250    1.9860 C.3     1  UNL1        0.0430
      6  C          6.7190   -1.3740    0.8980 C.2     1  UNL1       -0.0440
      7  C          7.5630   -2.4720    1.1010 C.2     1  UNL1        0.0080
      8  C          6.6660   -0.8040   -0.3540 C.2     1  UNL1        0.0540
      9  C          8.3150   -2.9450    0.0410 C.2     1  UNL1        0.0510
     10  C          7.4290   -1.2860   -1.4220 C.2     1  UNL1        0.1660
     11  C          8.2600   -2.3660   -1.2230 C.2     1  UNL1        0.1650
     12  O          7.5520   -0.8980   -2.7390 O.2     1  UNL1       -0.4540
     13  O          8.8820   -2.6220   -2.4340 O.2     1  UNL1       -0.4540
     14  C          8.3940   -1.7720   -3.4460 C.3     1  UNL1        0.4680
@<TRIPOS>BOND
     1    14    12    1
     2    14    13    1
     3    12    10    1
     4    13    11    1
     5    10    11    2
     6    10     8    1
     7    11     9    1
     8     8     6    2
     9     9     7    2
    10     4     2    2
    11     6     7    1
    12     6     5    1
    13     2     1    1
    14     2     3    1
    15     5     1    1
