@<TRIPOS>MOLECULE
/home/cewinharhar/GITHUB/reincatalyze/data/processed/docking_pred/2023-May-22-2206_sub9_nm5_bs15_s42_ex16_mel10_mts10000_k50_ec02_g099_lra9e-4_lrc1e-3/107d9fe849eadfc4c8ef3d04203b28ca0debfaf3_ligand_9.pdbqt
 14 15 0 0 0
SMALL
GASTEIGER

@<TRIPOS>ATOM
      1  C          8.3070    0.1920   -2.6880 C.3     1  UNL1        0.0800
      2  C          8.0220   -1.2680   -2.7580 C.2     1  UNL1        0.1300
      3  C          9.0960   -2.2610   -3.0300 C.3     1  UNL1        0.0870
      4  O          6.8900   -1.6940   -2.5940 O.2     1  UNL1       -0.3000
      5  C          8.8350    0.5850   -1.3220 C.3     1  UNL1        0.0430
      6  C          7.8090    0.4340   -0.2760 C.2     1  UNL1       -0.0440
      7  C          7.9240   -0.5320    0.7310 C.2     1  UNL1        0.0080
      8  C          6.7070    1.2580   -0.2770 C.2     1  UNL1        0.0540
      9  C          6.9300   -0.6270    1.6870 C.2     1  UNL1        0.0510
     10  C          5.7040    1.1590    0.6930 C.2     1  UNL1        0.1660
     11  C          5.8170    0.2080    1.6830 C.2     1  UNL1        0.1650
     12  O          4.5300    1.8500    0.9050 O.2     1  UNL1       -0.4540
     13  O          4.6980    0.3370    2.4910 O.2     1  UNL1       -0.4540
     14  C          3.9020    1.4250    2.0870 C.3     1  UNL1        0.4680
@<TRIPOS>BOND
     1     3     2    1
     2     2     1    1
     3     2     4    2
     4     1     5    1
     5     5     6    1
     6     8     6    2
     7     8    10    1
     8     6     7    1
     9    10    12    1
    10    10    11    2
    11     7     9    2
    12    12    14    1
    13    11     9    1
    14    11    13    1
    15    14    13    1
