@<TRIPOS>MOLECULE
/home/cewinharhar/GITHUB/reincatalyze/data/processed/docking_pred/2023-May-22-2206_sub9_nm5_bs15_s42_ex16_mel10_mts10000_k50_ec02_g099_lra9e-4_lrc1e-3/107d9fe849eadfc4c8ef3d04203b28ca0debfaf3_ligand_9.pdbqt
 14 15 0 0 0
SMALL
GASTEIGER

@<TRIPOS>ATOM
      1  C          6.3540    1.2680    0.8650 C.3     1  UNL1        0.0800
      2  C          5.6520    0.4450    1.8890 C.2     1  UNL1        0.1300
      3  C          6.2680   -0.7840    2.4590 C.3     1  UNL1        0.0870
      4  O          4.5430    0.7570    2.2910 O.2     1  UNL1       -0.3000
      5  C          5.8570    0.9520   -0.5310 C.3     1  UNL1        0.0430
      6  C          6.8190    0.1220   -1.2790 C.2     1  UNL1       -0.0440
      7  C          7.5420    0.6340   -2.3620 C.2     1  UNL1        0.0080
      8  C          7.0210   -1.1880   -0.9090 C.2     1  UNL1        0.0540
      9  C          8.4320   -0.1910   -3.0250 C.2     1  UNL1        0.0510
     10  C          7.9220   -2.0190   -1.5830 C.2     1  UNL1        0.1660
     11  C          8.6330   -1.5160   -2.6500 C.2     1  UNL1        0.1650
     12  O          8.2950   -3.3350   -1.4120 O.2     1  UNL1       -0.4540
     13  O          9.4370   -2.5440   -3.1160 O.2     1  UNL1       -0.4540
     14  C          9.3210   -3.6880   -2.3040 C.3     1  UNL1        0.4680
@<TRIPOS>BOND
     1    13    11    1
     2    13    14    1
     3     9    11    2
     4     9     7    1
     5    11    10    1
     6     7     6    2
     7    14    12    1
     8    10    12    1
     9    10     8    2
    10     6     8    1
    11     6     5    1
    12     5     1    1
    13     1     2    1
    14     2     4    2
    15     2     3    1
