@<TRIPOS>MOLECULE
/home/cewinharhar/GITHUB/reincatalyze/data/processed/docking_pred/2023-May-22-2206_sub9_nm5_bs15_s42_ex16_mel10_mts10000_k50_ec02_g099_lra9e-4_lrc1e-3/107d9fe849eadfc4c8ef3d04203b28ca0debfaf3_ligand_9.pdbqt
 14 15 0 0 0
SMALL
GASTEIGER

@<TRIPOS>ATOM
      1  C          5.5310    1.5480    0.0120 C.3     1  UNL1        0.0800
      2  C          4.9250    1.1620    1.3160 C.2     1  UNL1        0.1300
      3  C          5.4230   -0.0040    2.0940 C.3     1  UNL1        0.0870
      4  O          3.9950    1.7970    1.7870 O.2     1  UNL1       -0.3000
      5  C          7.0260    1.2980    0.0040 C.3     1  UNL1        0.0430
      6  C          7.3690    0.0540   -0.7080 C.2     1  UNL1       -0.0440
      7  C          7.2420   -0.0530   -2.0980 C.2     1  UNL1        0.0080
      8  C          7.8270   -1.0330   -0.0000 C.2     1  UNL1        0.0540
      9  C          7.5790   -1.2460   -2.7130 C.2     1  UNL1        0.0510
     10  C          8.1670   -2.2370   -0.6260 C.2     1  UNL1        0.1660
     11  C          8.0410   -2.3430   -1.9940 C.2     1  UNL1        0.1650
     12  O          8.6380   -3.4420   -0.1520 O.2     1  UNL1       -0.4540
     13  O          8.4430   -3.6260   -2.3340 O.2     1  UNL1       -0.4540
     14  C          8.9150   -4.3260   -1.2080 C.3     1  UNL1        0.4680
@<TRIPOS>BOND
     1     9     7    1
     2     9    11    2
     3    13    11    1
     4    13    14    1
     5     7     6    2
     6    11    10    1
     7    14    12    1
     8     6     8    1
     9     6     5    1
    10    10    12    1
    11    10     8    2
    12     5     1    1
    13     1     2    1
    14     2     4    2
    15     2     3    1
