MODEL 1
REMARK VINA RESULT:      -7.6      0.000      0.000
REMARK SMILES CC(=O)CCc1ccc2c(c1)OCO2
REMARK SMILES IDX 4 1 2 2 1 3 3 4 5 5 6 6 7 7 11 8 8 9 10 10 9 11 12 12 14 13
REMARK SMILES IDX 13 14
REMARK H PARENT
REMARK Flexibility Score: inf
ROOT
ATOM      1  C   UNL     1       5.512   1.948   1.260  1.00  0.00     0.080 C 
ENDROOT
BRANCH   1   2
ATOM      2  C   UNL     1       5.078   0.732   2.003  1.00  0.00     0.130 C 
ATOM      3  C   UNL     1       5.985  -0.432   2.194  1.00  0.00     0.087 C 
ATOM      4  O   UNL     1       3.958   0.655   2.481  1.00  0.00    -0.300 OA
ENDBRANCH   1   2
BRANCH   1   5
ATOM      5  C   UNL     1       5.385   1.752  -0.238  1.00  0.00     0.043 C 
BRANCH   5   6
ATOM      6  C   UNL     1       6.553   1.048  -0.797  1.00  0.00    -0.044 A 
ATOM      7  C   UNL     1       7.860   1.484  -0.548  1.00  0.00     0.008 A 
ATOM      8  C   UNL     1       6.366  -0.066  -1.583  1.00  0.00     0.054 A 
ATOM      9  C   UNL     1       8.917   0.783  -1.099  1.00  0.00     0.051 A 
ATOM     10  C   UNL     1       7.438  -0.771  -2.138  1.00  0.00     0.166 A 
ATOM     11  C   UNL     1       8.724  -0.343  -1.894  1.00  0.00     0.165 A 
ATOM     12  O   UNL     1       7.513  -1.890  -2.940  1.00  0.00    -0.454 OA
ATOM     13  O   UNL     1       9.570  -1.217  -2.558  1.00  0.00    -0.454 OA
ATOM     14  C   UNL     1       8.848  -2.266  -3.159  1.00  0.00     0.468 C 
ENDBRANCH   5   6
ENDBRANCH   1   5
TORSDOF 3
ENDMDL
MODEL 2
REMARK VINA RESULT:      -7.4      1.926      2.376
REMARK SMILES CC(=O)CCc1ccc2c(c1)OCO2
REMARK SMILES IDX 4 1 2 2 1 3 3 4 5 5 6 6 7 7 11 8 8 9 10 10 9 11 12 12 14 13
REMARK SMILES IDX 13 14
REMARK H PARENT
REMARK Flexibility Score: inf
ROOT
ATOM      1  C   UNL     1       5.677   1.362  -0.312  1.00  0.00     0.080 C 
ENDROOT
BRANCH   1   2
ATOM      2  C   UNL     1       5.019   1.265   1.020  1.00  0.00     0.130 C 
ATOM      3  C   UNL     1       5.287   0.129   1.943  1.00  0.00     0.087 C 
ATOM      4  O   UNL     1       4.234   2.121   1.395  1.00  0.00    -0.300 OA
ENDBRANCH   1   2
BRANCH   1   5
ATOM      5  C   UNL     1       7.170   1.118  -0.208  1.00  0.00     0.043 C 
BRANCH   5   6
ATOM      6  C   UNL     1       7.558  -0.165  -0.821  1.00  0.00    -0.044 A 
ATOM      7  C   UNL     1       7.630  -0.322  -2.209  1.00  0.00     0.008 A 
ATOM      8  C   UNL     1       7.861  -1.241  -0.017  1.00  0.00     0.054 A 
ATOM      9  C   UNL     1       8.000  -1.550  -2.728  1.00  0.00     0.051 A 
ATOM     10  C   UNL     1       8.236  -2.480  -0.546  1.00  0.00     0.166 A 
ATOM     11  C   UNL     1       8.306  -2.635  -1.913  1.00  0.00     0.165 A 
ATOM     12  O   UNL     1       8.581  -3.683   0.032  1.00  0.00    -0.454 OA
ATOM     13  O   UNL     1       8.697  -3.944  -2.148  1.00  0.00    -0.454 OA
ATOM     14  C   UNL     1       8.970  -4.617  -0.942  1.00  0.00     0.468 C 
ENDBRANCH   5   6
ENDBRANCH   1   5
TORSDOF 3
ENDMDL
MODEL 3
REMARK VINA RESULT:      -7.2      2.071      2.643
REMARK SMILES CC(=O)CCc1ccc2c(c1)OCO2
REMARK SMILES IDX 4 1 2 2 1 3 3 4 5 5 6 6 7 7 11 8 8 9 10 10 9 11 12 12 14 13
REMARK SMILES IDX 13 14
REMARK H PARENT
REMARK Flexibility Score: inf
ROOT
ATOM      1  C   UNL     1       5.420  -0.051   1.970  1.00  0.00     0.080 C 
ENDROOT
BRANCH   1   2
ATOM      2  C   UNL     1       4.550   1.127   1.698  1.00  0.00     0.130 C 
ATOM      3  C   UNL     1       4.844   2.076   0.592  1.00  0.00     0.087 C 
ATOM      4  O   UNL     1       3.563   1.349   2.382  1.00  0.00    -0.300 OA
ENDBRANCH   1   2
BRANCH   1   5
ATOM      5  C   UNL     1       6.847   0.205   1.530  1.00  0.00     0.043 C 
BRANCH   5   6
ATOM      6  C   UNL     1       7.273  -0.737   0.480  1.00  0.00    -0.044 A 
ATOM      7  C   UNL     1       7.123  -0.438  -0.879  1.00  0.00     0.008 A 
ATOM      8  C   UNL     1       7.836  -1.943   0.832  1.00  0.00     0.054 A 
ATOM      9  C   UNL     1       7.542  -1.361  -1.820  1.00  0.00     0.051 A 
ATOM     10  C   UNL     1       8.259  -2.872  -0.123  1.00  0.00     0.166 A 
ATOM     11  C   UNL     1       8.110  -2.579  -1.460  1.00  0.00     0.165 A 
ATOM     12  O   UNL     1       8.838  -4.120  -0.028  1.00  0.00    -0.454 OA
ATOM     13  O   UNL     1       8.607  -3.663  -2.166  1.00  0.00    -0.454 OA
ATOM     14  C   UNL     1       9.161  -4.623  -1.299  1.00  0.00     0.468 C 
ENDBRANCH   5   6
ENDBRANCH   1   5
TORSDOF 3
ENDMDL
MODEL 4
REMARK VINA RESULT:      -7.1      1.965      2.524
REMARK SMILES CC(=O)CCc1ccc2c(c1)OCO2
REMARK SMILES IDX 4 1 2 2 1 3 3 4 5 5 6 6 7 7 11 8 8 9 10 10 9 11 12 12 14 13
REMARK SMILES IDX 13 14
REMARK H PARENT
REMARK Flexibility Score: inf
ROOT
ATOM      1  C   UNL     1       6.757   0.762   1.329  1.00  0.00     0.080 C 
ENDROOT
BRANCH   1   2
ATOM      2  C   UNL     1       5.322   1.155   1.399  1.00  0.00     0.130 C 
ATOM      3  C   UNL     1       4.738   2.150   0.461  1.00  0.00     0.087 C 
ATOM      4  O   UNL     1       4.579   0.667   2.236  1.00  0.00    -0.300 OA
ENDBRANCH   1   2
BRANCH   1   5
ATOM      5  C   UNL     1       7.326   0.998  -0.056  1.00  0.00     0.043 C 
BRANCH   5   6
ATOM      6  C   UNL     1       7.681  -0.266  -0.724  1.00  0.00    -0.044 A 
ATOM      7  C   UNL     1       7.764  -0.361  -2.118  1.00  0.00     0.008 A 
ATOM      8  C   UNL     1       7.944  -1.386   0.032  1.00  0.00     0.054 A 
ATOM      9  C   UNL     1       8.103  -1.574  -2.689  1.00  0.00     0.051 A 
ATOM     10  C   UNL     1       8.287  -2.610  -0.551  1.00  0.00     0.166 A 
ATOM     11  C   UNL     1       8.367  -2.705  -1.922  1.00  0.00     0.165 A 
ATOM     12  O   UNL     1       8.588  -3.849  -0.026  1.00  0.00    -0.454 OA
ATOM     13  O   UNL     1       8.721  -4.013  -2.214  1.00  0.00    -0.454 OA
ATOM     14  C   UNL     1       8.960  -4.749  -1.038  1.00  0.00     0.468 C 
ENDBRANCH   5   6
ENDBRANCH   1   5
TORSDOF 3
ENDMDL
MODEL 5
REMARK VINA RESULT:      -7.0      1.253      1.464
REMARK SMILES CC(=O)CCc1ccc2c(c1)OCO2
REMARK SMILES IDX 4 1 2 2 1 3 3 4 5 5 6 6 7 7 11 8 8 9 10 10 9 11 12 12 14 13
REMARK SMILES IDX 13 14
REMARK H PARENT
REMARK Flexibility Score: inf
ROOT
ATOM      1  C   UNL     1       6.368   1.167   0.965  1.00  0.00     0.080 C 
ENDROOT
BRANCH   1   2
ATOM      2  C   UNL     1       5.641   0.326   1.957  1.00  0.00     0.130 C 
ATOM      3  C   UNL     1       6.260  -0.888   2.554  1.00  0.00     0.087 C 
ATOM      4  O   UNL     1       4.508   0.611   2.310  1.00  0.00    -0.300 OA
ENDBRANCH   1   2
BRANCH   1   5
ATOM      5  C   UNL     1       5.867   0.914  -0.443  1.00  0.00     0.043 C 
BRANCH   5   6
ATOM      6  C   UNL     1       6.816   0.100  -1.222  1.00  0.00    -0.044 A 
ATOM      7  C   UNL     1       7.509   0.630  -2.317  1.00  0.00     0.008 A 
ATOM      8  C   UNL     1       7.036  -1.213  -0.873  1.00  0.00     0.054 A 
ATOM      9  C   UNL     1       8.388  -0.182  -3.011  1.00  0.00     0.051 A 
ATOM     10  C   UNL     1       7.927  -2.029  -1.577  1.00  0.00     0.166 A 
ATOM     11  C   UNL     1       8.608  -1.509  -2.655  1.00  0.00     0.165 A 
ATOM     12  O   UNL     1       8.312  -3.345  -1.431  1.00  0.00    -0.454 OA
ATOM     13  O   UNL     1       9.407  -2.526  -3.153  1.00  0.00    -0.454 OA
ATOM     14  C   UNL     1       9.319  -3.680  -2.351  1.00  0.00     0.468 C 
ENDBRANCH   5   6
ENDBRANCH   1   5
TORSDOF 3
ENDMDL
