@<TRIPOS>MOLECULE
/home/cewinharhar/GITHUB/reincatalyze/data/processed/docking_pred/2023-May-22-2206_sub9_nm5_bs15_s42_ex16_mel10_mts10000_k50_ec02_g099_lra9e-4_lrc1e-3/10ef791c1764d6d7d99274693c0e95c254b80295_ligand_9.pdbqt
 14 15 0 0 0
SMALL
GASTEIGER

@<TRIPOS>ATOM
      1  C          5.4200   -0.0510    1.9700 C.3     1  UNL1        0.0800
      2  C          4.5500    1.1270    1.6980 C.2     1  UNL1        0.1300
      3  C          4.8440    2.0760    0.5920 C.3     1  UNL1        0.0870
      4  O          3.5630    1.3490    2.3820 O.2     1  UNL1       -0.3000
      5  C          6.8470    0.2050    1.5300 C.3     1  UNL1        0.0430
      6  C          7.2730   -0.7370    0.4800 C.2     1  UNL1       -0.0440
      7  C          7.1230   -0.4380   -0.8790 C.2     1  UNL1        0.0080
      8  C          7.8360   -1.9430    0.8320 C.2     1  UNL1        0.0540
      9  C          7.5420   -1.3610   -1.8200 C.2     1  UNL1        0.0510
     10  C          8.2590   -2.8720   -0.1230 C.2     1  UNL1        0.1660
     11  C          8.1100   -2.5790   -1.4600 C.2     1  UNL1        0.1650
     12  O          8.8380   -4.1200   -0.0280 O.2     1  UNL1       -0.4540
     13  O          8.6070   -3.6630   -2.1660 O.2     1  UNL1       -0.4540
     14  C          9.1610   -4.6230   -1.2990 C.3     1  UNL1        0.4680
@<TRIPOS>BOND
     1    13    11    1
     2    13    14    1
     3     9    11    2
     4     9     7    1
     5    11    10    1
     6    14    12    1
     7     7     6    2
     8    10    12    1
     9    10     8    2
    10     6     8    1
    11     6     5    1
    12     3     2    1
    13     5     1    1
    14     2     1    1
    15     2     4    2
