@<TRIPOS>MOLECULE
/home/cewinharhar/GITHUB/reincatalyze/data/processed/docking_pred/2023-May-22-2206_sub9_nm5_bs15_s42_ex16_mel10_mts10000_k50_ec02_g099_lra9e-4_lrc1e-3/137462db5aaa4c0d89203b892bf7897df04b2771_ligand_9.pdbqt
 14 15 0 0 0
SMALL
GASTEIGER

@<TRIPOS>ATOM
      1  C          6.8060    0.8200    1.2870 C.3     1  UNL1        0.0800
      2  C          5.3690    1.1860    1.4320 C.2     1  UNL1        0.1300
      3  C          4.7120    2.1500    0.5090 C.3     1  UNL1        0.0870
      4  O          4.6860    0.7030    2.3200 O.2     1  UNL1       -0.3000
      5  C          7.2820    1.0160   -0.1390 C.3     1  UNL1        0.0430
      6  C          7.6400   -0.2630   -0.7770 C.2     1  UNL1       -0.0440
      7  C          7.6840   -0.4010   -2.1690 C.2     1  UNL1        0.0080
      8  C          7.9420   -1.3550    0.0050 C.2     1  UNL1        0.0540
      9  C          8.0270   -1.6260   -2.7110 C.2     1  UNL1        0.0510
     10  C          8.2890   -2.5910   -0.5480 C.2     1  UNL1        0.1660
     11  C          8.3310   -2.7280   -1.9170 C.2     1  UNL1        0.1650
     12  O          8.6260   -3.8070    0.0070 O.2     1  UNL1       -0.4540
     13  O          8.6980   -4.0390   -2.1780 O.2     1  UNL1       -0.4540
     14  C          8.9830   -4.7330   -0.9870 C.3     1  UNL1        0.4680
@<TRIPOS>BOND
     1     9     7    1
     2     9    11    2
     3    13    11    1
     4    13    14    1
     5     7     6    2
     6    11    10    1
     7    14    12    1
     8     6     5    1
     9     6     8    1
    10    10     8    2
    11    10    12    1
    12     5     1    1
    13     3     2    1
    14     1     2    1
    15     2     4    2
