@<TRIPOS>MOLECULE
/home/cewinharhar/GITHUB/reincatalyze/data/processed/docking_pred/2023-May-22-2206_sub9_nm5_bs15_s42_ex16_mel10_mts10000_k50_ec02_g099_lra9e-4_lrc1e-3/13e8c6f9c16a4fbf8ad14846e02839591438c51f_ligand_9.pdbqt
 14 15 0 0 0
SMALL
GASTEIGER

@<TRIPOS>ATOM
      1  C          5.5250    1.9270    1.2520 C.3     1  UNL1        0.0800
      2  C          5.0920    0.7140    2.0000 C.2     1  UNL1        0.1300
      3  C          5.9950   -0.4540    2.1840 C.3     1  UNL1        0.0870
      4  O          3.9750    0.6430    2.4870 O.2     1  UNL1       -0.3000
      5  C          5.3980    1.7250   -0.2450 C.3     1  UNL1        0.0430
      6  C          6.5660    1.0200   -0.8030 C.2     1  UNL1       -0.0440
      7  C          7.8730    1.4530   -0.5490 C.2     1  UNL1        0.0080
      8  C          6.3790   -0.0920   -1.5910 C.2     1  UNL1        0.0540
      9  C          8.9300    0.7510   -1.0990 C.2     1  UNL1        0.0510
     10  C          7.4520   -0.7990   -2.1440 C.2     1  UNL1        0.1660
     11  C          8.7380   -0.3730   -1.8960 C.2     1  UNL1        0.1650
     12  O          7.5270   -1.9160   -2.9480 O.2     1  UNL1       -0.4540
     13  O          9.5850   -1.2480   -2.5590 O.2     1  UNL1       -0.4540
     14  C          8.8620   -2.2940   -3.1640 C.3     1  UNL1        0.4680
@<TRIPOS>BOND
     1    14    12    1
     2    14    13    1
     3    12    10    1
     4    13    11    1
     5    10    11    2
     6    10     8    1
     7    11     9    1
     8     8     6    2
     9     9     7    2
    10     6     7    1
    11     6     5    1
    12     5     1    1
    13     1     2    1
    14     2     3    1
    15     2     4    2
