MODEL 1
REMARK VINA RESULT:      -7.6      0.000      0.000
REMARK SMILES CC(=O)CCc1ccc2c(c1)OCO2
REMARK SMILES IDX 4 1 2 2 1 3 3 4 5 5 6 6 7 7 11 8 8 9 10 10 9 11 12 12 14 13
REMARK SMILES IDX 13 14
REMARK H PARENT
REMARK Flexibility Score: inf
ROOT
ATOM      1  C   UNL     1       5.529   1.934   1.263  1.00  0.00     0.080 C 
ENDROOT
BRANCH   1   2
ATOM      2  C   UNL     1       5.100   0.718   2.008  1.00  0.00     0.130 C 
ATOM      3  C   UNL     1       6.006  -0.447   2.190  1.00  0.00     0.087 C 
ATOM      4  O   UNL     1       3.982   0.642   2.493  1.00  0.00    -0.300 OA
ENDBRANCH   1   2
BRANCH   1   5
ATOM      5  C   UNL     1       5.400   1.737  -0.234  1.00  0.00     0.043 C 
BRANCH   5   6
ATOM      6  C   UNL     1       6.567   1.034  -0.795  1.00  0.00    -0.044 A 
ATOM      7  C   UNL     1       7.874   1.465  -0.543  1.00  0.00     0.008 A 
ATOM      8  C   UNL     1       6.379  -0.076  -1.587  1.00  0.00     0.054 A 
ATOM      9  C   UNL     1       8.931   0.765  -1.096  1.00  0.00     0.051 A 
ATOM     10  C   UNL     1       7.451  -0.781  -2.143  1.00  0.00     0.166 A 
ATOM     11  C   UNL     1       8.737  -0.357  -1.896  1.00  0.00     0.165 A 
ATOM     12  O   UNL     1       7.524  -1.897  -2.950  1.00  0.00    -0.454 OA
ATOM     13  O   UNL     1       9.582  -1.230  -2.562  1.00  0.00    -0.454 OA
ATOM     14  C   UNL     1       8.859  -2.274  -3.169  1.00  0.00     0.468 C 
ENDBRANCH   5   6
ENDBRANCH   1   5
TORSDOF 3
ENDMDL
MODEL 2
REMARK VINA RESULT:      -7.4      1.928      2.401
REMARK SMILES CC(=O)CCc1ccc2c(c1)OCO2
REMARK SMILES IDX 4 1 2 2 1 3 3 4 5 5 6 6 7 7 11 8 8 9 10 10 9 11 12 12 14 13
REMARK SMILES IDX 13 14
REMARK H PARENT
REMARK Flexibility Score: inf
ROOT
ATOM      1  C   UNL     1       5.767   1.335  -0.260  1.00  0.00     0.080 C 
ENDROOT
BRANCH   1   2
ATOM      2  C   UNL     1       5.188   1.272   1.111  1.00  0.00     0.130 C 
ATOM      3  C   UNL     1       5.488   0.143   2.033  1.00  0.00     0.087 C 
ATOM      4  O   UNL     1       4.446   2.150   1.520  1.00  0.00    -0.300 OA
ENDBRANCH   1   2
BRANCH   1   5
ATOM      5  C   UNL     1       7.262   1.086  -0.239  1.00  0.00     0.043 C 
BRANCH   5   6
ATOM      6  C   UNL     1       7.608  -0.208  -0.855  1.00  0.00    -0.044 A 
ATOM      7  C   UNL     1       7.632  -0.376  -2.244  1.00  0.00     0.008 A 
ATOM      8  C   UNL     1       7.921  -1.282  -0.053  1.00  0.00     0.054 A 
ATOM      9  C   UNL     1       7.965  -1.613  -2.765  1.00  0.00     0.051 A 
ATOM     10  C   UNL     1       8.258  -2.531  -0.585  1.00  0.00     0.166 A 
ATOM     11  C   UNL     1       8.280  -2.697  -1.952  1.00  0.00     0.165 A 
ATOM     12  O   UNL     1       8.602  -3.735  -0.009  1.00  0.00    -0.454 OA
ATOM     13  O   UNL     1       8.642  -4.014  -2.189  1.00  0.00    -0.454 OA
ATOM     14  C   UNL     1       8.943  -4.683  -0.988  1.00  0.00     0.468 C 
ENDBRANCH   5   6
ENDBRANCH   1   5
TORSDOF 3
ENDMDL
MODEL 3
REMARK VINA RESULT:      -7.2      2.092      2.640
REMARK SMILES CC(=O)CCc1ccc2c(c1)OCO2
REMARK SMILES IDX 4 1 2 2 1 3 3 4 5 5 6 6 7 7 11 8 8 9 10 10 9 11 12 12 14 13
REMARK SMILES IDX 13 14
REMARK H PARENT
REMARK Flexibility Score: inf
ROOT
ATOM      1  C   UNL     1       5.614  -0.051   2.006  1.00  0.00     0.080 C 
ENDROOT
BRANCH   1   2
ATOM      2  C   UNL     1       4.713   1.089   1.679  1.00  0.00     0.130 C 
ATOM      3  C   UNL     1       5.004   2.018   0.555  1.00  0.00     0.087 C 
ATOM      4  O   UNL     1       3.702   1.295   2.331  1.00  0.00    -0.300 OA
ENDBRANCH   1   2
BRANCH   1   5
ATOM      5  C   UNL     1       7.026   0.207   1.517  1.00  0.00     0.043 C 
BRANCH   5   6
ATOM      6  C   UNL     1       7.420  -0.744   0.462  1.00  0.00    -0.044 A 
ATOM      7  C   UNL     1       7.304  -0.423  -0.895  1.00  0.00     0.008 A 
ATOM      8  C   UNL     1       7.918  -1.980   0.808  1.00  0.00     0.054 A 
ATOM      9  C   UNL     1       7.691  -1.355  -1.841  1.00  0.00     0.051 A 
ATOM     10  C   UNL     1       8.309  -2.918  -0.152  1.00  0.00     0.166 A 
ATOM     11  C   UNL     1       8.194  -2.603  -1.487  1.00  0.00     0.165 A 
ATOM     12  O   UNL     1       8.825  -4.194  -0.063  1.00  0.00    -0.454 OA
ATOM     13  O   UNL     1       8.647  -3.703  -2.199  1.00  0.00    -0.454 OA
ATOM     14  C   UNL     1       9.141  -4.699  -1.335  1.00  0.00     0.468 C 
ENDBRANCH   5   6
ENDBRANCH   1   5
TORSDOF 3
ENDMDL
MODEL 4
REMARK VINA RESULT:      -7.1      1.242      1.442
REMARK SMILES CC(=O)CCc1ccc2c(c1)OCO2
REMARK SMILES IDX 4 1 2 2 1 3 3 4 5 5 6 6 7 7 11 8 8 9 10 10 9 11 12 12 14 13
REMARK SMILES IDX 13 14
REMARK H PARENT
REMARK Flexibility Score: inf
ROOT
ATOM      1  C   UNL     1       6.331   1.272   0.855  1.00  0.00     0.080 C 
ENDROOT
BRANCH   1   2
ATOM      2  C   UNL     1       5.659   0.463   1.910  1.00  0.00     0.130 C 
ATOM      3  C   UNL     1       6.293  -0.754   2.483  1.00  0.00     0.087 C 
ATOM      4  O   UNL     1       4.560   0.778   2.336  1.00  0.00    -0.300 OA
ENDBRANCH   1   2
BRANCH   1   5
ATOM      5  C   UNL     1       5.817   0.913  -0.525  1.00  0.00     0.043 C 
BRANCH   5   6
ATOM      6  C   UNL     1       6.791   0.103  -1.278  1.00  0.00    -0.044 A 
ATOM      7  C   UNL     1       7.517   0.637  -2.349  1.00  0.00     0.008 A 
ATOM      8  C   UNL     1       7.003  -1.211  -0.926  1.00  0.00     0.054 A 
ATOM      9  C   UNL     1       8.418  -0.170  -3.018  1.00  0.00     0.051 A 
ATOM     10  C   UNL     1       7.916  -2.023  -1.605  1.00  0.00     0.166 A 
ATOM     11  C   UNL     1       8.629  -1.498  -2.660  1.00  0.00     0.165 A 
ATOM     12  O   UNL     1       8.300  -3.338  -1.451  1.00  0.00    -0.454 OA
ATOM     13  O   UNL     1       9.446  -2.513  -3.135  1.00  0.00    -0.454 OA
ATOM     14  C   UNL     1       9.335  -3.669  -2.341  1.00  0.00     0.468 C 
ENDBRANCH   5   6
ENDBRANCH   1   5
TORSDOF 3
ENDMDL
MODEL 5
REMARK VINA RESULT:      -6.8      1.916      2.563
REMARK SMILES CC(=O)CCc1ccc2c(c1)OCO2
REMARK SMILES IDX 4 1 2 2 1 3 3 4 5 5 6 6 7 7 11 8 8 9 10 10 9 11 12 12 14 13
REMARK SMILES IDX 13 14
REMARK H PARENT
REMARK Flexibility Score: inf
ROOT
ATOM      1  C   UNL     1       6.972   0.948   0.796  1.00  0.00     0.080 C 
ENDROOT
BRANCH   1   2
ATOM      2  C   UNL     1       5.595   1.154   1.323  1.00  0.00     0.130 C 
ATOM      3  C   UNL     1       4.669   2.149   0.720  1.00  0.00     0.087 C 
ATOM      4  O   UNL     1       5.184   0.508   2.274  1.00  0.00    -0.300 OA
ENDBRANCH   1   2
BRANCH   1   5
ATOM      5  C   UNL     1       6.979   0.890  -0.719  1.00  0.00     0.043 C 
BRANCH   5   6
ATOM      6  C   UNL     1       7.525  -0.385  -1.215  1.00  0.00    -0.044 A 
ATOM      7  C   UNL     1       7.854  -0.567  -2.564  1.00  0.00     0.008 A 
ATOM      8  C   UNL     1       7.724  -1.429  -0.340  1.00  0.00     0.054 A 
ATOM      9  C   UNL     1       8.364  -1.786  -2.972  1.00  0.00     0.051 A 
ATOM     10  C   UNL     1       8.241  -2.659  -0.758  1.00  0.00     0.166 A 
ATOM     11  C   UNL     1       8.563  -2.839  -2.084  1.00  0.00     0.165 A 
ATOM     12  O   UNL     1       8.525  -3.833  -0.093  1.00  0.00    -0.454 OA
ATOM     13  O   UNL     1       9.045  -4.133  -2.208  1.00  0.00    -0.454 OA
ATOM     14  C   UNL     1       9.123  -4.768  -0.954  1.00  0.00     0.468 C 
ENDBRANCH   5   6
ENDBRANCH   1   5
TORSDOF 3
ENDMDL
