@<TRIPOS>MOLECULE
/home/cewinharhar/GITHUB/reincatalyze/data/processed/docking_pred/2023-May-22-2206_sub9_nm5_bs15_s42_ex16_mel10_mts10000_k50_ec02_g099_lra9e-4_lrc1e-3/141a4713aaf07cdd351da17b8461b13d6c9c65f9_ligand_9.pdbqt
 14 15 0 0 0
SMALL
GASTEIGER

@<TRIPOS>ATOM
      1  C          5.6140   -0.0510    2.0060 C.3     1  UNL1        0.0800
      2  C          4.7130    1.0890    1.6790 C.2     1  UNL1        0.1300
      3  C          5.0040    2.0180    0.5550 C.3     1  UNL1        0.0870
      4  O          3.7020    1.2950    2.3310 O.2     1  UNL1       -0.3000
      5  C          7.0260    0.2070    1.5170 C.3     1  UNL1        0.0430
      6  C          7.4200   -0.7440    0.4620 C.2     1  UNL1       -0.0440
      7  C          7.3040   -0.4230   -0.8950 C.2     1  UNL1        0.0080
      8  C          7.9180   -1.9800    0.8080 C.2     1  UNL1        0.0540
      9  C          7.6910   -1.3550   -1.8410 C.2     1  UNL1        0.0510
     10  C          8.3090   -2.9180   -0.1520 C.2     1  UNL1        0.1660
     11  C          8.1940   -2.6030   -1.4870 C.2     1  UNL1        0.1650
     12  O          8.8250   -4.1940   -0.0630 O.2     1  UNL1       -0.4540
     13  O          8.6470   -3.7030   -2.1990 O.2     1  UNL1       -0.4540
     14  C          9.1410   -4.6990   -1.3350 C.3     1  UNL1        0.4680
@<TRIPOS>BOND
     1    13    11    1
     2    13    14    1
     3     9    11    2
     4     9     7    1
     5    11    10    1
     6    14    12    1
     7     7     6    2
     8    10    12    1
     9    10     8    2
    10     6     8    1
    11     6     5    1
    12     3     2    1
    13     5     1    1
    14     2     1    1
    15     2     4    2
