@<TRIPOS>MOLECULE
/home/cewinharhar/GITHUB/reincatalyze/data/processed/docking_pred/2023-May-22-2206_sub9_nm5_bs15_s42_ex16_mel10_mts10000_k50_ec02_g099_lra9e-4_lrc1e-3/141a4713aaf07cdd351da17b8461b13d6c9c65f9_ligand_9.pdbqt
 14 15 0 0 0
SMALL
GASTEIGER

@<TRIPOS>ATOM
      1  C          5.5290    1.9340    1.2630 C.3     1  UNL1        0.0800
      2  C          5.1000    0.7180    2.0080 C.2     1  UNL1        0.1300
      3  C          6.0060   -0.4470    2.1900 C.3     1  UNL1        0.0870
      4  O          3.9820    0.6420    2.4930 O.2     1  UNL1       -0.3000
      5  C          5.4000    1.7370   -0.2340 C.3     1  UNL1        0.0430
      6  C          6.5670    1.0340   -0.7950 C.2     1  UNL1       -0.0440
      7  C          7.8740    1.4650   -0.5430 C.2     1  UNL1        0.0080
      8  C          6.3790   -0.0760   -1.5870 C.2     1  UNL1        0.0540
      9  C          8.9310    0.7650   -1.0960 C.2     1  UNL1        0.0510
     10  C          7.4510   -0.7810   -2.1430 C.2     1  UNL1        0.1660
     11  C          8.7370   -0.3570   -1.8960 C.2     1  UNL1        0.1650
     12  O          7.5240   -1.8970   -2.9500 O.2     1  UNL1       -0.4540
     13  O          9.5820   -1.2300   -2.5620 O.2     1  UNL1       -0.4540
     14  C          8.8590   -2.2740   -3.1690 C.3     1  UNL1        0.4680
@<TRIPOS>BOND
     1    14    12    1
     2    14    13    1
     3    12    10    1
     4    13    11    1
     5    10    11    2
     6    10     8    1
     7    11     9    1
     8     8     6    2
     9     9     7    2
    10     6     7    1
    11     6     5    1
    12     5     1    1
    13     1     2    1
    14     2     3    1
    15     2     4    2
