@<TRIPOS>MOLECULE
/home/cewinharhar/GITHUB/reincatalyze/data/processed/docking_pred/2023-May-22-2206_sub9_nm5_bs15_s42_ex16_mel10_mts10000_k50_ec02_g099_lra9e-4_lrc1e-3/1444e75be78da7e2931ed2b5f85ad252461f0798_ligand_9.pdbqt
 14 15 0 0 0
SMALL
GASTEIGER

@<TRIPOS>ATOM
      1  C          5.7370    1.2090   -0.3320 C.3     1  UNL1        0.0800
      2  C          5.1880    1.1890    1.0530 C.2     1  UNL1        0.1300
      3  C          5.3580    0.0110    1.9440 C.3     1  UNL1        0.0870
      4  O          4.5770    2.1470    1.4980 O.2     1  UNL1       -0.3000
      5  C          7.2430    1.0340   -0.3290 C.3     1  UNL1        0.0430
      6  C          7.6450   -0.2520   -0.9260 C.2     1  UNL1       -0.0440
      7  C          7.7490   -0.4160   -2.3120 C.2     1  UNL1        0.0080
      8  C          7.9300   -1.3240   -0.1100 C.2     1  UNL1        0.0540
      9  C          8.1320   -1.6460   -2.8150 C.2     1  UNL1        0.0510
     10  C          8.3170   -2.5650   -0.6240 C.2     1  UNL1        0.1660
     11  C          8.4180   -2.7270   -1.9880 C.2     1  UNL1        0.1650
     12  O          8.6470   -3.7650   -0.0320 O.2     1  UNL1       -0.4540
     13  O          8.8140   -4.0380   -2.2070 O.2     1  UNL1       -0.4540
     14  C          9.0590   -4.7050   -0.9910 C.3     1  UNL1        0.4680
@<TRIPOS>BOND
     1     9     7    1
     2     9    11    2
     3     7     6    2
     4    13    11    1
     5    13    14    1
     6    11    10    1
     7    14    12    1
     8     6     5    1
     9     6     8    1
    10    10     8    2
    11    10    12    1
    12     1     5    1
    13     1     2    1
    14     2     4    2
    15     2     3    1
