@<TRIPOS>MOLECULE
/home/cewinharhar/GITHUB/reincatalyze/data/processed/docking_pred/2023-May-22-2206_sub9_nm5_bs15_s42_ex16_mel10_mts10000_k50_ec02_g099_lra9e-4_lrc1e-3/1444e75be78da7e2931ed2b5f85ad252461f0798_ligand_9.pdbqt
 14 15 0 0 0
SMALL
GASTEIGER

@<TRIPOS>ATOM
      1  C          5.4230   -0.0460    2.0050 C.3     1  UNL1        0.0800
      2  C          4.5330    1.1220    1.7530 C.2     1  UNL1        0.1300
      3  C          4.8200    2.1030    0.6730 C.3     1  UNL1        0.0870
      4  O          3.5360    1.3080    2.4320 O.2     1  UNL1       -0.3000
      5  C          6.8400    0.2330    1.5460 C.3     1  UNL1        0.0430
      6  C          7.2710   -0.7090    0.4980 C.2     1  UNL1       -0.0440
      7  C          7.1410   -0.4020   -0.8620 C.2     1  UNL1        0.0080
      8  C          7.8170   -1.9220    0.8530 C.2     1  UNL1        0.0540
      9  C          7.5640   -1.3250   -1.8010 C.2     1  UNL1        0.0510
     10  C          8.2420   -2.8510   -0.1010 C.2     1  UNL1        0.1660
     11  C          8.1140   -2.5510   -1.4390 C.2     1  UNL1        0.1650
     12  O          8.8080   -4.1050   -0.0040 O.2     1  UNL1       -0.4540
     13  O          8.6100   -3.6370   -2.1430 O.2     1  UNL1       -0.4540
     14  C          9.1430   -4.6070   -1.2720 C.3     1  UNL1        0.4680
@<TRIPOS>BOND
     1    13    11    1
     2    13    14    1
     3     9    11    2
     4     9     7    1
     5    11    10    1
     6    14    12    1
     7     7     6    2
     8    10    12    1
     9    10     8    2
    10     6     8    1
    11     6     5    1
    12     3     2    1
    13     5     1    1
    14     2     1    1
    15     2     4    2
