@<TRIPOS>MOLECULE
/home/cewinharhar/GITHUB/reincatalyze/data/processed/docking_pred/2023-May-22-2206_sub9_nm5_bs15_s42_ex16_mel10_mts10000_k50_ec02_g099_lra9e-4_lrc1e-3/1444e75be78da7e2931ed2b5f85ad252461f0798_ligand_9.pdbqt
 14 15 0 0 0
SMALL
GASTEIGER

@<TRIPOS>ATOM
      1  C          6.6480    0.6180    1.3130 C.3     1  UNL1        0.0800
      2  C          5.2520    1.1220    1.4460 C.2     1  UNL1        0.1300
      3  C          4.7020    2.1500    0.5230 C.3     1  UNL1        0.0870
      4  O          4.5160    0.7030    2.3240 O.2     1  UNL1       -0.3000
      5  C          7.2030    0.8940   -0.0700 C.3     1  UNL1        0.0430
      6  C          7.6360   -0.3450   -0.7420 C.2     1  UNL1       -0.0440
      7  C          7.8110   -0.4040   -2.1290 C.2     1  UNL1        0.0080
      8  C          7.8810   -1.4750    0.0040 C.2     1  UNL1        0.0540
      9  C          8.2200   -1.5930   -2.7040 C.2     1  UNL1        0.0510
     10  C          8.2950   -2.6750   -0.5820 C.2     1  UNL1        0.1660
     11  C          8.4660   -2.7350   -1.9470 C.2     1  UNL1        0.1650
     12  O          8.5970   -3.9180   -0.0660 O.2     1  UNL1       -0.4540
     13  O          8.8740   -4.0250   -2.2440 O.2     1  UNL1       -0.4540
     14  C          9.0580   -4.7830   -1.0720 C.3     1  UNL1        0.4680
@<TRIPOS>BOND
     1     9     7    1
     2     9    11    2
     3    13    11    1
     4    13    14    1
     5     7     6    2
     6    11    10    1
     7    14    12    1
     8     6     5    1
     9     6     8    1
    10    10    12    1
    11    10     8    2
    12     5     1    1
    13     3     2    1
    14     1     2    1
    15     2     4    2
