MODEL 1
REMARK VINA RESULT:      -7.7      0.000      0.000
REMARK SMILES CC(=O)CCc1ccc2c(c1)OCO2
REMARK SMILES IDX 4 1 2 2 1 3 3 4 5 5 6 6 7 7 11 8 8 9 10 10 9 11 12 12 14 13
REMARK SMILES IDX 13 14
REMARK H PARENT
REMARK Flexibility Score: inf
ROOT
ATOM      1  C   UNL     1       5.503   1.924   1.256  1.00  0.00     0.080 C 
ENDROOT
BRANCH   1   2
ATOM      2  C   UNL     1       5.069   0.707   1.998  1.00  0.00     0.130 C 
ATOM      3  C   UNL     1       5.965  -0.468   2.163  1.00  0.00     0.087 C 
ATOM      4  O   UNL     1       3.956   0.640   2.495  1.00  0.00    -0.300 OA
ENDBRANCH   1   2
BRANCH   1   5
ATOM      5  C   UNL     1       5.382   1.727  -0.242  1.00  0.00     0.043 C 
BRANCH   5   6
ATOM      6  C   UNL     1       6.552   1.024  -0.797  1.00  0.00    -0.044 A 
ATOM      7  C   UNL     1       7.858   1.452  -0.532  1.00  0.00     0.008 A 
ATOM      8  C   UNL     1       6.368  -0.082  -1.595  1.00  0.00     0.054 A 
ATOM      9  C   UNL     1       8.918   0.753  -1.081  1.00  0.00     0.051 A 
ATOM     10  C   UNL     1       7.443  -0.786  -2.147  1.00  0.00     0.166 A 
ATOM     11  C   UNL     1       8.728  -0.365  -1.887  1.00  0.00     0.165 A 
ATOM     12  O   UNL     1       7.520  -1.898  -2.959  1.00  0.00    -0.454 OA
ATOM     13  O   UNL     1       9.577  -1.236  -2.552  1.00  0.00    -0.454 OA
ATOM     14  C   UNL     1       8.856  -2.276  -3.169  1.00  0.00     0.468 C 
ENDBRANCH   5   6
ENDBRANCH   1   5
TORSDOF 3
ENDMDL
MODEL 2
REMARK VINA RESULT:      -7.4      1.943      2.375
REMARK SMILES CC(=O)CCc1ccc2c(c1)OCO2
REMARK SMILES IDX 4 1 2 2 1 3 3 4 5 5 6 6 7 7 11 8 8 9 10 10 9 11 12 12 14 13
REMARK SMILES IDX 13 14
REMARK H PARENT
REMARK Flexibility Score: inf
ROOT
ATOM      1  C   UNL     1       5.746   1.367  -0.207  1.00  0.00     0.080 C 
ENDROOT
BRANCH   1   2
ATOM      2  C   UNL     1       5.093   1.255   1.127  1.00  0.00     0.130 C 
ATOM      3  C   UNL     1       5.401   0.134   2.056  1.00  0.00     0.087 C 
ATOM      4  O   UNL     1       4.279   2.085   1.499  1.00  0.00    -0.300 OA
ENDBRANCH   1   2
BRANCH   1   5
ATOM      5  C   UNL     1       7.235   1.100  -0.115  1.00  0.00     0.043 C 
BRANCH   5   6
ATOM      6  C   UNL     1       7.600  -0.180  -0.748  1.00  0.00    -0.044 A 
ATOM      7  C   UNL     1       7.639  -0.325  -2.139  1.00  0.00     0.008 A 
ATOM      8  C   UNL     1       7.916  -1.264   0.039  1.00  0.00     0.054 A 
ATOM      9  C   UNL     1       7.990  -1.550  -2.677  1.00  0.00     0.051 A 
ATOM     10  C   UNL     1       8.270  -2.501  -0.509  1.00  0.00     0.166 A 
ATOM     11  C   UNL     1       8.307  -2.644  -1.879  1.00  0.00     0.165 A 
ATOM     12  O   UNL     1       8.620  -3.711   0.050  1.00  0.00    -0.454 OA
ATOM     13  O   UNL     1       8.684  -3.954  -2.134  1.00  0.00    -0.454 OA
ATOM     14  C   UNL     1       8.981  -4.639  -0.941  1.00  0.00     0.468 C 
ENDBRANCH   5   6
ENDBRANCH   1   5
TORSDOF 3
ENDMDL
MODEL 3
REMARK VINA RESULT:      -7.2      2.090      2.651
REMARK SMILES CC(=O)CCc1ccc2c(c1)OCO2
REMARK SMILES IDX 4 1 2 2 1 3 3 4 5 5 6 6 7 7 11 8 8 9 10 10 9 11 12 12 14 13
REMARK SMILES IDX 13 14
REMARK H PARENT
REMARK Flexibility Score: inf
ROOT
ATOM      1  C   UNL     1       5.478  -0.051   1.942  1.00  0.00     0.080 C 
ENDROOT
BRANCH   1   2
ATOM      2  C   UNL     1       4.645   1.150   1.652  1.00  0.00     0.130 C 
ATOM      3  C   UNL     1       5.027   2.130   0.600  1.00  0.00     0.087 C 
ATOM      4  O   UNL     1       3.619   1.366   2.276  1.00  0.00    -0.300 OA
ENDBRANCH   1   2
BRANCH   1   5
ATOM      5  C   UNL     1       6.921   0.169   1.534  1.00  0.00     0.043 C 
BRANCH   5   6
ATOM      6  C   UNL     1       7.340  -0.771   0.479  1.00  0.00    -0.044 A 
ATOM      7  C   UNL     1       7.216  -0.453  -0.878  1.00  0.00     0.008 A 
ATOM      8  C   UNL     1       7.871  -1.993   0.826  1.00  0.00     0.054 A 
ATOM      9  C   UNL     1       7.626  -1.375  -1.824  1.00  0.00     0.051 A 
ATOM     10  C   UNL     1       8.285  -2.921  -0.134  1.00  0.00     0.166 A 
ATOM     11  C   UNL     1       8.162  -2.610  -1.470  1.00  0.00     0.165 A 
ATOM     12  O   UNL     1       8.834  -4.183  -0.045  1.00  0.00    -0.454 OA
ATOM     13  O   UNL     1       8.644  -3.698  -2.181  1.00  0.00    -0.454 OA
ATOM     14  C   UNL     1       9.164  -4.680  -1.317  1.00  0.00     0.468 C 
ENDBRANCH   5   6
ENDBRANCH   1   5
TORSDOF 3
ENDMDL
MODEL 4
REMARK VINA RESULT:      -7.1      1.264      1.482
REMARK SMILES CC(=O)CCc1ccc2c(c1)OCO2
REMARK SMILES IDX 4 1 2 2 1 3 3 4 5 5 6 6 7 7 11 8 8 9 10 10 9 11 12 12 14 13
REMARK SMILES IDX 13 14
REMARK H PARENT
REMARK Flexibility Score: inf
ROOT
ATOM      1  C   UNL     1       6.412   1.194   0.938  1.00  0.00     0.080 C 
ENDROOT
BRANCH   1   2
ATOM      2  C   UNL     1       5.678   0.357   1.928  1.00  0.00     0.130 C 
ATOM      3  C   UNL     1       6.272  -0.883   2.495  1.00  0.00     0.087 C 
ATOM      4  O   UNL     1       4.559   0.668   2.304  1.00  0.00    -0.300 OA
ENDBRANCH   1   2
BRANCH   1   5
ATOM      5  C   UNL     1       5.907   0.951  -0.470  1.00  0.00     0.043 C 
BRANCH   5   6
ATOM      6  C   UNL     1       6.837   0.113  -1.247  1.00  0.00    -0.044 A 
ATOM      7  C   UNL     1       7.514   0.612  -2.366  1.00  0.00     0.008 A 
ATOM      8  C   UNL     1       7.055  -1.193  -0.871  1.00  0.00     0.054 A 
ATOM      9  C   UNL     1       8.376  -0.221  -3.056  1.00  0.00     0.051 A 
ATOM     10  C   UNL     1       7.928  -2.031  -1.572  1.00  0.00     0.166 A 
ATOM     11  C   UNL     1       8.593  -1.541  -2.673  1.00  0.00     0.165 A 
ATOM     12  O   UNL     1       8.308  -3.345  -1.402  1.00  0.00    -0.454 OA
ATOM     13  O   UNL     1       9.377  -2.575  -3.161  1.00  0.00    -0.454 OA
ATOM     14  C   UNL     1       9.296  -3.709  -2.331  1.00  0.00     0.468 C 
ENDBRANCH   5   6
ENDBRANCH   1   5
TORSDOF 3
ENDMDL
MODEL 5
REMARK VINA RESULT:      -6.9      1.951      2.577
REMARK SMILES CC(=O)CCc1ccc2c(c1)OCO2
REMARK SMILES IDX 4 1 2 2 1 3 3 4 5 5 6 6 7 7 11 8 8 9 10 10 9 11 12 12 14 13
REMARK SMILES IDX 13 14
REMARK H PARENT
REMARK Flexibility Score: inf
ROOT
ATOM      1  C   UNL     1       7.082   0.895   0.989  1.00  0.00     0.080 C 
ENDROOT
BRANCH   1   2
ATOM      2  C   UNL     1       5.647   1.168   1.278  1.00  0.00     0.130 C 
ATOM      3  C   UNL     1       4.863   2.150   0.482  1.00  0.00     0.087 C 
ATOM      4  O   UNL     1       5.069   0.589   2.183  1.00  0.00    -0.300 OA
ENDBRANCH   1   2
BRANCH   1   5
ATOM      5  C   UNL     1       7.373   0.991  -0.495  1.00  0.00     0.043 C 
BRANCH   5   6
ATOM      6  C   UNL     1       7.796  -0.305  -1.055  1.00  0.00    -0.044 A 
ATOM      7  C   UNL     1       8.074  -0.459  -2.418  1.00  0.00     0.008 A 
ATOM      8  C   UNL     1       7.926  -1.396  -0.226  1.00  0.00     0.054 A 
ATOM      9  C   UNL     1       8.468  -1.699  -2.886  1.00  0.00     0.051 A 
ATOM     10  C   UNL     1       8.325  -2.648  -0.704  1.00  0.00     0.166 A 
ATOM     11  C   UNL     1       8.598  -2.801  -2.046  1.00  0.00     0.165 A 
ATOM     12  O   UNL     1       8.525  -3.867  -0.093  1.00  0.00    -0.454 OA
ATOM     13  O   UNL     1       8.964  -4.124  -2.232  1.00  0.00    -0.454 OA
ATOM     14  C   UNL     1       9.019  -4.814  -1.006  1.00  0.00     0.468 C 
ENDBRANCH   5   6
ENDBRANCH   1   5
TORSDOF 3
ENDMDL
