@<TRIPOS>MOLECULE
/home/cewinharhar/GITHUB/reincatalyze/data/processed/docking_pred/2023-May-22-2206_sub9_nm5_bs15_s42_ex16_mel10_mts10000_k50_ec02_g099_lra9e-4_lrc1e-3/1e16add1d5649bf0b13dd0d86c7d3fc630d89625_ligand_9.pdbqt
 14 15 0 0 0
SMALL
GASTEIGER

@<TRIPOS>ATOM
      1  C          9.6150    1.2020    2.3090 C.3     1  UNL1        0.0800
      2  C         11.0370    0.7600    2.3680 C.2     1  UNL1        0.1300
      3  C         12.0440    1.4760    3.1960 C.3     1  UNL1        0.0870
      4  O         11.4180   -0.2100    1.7330 O.2     1  UNL1       -0.3000
      5  C          9.3100    1.8990    0.9980 C.3     1  UNL1        0.0430
      6  C          8.5680    1.0230    0.0730 C.2     1  UNL1       -0.0440
      7  C          7.1690    0.9700    0.0770 C.2     1  UNL1        0.0080
      8  C          9.2570    0.2360   -0.8210 C.2     1  UNL1        0.0540
      9  C          6.5270    0.1300   -0.8140 C.2     1  UNL1        0.0510
     10  C          8.6030   -0.6110   -1.7200 C.2     1  UNL1        0.1660
     11  C          7.2270   -0.6650   -1.7170 C.2     1  UNL1        0.1650
     12  O          9.0550   -1.4800   -2.6920 O.2     1  UNL1       -0.4540
     13  O          6.8580   -1.5730   -2.6960 O.2     1  UNL1       -0.4540
     14  C          7.9820   -2.0460   -3.4000 C.3     1  UNL1        0.4680
@<TRIPOS>BOND
     1    14    13    1
     2    14    12    1
     3    13    11    1
     4    12    10    1
     5    10    11    2
     6    10     8    1
     7    11     9    1
     8     8     6    2
     9     9     7    2
    10     6     7    1
    11     6     5    1
    12     5     1    1
    13     4     2    2
    14     1     2    1
    15     2     3    1
