@<TRIPOS>MOLECULE
/home/cewinharhar/GITHUB/reincatalyze/data/processed/docking_pred/2023-May-22-2206_sub9_nm5_bs15_s42_ex16_mel10_mts10000_k50_ec02_g099_lra9e-4_lrc1e-3/1e16add1d5649bf0b13dd0d86c7d3fc630d89625_ligand_9.pdbqt
 14 15 0 0 0
SMALL
GASTEIGER

@<TRIPOS>ATOM
      1  C          8.1050   -2.5120   -3.6100 C.3     1  UNL1        0.0800
      2  C          9.2230   -3.4760   -3.4100 C.2     1  UNL1        0.1300
      3  C          8.9840   -4.9410   -3.3210 C.3     1  UNL1        0.0870
      4  O         10.3760   -3.0870   -3.3110 O.2     1  UNL1       -0.3000
      5  C          8.4870   -1.1210   -3.1440 C.3     1  UNL1        0.0430
      6  C          7.7220   -0.7150   -1.9520 C.2     1  UNL1       -0.0440
      7  C          6.8600    0.3880   -1.9760 C.2     1  UNL1        0.0080
      8  C          7.8470   -1.4310   -0.7840 C.2     1  UNL1        0.0540
      9  C          6.1660    0.7220   -0.8270 C.2     1  UNL1        0.0510
     10  C          7.1430   -1.0900    0.3750 C.2     1  UNL1        0.1660
     11  C          6.2960   -0.0040    0.3530 C.2     1  UNL1        0.1650
     12  O          7.0970   -1.6330    1.6410 O.2     1  UNL1       -0.4540
     13  O          5.7410    0.0970    1.6190 O.2     1  UNL1       -0.4540
     14  C          6.1510   -0.9700    2.4400 C.3     1  UNL1        0.4680
@<TRIPOS>BOND
     1     1     2    1
     2     1     5    1
     3     2     3    1
     4     2     4    2
     5     5     6    1
     6     7     6    2
     7     7     9    1
     8     6     8    1
     9     9    11    2
    10     8    10    2
    11    11    10    1
    12    11    13    1
    13    10    12    1
    14    13    14    1
    15    12    14    1
