@<TRIPOS>MOLECULE
/home/cewinharhar/GITHUB/reincatalyze/data/processed/docking_pred/2023-May-22-2206_sub9_nm5_bs15_s42_ex16_mel10_mts10000_k50_ec02_g099_lra9e-4_lrc1e-3/1e8ffecbec14ce573bf52adb8829230239be76a8_ligand_9.pdbqt
 14 15 0 0 0
SMALL
GASTEIGER

@<TRIPOS>ATOM
      1  C          6.8610    0.8420    1.3740 C.3     1  UNL1        0.0800
      2  C          5.4070    1.1490    1.4790 C.2     1  UNL1        0.1300
      3  C          4.7520    2.1390    0.5840 C.3     1  UNL1        0.0870
      4  O          4.7080    0.5930    2.3100 O.2     1  UNL1       -0.3000
      5  C          7.3660    1.0480   -0.0400 C.3     1  UNL1        0.0430
      6  C          7.6950   -0.2300   -0.6950 C.2     1  UNL1       -0.0440
      7  C          7.7100   -0.3570   -2.0890 C.2     1  UNL1        0.0080
      8  C          8.0000   -1.3310    0.0720 C.2     1  UNL1        0.0540
      9  C          8.0270   -1.5820   -2.6470 C.2     1  UNL1        0.0510
     10  C          8.3200   -2.5670   -0.4970 C.2     1  UNL1        0.1660
     11  C          8.3340   -2.6940   -1.8680 C.2     1  UNL1        0.1650
     12  O          8.6530   -3.7920    0.0410 O.2     1  UNL1       -0.4540
     13  O          8.6800   -4.0070   -2.1460 O.2     1  UNL1       -0.4540
     14  C          8.9790   -4.7140   -0.9670 C.3     1  UNL1        0.4680
@<TRIPOS>BOND
     1     9     7    1
     2     9    11    2
     3    13    11    1
     4    13    14    1
     5     7     6    2
     6    11    10    1
     7    14    12    1
     8     6     5    1
     9     6     8    1
    10    10    12    1
    11    10     8    2
    12     5     1    1
    13     3     2    1
    14     1     2    1
    15     2     4    2
