@<TRIPOS>MOLECULE
/home/cewinharhar/GITHUB/reincatalyze/data/processed/docking_pred/2023-May-22-2206_sub9_nm5_bs15_s42_ex16_mel10_mts10000_k50_ec02_g099_lra9e-4_lrc1e-3/1ec3d4ded79b7f38a98788c4b0a5da992fc20b58_ligand_9.pdbqt
 14 15 0 0 0
SMALL
GASTEIGER

@<TRIPOS>ATOM
      1  C          7.0380    1.0340    1.2370 C.3     1  UNL1        0.0800
      2  C          5.5760    1.1600    1.4950 C.2     1  UNL1        0.1300
      3  C          4.7370    2.1480    0.7670 C.3     1  UNL1        0.0870
      4  O          5.0220    0.4510    2.3200 O.2     1  UNL1       -0.3000
      5  C          7.3440    1.1220   -0.2450 C.3     1  UNL1        0.0430
      6  C          7.6400   -0.2020   -0.8220 C.2     1  UNL1       -0.0440
      7  C          7.5540   -0.4370   -2.1990 C.2     1  UNL1        0.0080
      8  C          8.0120   -1.2380    0.0040 C.2     1  UNL1        0.0540
      9  C          7.8440   -1.6990   -2.6830 C.2     1  UNL1        0.0510
     10  C          8.3050   -2.5120   -0.4910 C.2     1  UNL1        0.1660
     11  C          8.2200   -2.7450   -1.8460 C.2     1  UNL1        0.1650
     12  O          8.6910   -3.6890    0.1140 O.2     1  UNL1       -0.4540
     13  O          8.5600   -4.0740   -2.0460 O.2     1  UNL1       -0.4540
     14  C          8.9530   -4.6850   -0.8410 C.3     1  UNL1        0.4680
@<TRIPOS>BOND
     1     9     7    1
     2     9    11    2
     3     7     6    2
     4    13    11    1
     5    13    14    1
     6    11    10    1
     7    14    12    1
     8     6     5    1
     9     6     8    1
    10    10     8    2
    11    10    12    1
    12     5     1    1
    13     3     2    1
    14     1     2    1
    15     2     4    2
