@<TRIPOS>MOLECULE
/home/cewinharhar/GITHUB/reincatalyze/data/processed/docking_pred/2023-May-22-2206_sub9_nm5_bs15_s42_ex16_mel10_mts10000_k50_ec02_g099_lra9e-4_lrc1e-3/1f3204452a604bf2b5a1468570937d609aafa137_ligand_9.pdbqt
 14 15 0 0 0
SMALL
GASTEIGER

@<TRIPOS>ATOM
      1  C          5.7560    1.1800   -0.3070 C.3     1  UNL1        0.0800
      2  C          5.2440    1.1740    1.0920 C.2     1  UNL1        0.1300
      3  C          5.4020   -0.0110    1.9760 C.3     1  UNL1        0.0870
      4  O          4.6760    2.1500    1.5560 O.2     1  UNL1       -0.3000
      5  C          7.2630    1.0170   -0.3430 C.3     1  UNL1        0.0430
      6  C          7.6590   -0.2740   -0.9310 C.2     1  UNL1       -0.0440
      7  C          7.7620   -0.4480   -2.3160 C.2     1  UNL1        0.0080
      8  C          7.9380   -1.3420   -0.1080 C.2     1  UNL1        0.0540
      9  C          8.1390   -1.6830   -2.8110 C.2     1  UNL1        0.0510
     10  C          8.3200   -2.5880   -0.6140 C.2     1  UNL1        0.1660
     11  C          8.4200   -2.7600   -1.9770 C.2     1  UNL1        0.1650
     12  O          8.6450   -3.7860   -0.0140 O.2     1  UNL1       -0.4540
     13  O          8.8110   -4.0740   -2.1870 O.2     1  UNL1       -0.4540
     14  C          9.0520   -4.7340   -0.9670 C.3     1  UNL1        0.4680
@<TRIPOS>BOND
     1     9     7    1
     2     9    11    2
     3     7     6    2
     4    13    11    1
     5    13    14    1
     6    11    10    1
     7    14    12    1
     8     6     5    1
     9     6     8    1
    10    10     8    2
    11    10    12    1
    12     5     1    1
    13     1     2    1
    14     2     4    2
    15     2     3    1
