@<TRIPOS>MOLECULE
/home/cewinharhar/GITHUB/reincatalyze/data/processed/docking_pred/2023-May-22-2206_sub9_nm5_bs15_s42_ex16_mel10_mts10000_k50_ec02_g099_lra9e-4_lrc1e-3/1f3204452a604bf2b5a1468570937d609aafa137_ligand_9.pdbqt
 14 15 0 0 0
SMALL
GASTEIGER

@<TRIPOS>ATOM
      1  C          5.4840   -0.0290    1.9710 C.3     1  UNL1        0.0800
      2  C          4.6180    1.1520    1.7010 C.2     1  UNL1        0.1300
      3  C          4.9160    2.1040    0.5980 C.3     1  UNL1        0.0870
      4  O          3.6300    1.3730    2.3830 O.2     1  UNL1       -0.3000
      5  C          6.9100    0.2200    1.5190 C.3     1  UNL1        0.0430
      6  C          7.3240   -0.7300    0.4710 C.2     1  UNL1       -0.0440
      7  C          7.2000   -0.4220   -0.8890 C.2     1  UNL1        0.0080
      8  C          7.8500   -1.9510    0.8270 C.2     1  UNL1        0.0540
      9  C          7.6060   -1.3530   -1.8280 C.2     1  UNL1        0.0510
     10  C          8.2610   -2.8890   -0.1260 C.2     1  UNL1        0.1660
     11  C          8.1370   -2.5870   -1.4640 C.2     1  UNL1        0.1650
     12  O          8.8050   -4.1510   -0.0290 O.2     1  UNL1       -0.4540
     13  O          8.6150   -3.6820   -2.1680 O.2     1  UNL1       -0.4540
     14  C          9.1320   -4.6590   -1.2970 C.3     1  UNL1        0.4680
@<TRIPOS>BOND
     1    13    11    1
     2    13    14    1
     3     9    11    2
     4     9     7    1
     5    11    10    1
     6    14    12    1
     7     7     6    2
     8    10    12    1
     9    10     8    2
    10     6     8    1
    11     6     5    1
    12     3     2    1
    13     5     1    1
    14     2     1    1
    15     2     4    2
