MODEL 1
REMARK VINA RESULT:      -7.6      0.000      0.000
REMARK SMILES CC(=O)CCc1ccc2c(c1)OCO2
REMARK SMILES IDX 4 1 2 2 1 3 3 4 5 5 6 6 7 7 11 8 8 9 10 10 9 11 12 12 14 13
REMARK SMILES IDX 13 14
REMARK H PARENT
REMARK Flexibility Score: inf
ROOT
ATOM      1  C   UNL     1       5.540   1.914   1.264  1.00  0.00     0.080 C 
ENDROOT
BRANCH   1   2
ATOM      2  C   UNL     1       5.101   0.697   2.002  1.00  0.00     0.130 C 
ATOM      3  C   UNL     1       6.001  -0.474   2.180  1.00  0.00     0.087 C 
ATOM      4  O   UNL     1       3.983   0.626   2.485  1.00  0.00    -0.300 OA
ENDBRANCH   1   2
BRANCH   1   5
ATOM      5  C   UNL     1       5.412   1.726  -0.234  1.00  0.00     0.043 C 
BRANCH   5   6
ATOM      6  C   UNL     1       6.578   1.021  -0.797  1.00  0.00    -0.044 A 
ATOM      7  C   UNL     1       7.886   1.451  -0.545  1.00  0.00     0.008 A 
ATOM      8  C   UNL     1       6.388  -0.088  -1.589  1.00  0.00     0.054 A 
ATOM      9  C   UNL     1       8.941   0.750  -1.100  1.00  0.00     0.051 A 
ATOM     10  C   UNL     1       7.458  -0.794  -2.147  1.00  0.00     0.166 A 
ATOM     11  C   UNL     1       8.745  -0.371  -1.901  1.00  0.00     0.165 A 
ATOM     12  O   UNL     1       7.529  -1.908  -2.956  1.00  0.00    -0.454 OA
ATOM     13  O   UNL     1       9.589  -1.245  -2.569  1.00  0.00    -0.454 OA
ATOM     14  C   UNL     1       8.863  -2.287  -3.176  1.00  0.00     0.468 C 
ENDBRANCH   5   6
ENDBRANCH   1   5
TORSDOF 3
ENDMDL
MODEL 2
REMARK VINA RESULT:      -7.5      1.934      2.389
REMARK SMILES CC(=O)CCc1ccc2c(c1)OCO2
REMARK SMILES IDX 4 1 2 2 1 3 3 4 5 5 6 6 7 7 11 8 8 9 10 10 9 11 12 12 14 13
REMARK SMILES IDX 13 14
REMARK H PARENT
REMARK Flexibility Score: inf
ROOT
ATOM      1  C   UNL     1       5.718   1.246  -0.311  1.00  0.00     0.080 C 
ENDROOT
BRANCH   1   2
ATOM      2  C   UNL     1       5.144   1.235   1.063  1.00  0.00     0.130 C 
ATOM      3  C   UNL     1       5.404   0.117   2.009  1.00  0.00     0.087 C 
ATOM      4  O   UNL     1       4.438   2.150   1.455  1.00  0.00    -0.300 OA
ENDBRANCH   1   2
BRANCH   1   5
ATOM      5  C   UNL     1       7.223   1.066  -0.281  1.00  0.00     0.043 C 
BRANCH   5   6
ATOM      6  C   UNL     1       7.632  -0.216  -0.881  1.00  0.00    -0.044 A 
ATOM      7  C   UNL     1       7.774  -0.366  -2.265  1.00  0.00     0.008 A 
ATOM      8  C   UNL     1       7.886  -1.299  -0.069  1.00  0.00     0.054 A 
ATOM      9  C   UNL     1       8.162  -1.593  -2.771  1.00  0.00     0.051 A 
ATOM     10  C   UNL     1       8.278  -2.537  -0.585  1.00  0.00     0.166 A 
ATOM     11  C   UNL     1       8.417  -2.686  -1.947  1.00  0.00     0.165 A 
ATOM     12  O   UNL     1       8.583  -3.746   0.003  1.00  0.00    -0.454 OA
ATOM     13  O   UNL     1       8.810  -3.996  -2.170  1.00  0.00    -0.454 OA
ATOM     14  C   UNL     1       9.015  -4.678  -0.955  1.00  0.00     0.468 C 
ENDBRANCH   5   6
ENDBRANCH   1   5
TORSDOF 3
ENDMDL
MODEL 3
REMARK VINA RESULT:      -7.2      2.088      2.617
REMARK SMILES CC(=O)CCc1ccc2c(c1)OCO2
REMARK SMILES IDX 4 1 2 2 1 3 3 4 5 5 6 6 7 7 11 8 8 9 10 10 9 11 12 12 14 13
REMARK SMILES IDX 13 14
REMARK H PARENT
REMARK Flexibility Score: inf
ROOT
ATOM      1  C   UNL     1       5.590   0.041   1.962  1.00  0.00     0.080 C 
ENDROOT
BRANCH   1   2
ATOM      2  C   UNL     1       4.683   1.175   1.630  1.00  0.00     0.130 C 
ATOM      3  C   UNL     1       4.971   2.101   0.502  1.00  0.00     0.087 C 
ATOM      4  O   UNL     1       3.671   1.379   2.280  1.00  0.00    -0.300 OA
ENDBRANCH   1   2
BRANCH   1   5
ATOM      5  C   UNL     1       6.997   0.297   1.461  1.00  0.00     0.043 C 
BRANCH   5   6
ATOM      6  C   UNL     1       7.395  -0.676   0.428  1.00  0.00    -0.044 A 
ATOM      7  C   UNL     1       7.289  -0.382  -0.937  1.00  0.00     0.008 A 
ATOM      8  C   UNL     1       7.886  -1.907   0.802  1.00  0.00     0.054 A 
ATOM      9  C   UNL     1       7.679  -1.334  -1.861  1.00  0.00     0.051 A 
ATOM     10  C   UNL     1       8.279  -2.866  -0.136  1.00  0.00     0.166 A 
ATOM     11  C   UNL     1       8.174  -2.577  -1.479  1.00  0.00     0.165 A 
ATOM     12  O   UNL     1       8.789  -4.141  -0.019  1.00  0.00    -0.454 OA
ATOM     13  O   UNL     1       8.628  -3.693  -2.165  1.00  0.00    -0.454 OA
ATOM     14  C   UNL     1       9.112  -4.673  -1.278  1.00  0.00     0.468 C 
ENDBRANCH   5   6
ENDBRANCH   1   5
TORSDOF 3
ENDMDL
MODEL 4
REMARK VINA RESULT:      -7.1      1.249      1.457
REMARK SMILES CC(=O)CCc1ccc2c(c1)OCO2
REMARK SMILES IDX 4 1 2 2 1 3 3 4 5 5 6 6 7 7 11 8 8 9 10 10 9 11 12 12 14 13
REMARK SMILES IDX 13 14
REMARK H PARENT
REMARK Flexibility Score: inf
ROOT
ATOM      1  C   UNL     1       6.377   1.191   0.932  1.00  0.00     0.080 C 
ENDROOT
BRANCH   1   2
ATOM      2  C   UNL     1       5.658   0.370   1.946  1.00  0.00     0.130 C 
ATOM      3  C   UNL     1       6.262  -0.858   2.527  1.00  0.00     0.087 C 
ATOM      4  O   UNL     1       4.543   0.685   2.330  1.00  0.00    -0.300 OA
ENDBRANCH   1   2
BRANCH   1   5
ATOM      5  C   UNL     1       5.864   0.913  -0.467  1.00  0.00     0.043 C 
BRANCH   5   6
ATOM      6  C   UNL     1       6.812   0.096  -1.244  1.00  0.00    -0.044 A 
ATOM      7  C   UNL     1       7.491   0.616  -2.352  1.00  0.00     0.008 A 
ATOM      8  C   UNL     1       7.046  -1.211  -0.880  1.00  0.00     0.054 A 
ATOM      9  C   UNL     1       8.370  -0.198  -3.043  1.00  0.00     0.051 A 
ATOM     10  C   UNL     1       7.936  -2.029  -1.582  1.00  0.00     0.166 A 
ATOM     11  C   UNL     1       8.603  -1.518  -2.673  1.00  0.00     0.165 A 
ATOM     12  O   UNL     1       8.333  -3.340  -1.421  1.00  0.00    -0.454 OA
ATOM     13  O   UNL     1       9.406  -2.536  -3.164  1.00  0.00    -0.454 OA
ATOM     14  C   UNL     1       9.334  -3.680  -2.347  1.00  0.00     0.468 C 
ENDBRANCH   5   6
ENDBRANCH   1   5
TORSDOF 3
ENDMDL
MODEL 5
REMARK VINA RESULT:      -7.0      1.945      2.498
REMARK SMILES CC(=O)CCc1ccc2c(c1)OCO2
REMARK SMILES IDX 4 1 2 2 1 3 3 4 5 5 6 6 7 7 11 8 8 9 10 10 9 11 12 12 14 13
REMARK SMILES IDX 13 14
REMARK H PARENT
REMARK Flexibility Score: inf
ROOT
ATOM      1  C   UNL     1       6.909   0.950   1.182  1.00  0.00     0.080 C 
ENDROOT
BRANCH   1   2
ATOM      2  C   UNL     1       5.449   1.131   1.420  1.00  0.00     0.130 C 
ATOM      3  C   UNL     1       4.658   2.150   0.681  1.00  0.00     0.087 C 
ATOM      4  O   UNL     1       4.858   0.442   2.236  1.00  0.00    -0.300 OA
ENDBRANCH   1   2
BRANCH   1   5
ATOM      5  C   UNL     1       7.247   1.086  -0.289  1.00  0.00     0.043 C 
BRANCH   5   6
ATOM      6  C   UNL     1       7.628  -0.208  -0.883  1.00  0.00    -0.044 A 
ATOM      7  C   UNL     1       7.733  -0.376  -2.269  1.00  0.00     0.008 A 
ATOM      8  C   UNL     1       7.892  -1.283  -0.065  1.00  0.00     0.054 A 
ATOM      9  C   UNL     1       8.096  -1.613  -2.769  1.00  0.00     0.051 A 
ATOM     10  C   UNL     1       8.258  -2.532  -0.576  1.00  0.00     0.166 A 
ATOM     11  C   UNL     1       8.361  -2.698  -1.939  1.00  0.00     0.165 A 
ATOM     12  O   UNL     1       8.566  -3.737   0.019  1.00  0.00    -0.454 OA
ATOM     13  O   UNL     1       8.735  -4.015  -2.155  1.00  0.00    -0.454 OA
ATOM     14  C   UNL     1       8.964  -4.685  -0.939  1.00  0.00     0.468 C 
ENDBRANCH   5   6
ENDBRANCH   1   5
TORSDOF 3
ENDMDL
