MODEL 1
REMARK VINA RESULT:      -7.7      0.000      0.000
REMARK SMILES CC(=O)CCc1ccc2c(c1)OCO2
REMARK SMILES IDX 4 1 2 2 1 3 3 4 5 5 6 6 7 7 11 8 8 9 10 10 9 11 12 12 14 13
REMARK SMILES IDX 13 14
REMARK H PARENT
REMARK Flexibility Score: inf
ROOT
ATOM      1  C   UNL     1       5.496   1.934   1.243  1.00  0.00     0.080 C 
ENDROOT
BRANCH   1   2
ATOM      2  C   UNL     1       5.063   0.722   1.993  1.00  0.00     0.130 C 
ATOM      3  C   UNL     1       5.955  -0.458   2.153  1.00  0.00     0.087 C 
ATOM      4  O   UNL     1       3.955   0.662   2.502  1.00  0.00    -0.300 OA
ENDBRANCH   1   2
BRANCH   1   5
ATOM      5  C   UNL     1       5.376   1.727  -0.254  1.00  0.00     0.043 C 
BRANCH   5   6
ATOM      6  C   UNL     1       6.550   1.027  -0.805  1.00  0.00    -0.044 A 
ATOM      7  C   UNL     1       7.854   1.460  -0.537  1.00  0.00     0.008 A 
ATOM      8  C   UNL     1       6.372  -0.081  -1.602  1.00  0.00     0.054 A 
ATOM      9  C   UNL     1       8.917   0.763  -1.081  1.00  0.00     0.051 A 
ATOM     10  C   UNL     1       7.450  -0.783  -2.149  1.00  0.00     0.166 A 
ATOM     11  C   UNL     1       8.734  -0.357  -1.887  1.00  0.00     0.165 A 
ATOM     12  O   UNL     1       7.534  -1.895  -2.959  1.00  0.00    -0.454 OA
ATOM     13  O   UNL     1       9.587  -1.226  -2.547  1.00  0.00    -0.454 OA
ATOM     14  C   UNL     1       8.872  -2.269  -3.165  1.00  0.00     0.468 C 
ENDBRANCH   5   6
ENDBRANCH   1   5
TORSDOF 3
ENDMDL
MODEL 2
REMARK VINA RESULT:      -7.5      1.924      2.365
REMARK SMILES CC(=O)CCc1ccc2c(c1)OCO2
REMARK SMILES IDX 4 1 2 2 1 3 3 4 5 5 6 6 7 7 11 8 8 9 10 10 9 11 12 12 14 13
REMARK SMILES IDX 13 14
REMARK H PARENT
REMARK Flexibility Score: inf
ROOT
ATOM      1  C   UNL     1       5.727   1.367  -0.257  1.00  0.00     0.080 C 
ENDROOT
BRANCH   1   2
ATOM      2  C   UNL     1       5.078   1.259   1.079  1.00  0.00     0.130 C 
ATOM      3  C   UNL     1       5.348   0.113   1.988  1.00  0.00     0.087 C 
ATOM      4  O   UNL     1       4.300   2.115   1.469  1.00  0.00    -0.300 OA
ENDBRANCH   1   2
BRANCH   1   5
ATOM      5  C   UNL     1       7.218   1.111  -0.167  1.00  0.00     0.043 C 
BRANCH   5   6
ATOM      6  C   UNL     1       7.592  -0.168  -0.796  1.00  0.00    -0.044 A 
ATOM      7  C   UNL     1       7.661  -0.309  -2.187  1.00  0.00     0.008 A 
ATOM      8  C   UNL     1       7.886  -1.256  -0.006  1.00  0.00     0.054 A 
ATOM      9  C   UNL     1       8.018  -1.534  -2.721  1.00  0.00     0.051 A 
ATOM     10  C   UNL     1       8.248  -2.492  -0.551  1.00  0.00     0.166 A 
ATOM     11  C   UNL     1       8.314  -2.632  -1.919  1.00  0.00     0.165 A 
ATOM     12  O   UNL     1       8.580  -3.706   0.012  1.00  0.00    -0.454 OA
ATOM     13  O   UNL     1       8.691  -3.942  -2.171  1.00  0.00    -0.454 OA
ATOM     14  C   UNL     1       8.958  -4.632  -0.974  1.00  0.00     0.468 C 
ENDBRANCH   5   6
ENDBRANCH   1   5
TORSDOF 3
ENDMDL
MODEL 3
REMARK VINA RESULT:      -7.2      2.063      2.622
REMARK SMILES CC(=O)CCc1ccc2c(c1)OCO2
REMARK SMILES IDX 4 1 2 2 1 3 3 4 5 5 6 6 7 7 11 8 8 9 10 10 9 11 12 12 14 13
REMARK SMILES IDX 13 14
REMARK H PARENT
REMARK Flexibility Score: inf
ROOT
ATOM      1  C   UNL     1       5.459  -0.027   1.977  1.00  0.00     0.080 C 
ENDROOT
BRANCH   1   2
ATOM      2  C   UNL     1       4.588   1.154   1.720  1.00  0.00     0.130 C 
ATOM      3  C   UNL     1       4.881   2.116   0.624  1.00  0.00     0.087 C 
ATOM      4  O   UNL     1       3.602   1.367   2.406  1.00  0.00    -0.300 OA
ENDBRANCH   1   2
BRANCH   1   5
ATOM      5  C   UNL     1       6.883   0.232   1.528  1.00  0.00     0.043 C 
BRANCH   5   6
ATOM      6  C   UNL     1       7.305  -0.711   0.477  1.00  0.00    -0.044 A 
ATOM      7  C   UNL     1       7.185  -0.396  -0.881  1.00  0.00     0.008 A 
ATOM      8  C   UNL     1       7.832  -1.933   0.828  1.00  0.00     0.054 A 
ATOM      9  C   UNL     1       7.598  -1.321  -1.824  1.00  0.00     0.051 A 
ATOM     10  C   UNL     1       8.249  -2.864  -0.128  1.00  0.00     0.166 A 
ATOM     11  C   UNL     1       8.130  -2.555  -1.465  1.00  0.00     0.165 A 
ATOM     12  O   UNL     1       8.796  -4.126  -0.035  1.00  0.00    -0.454 OA
ATOM     13  O   UNL     1       8.613  -3.645  -2.173  1.00  0.00    -0.454 OA
ATOM     14  C   UNL     1       9.129  -4.626  -1.305  1.00  0.00     0.468 C 
ENDBRANCH   5   6
ENDBRANCH   1   5
TORSDOF 3
ENDMDL
MODEL 4
REMARK VINA RESULT:      -7.1      1.257      1.461
REMARK SMILES CC(=O)CCc1ccc2c(c1)OCO2
REMARK SMILES IDX 4 1 2 2 1 3 3 4 5 5 6 6 7 7 11 8 8 9 10 10 9 11 12 12 14 13
REMARK SMILES IDX 13 14
REMARK H PARENT
REMARK Flexibility Score: inf
ROOT
ATOM      1  C   UNL     1       6.366   1.222   0.942  1.00  0.00     0.080 C 
ENDROOT
BRANCH   1   2
ATOM      2  C   UNL     1       5.639   0.385   1.938  1.00  0.00     0.130 C 
ATOM      3  C   UNL     1       6.249  -0.838   2.523  1.00  0.00     0.087 C 
ATOM      4  O   UNL     1       4.514   0.683   2.304  1.00  0.00    -0.300 OA
ENDBRANCH   1   2
BRANCH   1   5
ATOM      5  C   UNL     1       5.866   0.961  -0.465  1.00  0.00     0.043 C 
BRANCH   5   6
ATOM      6  C   UNL     1       6.809   0.129  -1.234  1.00  0.00    -0.044 A 
ATOM      7  C   UNL     1       7.493   0.634  -2.346  1.00  0.00     0.008 A 
ATOM      8  C   UNL     1       7.033  -1.175  -0.857  1.00  0.00     0.054 A 
ATOM      9  C   UNL     1       8.367  -0.192  -3.029  1.00  0.00     0.051 A 
ATOM     10  C   UNL     1       7.918  -2.007  -1.550  1.00  0.00     0.166 A 
ATOM     11  C   UNL     1       8.590  -1.511  -2.645  1.00  0.00     0.165 A 
ATOM     12  O   UNL     1       8.305  -3.319  -1.378  1.00  0.00    -0.454 OA
ATOM     13  O   UNL     1       9.385  -2.539  -3.127  1.00  0.00    -0.454 OA
ATOM     14  C   UNL     1       9.304  -3.675  -2.299  1.00  0.00     0.468 C 
ENDBRANCH   5   6
ENDBRANCH   1   5
TORSDOF 3
ENDMDL
MODEL 5
REMARK VINA RESULT:      -6.8      1.194      5.169
REMARK SMILES CC(=O)CCc1ccc2c(c1)OCO2
REMARK SMILES IDX 4 1 2 2 1 3 3 4 5 5 6 6 7 7 11 8 8 9 10 10 9 11 12 12 14 13
REMARK SMILES IDX 13 14
REMARK H PARENT
REMARK Flexibility Score: inf
ROOT
ATOM      1  C   UNL     1       8.332   0.189  -2.671  1.00  0.00     0.080 C 
ENDROOT
BRANCH   1   2
ATOM      2  C   UNL     1       8.046  -1.270  -2.759  1.00  0.00     0.130 C 
ATOM      3  C   UNL     1       9.125  -2.263  -3.012  1.00  0.00     0.087 C 
ATOM      4  O   UNL     1       6.910  -1.696  -2.625  1.00  0.00    -0.300 OA
ENDBRANCH   1   2
BRANCH   1   5
ATOM      5  C   UNL     1       8.859   0.565  -1.300  1.00  0.00     0.043 C 
BRANCH   5   6
ATOM      6  C   UNL     1       7.827   0.416  -0.258  1.00  0.00    -0.044 A 
ATOM      7  C   UNL     1       7.935  -0.551   0.748  1.00  0.00     0.008 A 
ATOM      8  C   UNL     1       6.729   1.245  -0.263  1.00  0.00     0.054 A 
ATOM      9  C   UNL     1       6.936  -0.643   1.700  1.00  0.00     0.051 A 
ATOM     10  C   UNL     1       5.722   1.149   0.702  1.00  0.00     0.166 A 
ATOM     11  C   UNL     1       5.826   0.196   1.691  1.00  0.00     0.165 A 
ATOM     12  O   UNL     1       4.549   1.844   0.910  1.00  0.00    -0.454 OA
ATOM     13  O   UNL     1       4.704   0.328   2.495  1.00  0.00    -0.454 OA
ATOM     14  C   UNL     1       3.914   1.420   2.089  1.00  0.00     0.468 C 
ENDBRANCH   5   6
ENDBRANCH   1   5
TORSDOF 3
ENDMDL
