@<TRIPOS>MOLECULE
/home/cewinharhar/GITHUB/reincatalyze/data/processed/docking_pred/2023-May-22-2206_sub9_nm5_bs15_s42_ex16_mel10_mts10000_k50_ec02_g099_lra9e-4_lrc1e-3/1fd5ec6d4a6889d2560636754963a08404c0587d_ligand_9.pdbqt
 14 15 0 0 0
SMALL
GASTEIGER

@<TRIPOS>ATOM
      1  C          5.4590   -0.0270    1.9770 C.3     1  UNL1        0.0800
      2  C          4.5880    1.1540    1.7200 C.2     1  UNL1        0.1300
      3  C          4.8810    2.1160    0.6240 C.3     1  UNL1        0.0870
      4  O          3.6020    1.3670    2.4060 O.2     1  UNL1       -0.3000
      5  C          6.8830    0.2320    1.5280 C.3     1  UNL1        0.0430
      6  C          7.3050   -0.7110    0.4770 C.2     1  UNL1       -0.0440
      7  C          7.1850   -0.3960   -0.8810 C.2     1  UNL1        0.0080
      8  C          7.8320   -1.9330    0.8280 C.2     1  UNL1        0.0540
      9  C          7.5980   -1.3210   -1.8240 C.2     1  UNL1        0.0510
     10  C          8.2490   -2.8640   -0.1280 C.2     1  UNL1        0.1660
     11  C          8.1300   -2.5550   -1.4650 C.2     1  UNL1        0.1650
     12  O          8.7960   -4.1260   -0.0350 O.2     1  UNL1       -0.4540
     13  O          8.6130   -3.6450   -2.1730 O.2     1  UNL1       -0.4540
     14  C          9.1290   -4.6260   -1.3050 C.3     1  UNL1        0.4680
@<TRIPOS>BOND
     1    13    11    1
     2    13    14    1
     3     9    11    2
     4     9     7    1
     5    11    10    1
     6    14    12    1
     7     7     6    2
     8    10    12    1
     9    10     8    2
    10     6     8    1
    11     6     5    1
    12     3     2    1
    13     5     1    1
    14     2     1    1
    15     2     4    2
