@<TRIPOS>MOLECULE
/home/cewinharhar/GITHUB/reincatalyze/data/processed/docking_pred/2023-May-22-2206_sub9_nm5_bs15_s42_ex16_mel10_mts10000_k50_ec02_g099_lra9e-4_lrc1e-3/1fd5ec6d4a6889d2560636754963a08404c0587d_ligand_9.pdbqt
 14 15 0 0 0
SMALL
GASTEIGER

@<TRIPOS>ATOM
      1  C          6.3660    1.2220    0.9420 C.3     1  UNL1        0.0800
      2  C          5.6390    0.3850    1.9380 C.2     1  UNL1        0.1300
      3  C          6.2490   -0.8380    2.5230 C.3     1  UNL1        0.0870
      4  O          4.5140    0.6830    2.3040 O.2     1  UNL1       -0.3000
      5  C          5.8660    0.9610   -0.4650 C.3     1  UNL1        0.0430
      6  C          6.8090    0.1290   -1.2340 C.2     1  UNL1       -0.0440
      7  C          7.4930    0.6340   -2.3460 C.2     1  UNL1        0.0080
      8  C          7.0330   -1.1750   -0.8570 C.2     1  UNL1        0.0540
      9  C          8.3670   -0.1920   -3.0290 C.2     1  UNL1        0.0510
     10  C          7.9180   -2.0070   -1.5500 C.2     1  UNL1        0.1660
     11  C          8.5900   -1.5110   -2.6450 C.2     1  UNL1        0.1650
     12  O          8.3050   -3.3190   -1.3780 O.2     1  UNL1       -0.4540
     13  O          9.3850   -2.5390   -3.1270 O.2     1  UNL1       -0.4540
     14  C          9.3040   -3.6750   -2.2990 C.3     1  UNL1        0.4680
@<TRIPOS>BOND
     1    13    11    1
     2    13    14    1
     3     9    11    2
     4     9     7    1
     5    11    10    1
     6     7     6    2
     7    14    12    1
     8    10    12    1
     9    10     8    2
    10     6     8    1
    11     6     5    1
    12     5     1    1
    13     1     2    1
    14     2     4    2
    15     2     3    1
