@<TRIPOS>MOLECULE
/home/cewinharhar/GITHUB/reincatalyze/data/processed/docking_pred/2023-May-22-2206_sub9_nm5_bs15_s42_ex16_mel10_mts10000_k50_ec02_g099_lra9e-4_lrc1e-3/21195065f8807259401ec3420f3b6dd683f2acc0_ligand_9.pdbqt
 14 15 0 0 0
SMALL
GASTEIGER

@<TRIPOS>ATOM
      1  C          6.4210    1.5840    0.6310 C.3     1  UNL1        0.0800
      2  C          5.9550    0.8010    1.8090 C.2     1  UNL1        0.1300
      3  C          6.8320   -0.1950    2.4810 C.3     1  UNL1        0.0870
      4  O          4.8310    0.9540    2.2590 O.2     1  UNL1       -0.3000
      5  C          5.8480    1.0320   -0.6590 C.3     1  UNL1        0.0430
      6  C          6.8180    0.1760   -1.3650 C.2     1  UNL1       -0.0440
      7  C          7.5800    0.6590   -2.4350 C.2     1  UNL1        0.0080
      8  C          6.9890   -1.1320   -0.9690 C.2     1  UNL1        0.0540
      9  C          8.4760   -0.1900   -3.0590 C.2     1  UNL1        0.0510
     10  C          7.8960   -1.9860   -1.6030 C.2     1  UNL1        0.1660
     11  C          8.6450   -1.5110   -2.6570 C.2     1  UNL1        0.1650
     12  O          8.2430   -3.3050   -1.4010 O.2     1  UNL1       -0.4540
     13  O          9.4460   -2.5590   -3.0830 O.2     1  UNL1       -0.4540
     14  C          9.2890   -3.6880   -2.2570 C.3     1  UNL1        0.4680
@<TRIPOS>BOND
     1    13    11    1
     2    13    14    1
     3     9    11    2
     4     9     7    1
     5    11    10    1
     6     7     6    2
     7    14    12    1
     8    10    12    1
     9    10     8    2
    10     6     8    1
    11     6     5    1
    12     5     1    1
    13     1     2    1
    14     2     4    2
    15     2     3    1
