@<TRIPOS>MOLECULE
/home/cewinharhar/GITHUB/reincatalyze/data/processed/docking_pred/2023-May-22-2206_sub9_nm5_bs15_s42_ex16_mel10_mts10000_k50_ec02_g099_lra9e-4_lrc1e-3/21195065f8807259401ec3420f3b6dd683f2acc0_ligand_9.pdbqt
 14 15 0 0 0
SMALL
GASTEIGER

@<TRIPOS>ATOM
      1  C          6.5600    0.6490    1.4840 C.3     1  UNL1        0.0800
      2  C          5.1910    1.2330    1.4200 C.2     1  UNL1        0.1300
      3  C          4.7840    2.1500    0.3220 C.3     1  UNL1        0.0870
      4  O          4.3590    0.9750    2.2750 O.2     1  UNL1       -0.3000
      5  C          7.3370    0.9270    0.2130 C.3     1  UNL1        0.0430
      6  C          7.6450   -0.3130   -0.5220 C.2     1  UNL1       -0.0440
      7  C          7.5880   -0.3700   -1.9200 C.2     1  UNL1        0.0080
      8  C          8.0000   -1.4470    0.1720 C.2     1  UNL1        0.0540
      9  C          7.8880   -1.5610   -2.5550 C.2     1  UNL1        0.0510
     10  C          8.3030   -2.6490   -0.4750 C.2     1  UNL1        0.1660
     11  C          8.2460   -2.7060   -1.8500 C.2     1  UNL1        0.1650
     12  O          8.6760   -3.8940   -0.0170 O.2     1  UNL1       -0.4540
     13  O          8.5900   -3.9990   -2.2120 O.2     1  UNL1       -0.4540
     14  C          8.9580   -4.7610   -1.0860 C.3     1  UNL1        0.4680
@<TRIPOS>BOND
     1     9     7    1
     2     9    11    2
     3    13    11    1
     4    13    14    1
     5     7     6    2
     6    11    10    1
     7    14    12    1
     8     6     8    1
     9     6     5    1
    10    10    12    1
    11    10     8    2
    12     5     1    1
    13     3     2    1
    14     2     1    1
    15     2     4    2
