@<TRIPOS>MOLECULE
/home/cewinharhar/GITHUB/reincatalyze/data/processed/docking_pred/2023-May-22-2206_sub9_nm5_bs15_s42_ex16_mel10_mts10000_k50_ec02_g099_lra9e-4_lrc1e-3/22478e644e92021fed45641255b53d2cc77f0790_ligand_9.pdbqt
 14 15 0 0 0
SMALL
GASTEIGER

@<TRIPOS>ATOM
      1  C          5.3300   -0.0610    1.9710 C.3     1  UNL1        0.0800
      2  C          4.4410    1.1200    1.7880 C.2     1  UNL1        0.1300
      3  C          4.7140    2.1500    0.7500 C.3     1  UNL1        0.0870
      4  O          3.4540    1.2760    2.4900 O.2     1  UNL1       -0.3000
      5  C          6.7920    0.3350    1.9010 C.3     1  UNL1        0.0430
      6  C          7.3950   -0.0280    0.6060 C.2     1  UNL1       -0.0440
      7  C          7.8930    0.9440   -0.2690 C.2     1  UNL1        0.0080
      8  C          7.4770   -1.3520    0.2400 C.2     1  UNL1        0.0540
      9  C          8.4490    0.5440   -1.4700 C.2     1  UNL1        0.0510
     10  C          8.0410   -1.7510   -0.9760 C.2     1  UNL1        0.1660
     11  C          8.5300   -0.7960   -1.8380 C.2     1  UNL1        0.1650
     12  O          8.2350   -2.9850   -1.5610 O.2     1  UNL1       -0.4540
     13  O          9.0210   -1.4690   -2.9460 O.2     1  UNL1       -0.4540
     14  C          8.9370   -2.8630   -2.7720 C.3     1  UNL1        0.4680
@<TRIPOS>BOND
     1    13    14    1
     2    13    11    1
     3    14    12    1
     4    11     9    2
     5    11    10    1
     6    12    10    1
     7     9     7    1
     8    10     8    2
     9     7     6    2
    10     8     6    1
    11     6     5    1
    12     3     2    1
    13     2     1    1
    14     2     4    2
    15     5     1    1
