@<TRIPOS>MOLECULE
/home/cewinharhar/GITHUB/reincatalyze/data/processed/docking_pred/2023-May-22-2206_sub9_nm5_bs15_s42_ex16_mel10_mts10000_k50_ec02_g099_lra9e-4_lrc1e-3/225d7738cc918e3754e3779366d54ccb252183f1_ligand_9.pdbqt
 14 15 0 0 0
SMALL
GASTEIGER

@<TRIPOS>ATOM
      1  C          5.5070    1.9210    1.2470 C.3     1  UNL1        0.0800
      2  C          5.0600    0.7120    1.9930 C.2     1  UNL1        0.1300
      3  C          5.9370   -0.4800    2.1470 C.3     1  UNL1        0.0870
      4  O          3.9530    0.6640    2.5040 O.2     1  UNL1       -0.3000
      5  C          5.3840    1.7190   -0.2510 C.3     1  UNL1        0.0430
      6  C          6.5570    1.0210   -0.8060 C.2     1  UNL1       -0.0440
      7  C          7.8610    1.4580   -0.5460 C.2     1  UNL1        0.0080
      8  C          6.3780   -0.0890   -1.5990 C.2     1  UNL1        0.0540
      9  C          8.9240    0.7620   -1.0940 C.2     1  UNL1        0.0510
     10  C          7.4550   -0.7890   -2.1510 C.2     1  UNL1        0.1660
     11  C          8.7390   -0.3600   -1.8960 C.2     1  UNL1        0.1650
     12  O          7.5370   -1.9030   -2.9590 O.2     1  UNL1       -0.4540
     13  O          9.5910   -1.2290   -2.5590 O.2     1  UNL1       -0.4540
     14  C          8.8750   -2.2750   -3.1700 C.3     1  UNL1        0.4680
@<TRIPOS>BOND
     1    14    12    1
     2    14    13    1
     3    12    10    1
     4    13    11    1
     5    10    11    2
     6    10     8    1
     7    11     9    1
     8     8     6    2
     9     9     7    2
    10     6     7    1
    11     6     5    1
    12     5     1    1
    13     1     2    1
    14     2     3    1
    15     2     4    2
