@<TRIPOS>MOLECULE
/home/cewinharhar/GITHUB/reincatalyze/data/processed/docking_pred/2023-May-22-2206_sub9_nm5_bs15_s42_ex16_mel10_mts10000_k50_ec02_g099_lra9e-4_lrc1e-3/2481e5cfc04dcfc4c7035fb6b8b96c3a7d203934_ligand_9.pdbqt
 14 15 0 0 0
SMALL
GASTEIGER

@<TRIPOS>ATOM
      1  C          6.3830    1.1780    0.9700 C.3     1  UNL1        0.0800
      2  C          5.6820    0.3290    1.9740 C.2     1  UNL1        0.1300
      3  C          6.3160   -0.8880    2.5460 C.3     1  UNL1        0.0870
      4  O          4.5580    0.6120    2.3580 O.2     1  UNL1       -0.3000
      5  C          5.8650    0.9140   -0.4300 C.3     1  UNL1        0.0430
      6  C          6.8040    0.0900   -1.2130 C.2     1  UNL1       -0.0440
      7  C          7.4620    0.5980   -2.3390 C.2     1  UNL1        0.0080
      8  C          7.0470   -1.2110   -0.8360 C.2     1  UNL1        0.0540
      9  C          8.3330   -0.2210   -3.0340 C.2     1  UNL1        0.0510
     10  C          7.9290   -2.0350   -1.5420 C.2     1  UNL1        0.1660
     11  C          8.5760   -1.5370   -2.6500 C.2     1  UNL1        0.1650
     12  O          8.3330   -3.3420   -1.3720 O.2     1  UNL1       -0.4540
     13  O          9.3740   -2.5580   -3.1420 O.2     1  UNL1       -0.4540
     14  C          9.3190   -3.6910   -2.3090 C.3     1  UNL1        0.4680
@<TRIPOS>BOND
     1    13    11    1
     2    13    14    1
     3     9    11    2
     4     9     7    1
     5    11    10    1
     6     7     6    2
     7    14    12    1
     8    10    12    1
     9    10     8    2
    10     6     8    1
    11     6     5    1
    12     5     1    1
    13     1     2    1
    14     2     4    2
    15     2     3    1
