@<TRIPOS>MOLECULE
/home/cewinharhar/GITHUB/reincatalyze/data/processed/docking_pred/2023-May-22-2206_sub9_nm5_bs15_s42_ex16_mel10_mts10000_k50_ec02_g099_lra9e-4_lrc1e-3/25ea22f039de2039e6eb222be1b9c38742a73e8b_ligand_9.pdbqt
 14 15 0 0 0
SMALL
GASTEIGER

@<TRIPOS>ATOM
      1  C          5.6960    1.3640   -0.2920 C.3     1  UNL1        0.0800
      2  C          5.1470    1.2460    1.0880 C.2     1  UNL1        0.1300
      3  C          5.3720    0.0310    1.9160 C.3     1  UNL1        0.0870
      4  O          4.4920    2.1490    1.5810 O.2     1  UNL1       -0.3000
      5  C          7.1980    1.1570   -0.3070 C.3     1  UNL1        0.0430
      6  C          7.5660   -0.1310   -0.9220 C.2     1  UNL1       -0.0440
      7  C          7.6080   -0.2940   -2.3110 C.2     1  UNL1        0.0080
      8  C          7.8790   -1.2050   -0.1200 C.2     1  UNL1        0.0540
      9  C          7.9610   -1.5260   -2.8310 C.2     1  UNL1        0.0510
     10  C          8.2360   -2.4480   -0.6510 C.2     1  UNL1        0.1660
     11  C          8.2770   -2.6100   -2.0180 C.2     1  UNL1        0.1650
     12  O          8.5850   -3.6510   -0.0740 O.2     1  UNL1       -0.4540
     13  O          8.6550   -3.9220   -2.2550 O.2     1  UNL1       -0.4540
     14  C          8.9480   -4.5920   -1.0520 C.3     1  UNL1        0.4680
@<TRIPOS>BOND
     1     9     7    1
     2     9    11    2
     3     7     6    2
     4    13    11    1
     5    13    14    1
     6    11    10    1
     7    14    12    1
     8     6     5    1
     9     6     8    1
    10    10     8    2
    11    10    12    1
    12     5     1    1
    13     1     2    1
    14     2     4    2
    15     2     3    1
