@<TRIPOS>MOLECULE
/home/cewinharhar/GITHUB/reincatalyze/data/processed/docking_pred/2023-May-22-2206_sub9_nm5_bs15_s42_ex16_mel10_mts10000_k50_ec02_g099_lra9e-4_lrc1e-3/25fd2f55844bdf9fb92a90adf0bdb598f7a2ad59_ligand_9.pdbqt
 14 15 0 0 0
SMALL
GASTEIGER

@<TRIPOS>ATOM
      1  C          6.9480    1.0230    1.2490 C.3     1  UNL1        0.0800
      2  C          5.4770    1.1890    1.4140 C.2     1  UNL1        0.1300
      3  C          4.7020    2.1500    0.5840 C.3     1  UNL1        0.0870
      4  O          4.8620    0.5370    2.2420 O.2     1  UNL1       -0.3000
      5  C          7.3620    1.1940   -0.2000 C.3     1  UNL1        0.0430
      6  C          7.6940   -0.0960   -0.8290 C.2     1  UNL1       -0.0440
      7  C          7.7610   -0.2380   -2.2200 C.2     1  UNL1        0.0080
      8  C          7.9480   -1.1950   -0.0400 C.2     1  UNL1        0.0540
      9  C          8.0780   -1.4730   -2.7550 C.2     1  UNL1        0.0510
     10  C          8.2680   -2.4420   -0.5860 C.2     1  UNL1        0.1660
     11  C          8.3330   -2.5820   -1.9540 C.2     1  UNL1        0.1650
     12  O          8.5580   -3.6670   -0.0230 O.2     1  UNL1       -0.4540
     13  O          8.6660   -3.9040   -2.2060 O.2     1  UNL1       -0.4540
     14  C          8.9070   -4.6050   -1.0100 C.3     1  UNL1        0.4680
@<TRIPOS>BOND
     1     9     7    1
     2     9    11    2
     3     7     6    2
     4    13    11    1
     5    13    14    1
     6    11    10    1
     7    14    12    1
     8     6     5    1
     9     6     8    1
    10    10     8    2
    11    10    12    1
    12     5     1    1
    13     3     2    1
    14     1     2    1
    15     2     4    2
