MODEL 1
REMARK VINA RESULT:      -7.6      0.000      0.000
REMARK SMILES CC(=O)CCc1ccc2c(c1)OCO2
REMARK SMILES IDX 4 1 2 2 1 3 3 4 5 5 6 6 7 7 11 8 8 9 10 10 9 11 12 12 14 13
REMARK SMILES IDX 13 14
REMARK H PARENT
REMARK Flexibility Score: inf
ROOT
ATOM      1  C   UNL     1       5.552   1.917   1.279  1.00  0.00     0.080 C 
ENDROOT
BRANCH   1   2
ATOM      2  C   UNL     1       5.122   0.698   2.019  1.00  0.00     0.130 C 
ATOM      3  C   UNL     1       6.028  -0.468   2.198  1.00  0.00     0.087 C 
ATOM      4  O   UNL     1       4.004   0.620   2.502  1.00  0.00    -0.300 OA
ENDBRANCH   1   2
BRANCH   1   5
ATOM      5  C   UNL     1       5.418   1.729  -0.219  1.00  0.00     0.043 C 
BRANCH   5   6
ATOM      6  C   UNL     1       6.582   1.026  -0.787  1.00  0.00    -0.044 A 
ATOM      7  C   UNL     1       7.891   1.454  -0.537  1.00  0.00     0.008 A 
ATOM      8  C   UNL     1       6.389  -0.081  -1.583  1.00  0.00     0.054 A 
ATOM      9  C   UNL     1       8.944   0.755  -1.097  1.00  0.00     0.051 A 
ATOM     10  C   UNL     1       7.458  -0.785  -2.146  1.00  0.00     0.166 A 
ATOM     11  C   UNL     1       8.746  -0.364  -1.902  1.00  0.00     0.165 A 
ATOM     12  O   UNL     1       7.526  -1.897  -2.959  1.00  0.00    -0.454 OA
ATOM     13  O   UNL     1       9.587  -1.235  -2.575  1.00  0.00    -0.454 OA
ATOM     14  C   UNL     1       8.860  -2.275  -3.184  1.00  0.00     0.468 C 
ENDBRANCH   5   6
ENDBRANCH   1   5
TORSDOF 3
ENDMDL
MODEL 2
REMARK VINA RESULT:      -7.4      1.932      2.361
REMARK SMILES CC(=O)CCc1ccc2c(c1)OCO2
REMARK SMILES IDX 4 1 2 2 1 3 3 4 5 5 6 6 7 7 11 8 8 9 10 10 9 11 12 12 14 13
REMARK SMILES IDX 13 14
REMARK H PARENT
REMARK Flexibility Score: inf
ROOT
ATOM      1  C   UNL     1       5.728   1.357  -0.192  1.00  0.00     0.080 C 
ENDROOT
BRANCH   1   2
ATOM      2  C   UNL     1       5.076   1.234   1.142  1.00  0.00     0.130 C 
ATOM      3  C   UNL     1       5.354   0.084   2.043  1.00  0.00     0.087 C 
ATOM      4  O   UNL     1       4.290   2.080   1.536  1.00  0.00    -0.300 OA
ENDBRANCH   1   2
BRANCH   1   5
ATOM      5  C   UNL     1       7.218   1.094  -0.103  1.00  0.00     0.043 C 
BRANCH   5   6
ATOM      6  C   UNL     1       7.587  -0.180  -0.747  1.00  0.00    -0.044 A 
ATOM      7  C   UNL     1       7.633  -0.311  -2.139  1.00  0.00     0.008 A 
ATOM      8  C   UNL     1       7.898  -1.272   0.031  1.00  0.00     0.054 A 
ATOM      9  C   UNL     1       7.987  -1.531  -2.687  1.00  0.00     0.051 A 
ATOM     10  C   UNL     1       8.256  -2.503  -0.528  1.00  0.00     0.166 A 
ATOM     11  C   UNL     1       8.300  -2.633  -1.898  1.00  0.00     0.165 A 
ATOM     12  O   UNL     1       8.603  -3.719   0.022  1.00  0.00    -0.454 OA
ATOM     13  O   UNL     1       8.678  -3.940  -2.164  1.00  0.00    -0.454 OA
ATOM     14  C   UNL     1       8.968  -4.637  -0.976  1.00  0.00     0.468 C 
ENDBRANCH   5   6
ENDBRANCH   1   5
TORSDOF 3
ENDMDL
MODEL 3
REMARK VINA RESULT:      -7.2      2.055      2.631
REMARK SMILES CC(=O)CCc1ccc2c(c1)OCO2
REMARK SMILES IDX 4 1 2 2 1 3 3 4 5 5 6 6 7 7 11 8 8 9 10 10 9 11 12 12 14 13
REMARK SMILES IDX 13 14
REMARK H PARENT
REMARK Flexibility Score: inf
ROOT
ATOM      1  C   UNL     1       5.390  -0.073   2.029  1.00  0.00     0.080 C 
ENDROOT
BRANCH   1   2
ATOM      2  C   UNL     1       4.545   1.126   1.773  1.00  0.00     0.130 C 
ATOM      3  C   UNL     1       4.891   2.115   0.717  1.00  0.00     0.087 C 
ATOM      4  O   UNL     1       3.536   1.333   2.428  1.00  0.00    -0.300 OA
ENDBRANCH   1   2
BRANCH   1   5
ATOM      5  C   UNL     1       6.832   0.174   1.629  1.00  0.00     0.043 C 
BRANCH   5   6
ATOM      6  C   UNL     1       7.266  -0.741   0.559  1.00  0.00    -0.044 A 
ATOM      7  C   UNL     1       7.153  -0.396  -0.793  1.00  0.00     0.008 A 
ATOM      8  C   UNL     1       7.801  -1.967   0.885  1.00  0.00     0.054 A 
ATOM      9  C   UNL     1       7.578  -1.295  -1.753  1.00  0.00     0.051 A 
ATOM     10  C   UNL     1       8.230  -2.872  -0.090  1.00  0.00     0.166 A 
ATOM     11  C   UNL     1       8.117  -2.534  -1.420  1.00  0.00     0.165 A 
ATOM     12  O   UNL     1       8.786  -4.132  -0.023  1.00  0.00    -0.454 OA
ATOM     13  O   UNL     1       8.613  -3.603  -2.149  1.00  0.00    -0.454 OA
ATOM     14  C   UNL     1       9.131  -4.600  -1.301  1.00  0.00     0.468 C 
ENDBRANCH   5   6
ENDBRANCH   1   5
TORSDOF 3
ENDMDL
MODEL 4
REMARK VINA RESULT:      -7.0      1.260      1.470
REMARK SMILES CC(=O)CCc1ccc2c(c1)OCO2
REMARK SMILES IDX 4 1 2 2 1 3 3 4 5 5 6 6 7 7 11 8 8 9 10 10 9 11 12 12 14 13
REMARK SMILES IDX 13 14
REMARK H PARENT
REMARK Flexibility Score: inf
ROOT
ATOM      1  C   UNL     1       6.401   1.204   0.945  1.00  0.00     0.080 C 
ENDROOT
BRANCH   1   2
ATOM      2  C   UNL     1       5.676   0.364   1.939  1.00  0.00     0.130 C 
ATOM      3  C   UNL     1       6.294  -0.852   2.532  1.00  0.00     0.087 C 
ATOM      4  O   UNL     1       4.546   0.652   2.297  1.00  0.00    -0.300 OA
ENDBRANCH   1   2
BRANCH   1   5
ATOM      5  C   UNL     1       5.901   0.947  -0.463  1.00  0.00     0.043 C 
BRANCH   5   6
ATOM      6  C   UNL     1       6.838   0.110  -1.231  1.00  0.00    -0.044 A 
ATOM      7  C   UNL     1       7.527   0.610  -2.342  1.00  0.00     0.008 A 
ATOM      8  C   UNL     1       7.051  -1.197  -0.855  1.00  0.00     0.054 A 
ATOM      9  C   UNL     1       8.395  -0.223  -3.025  1.00  0.00     0.051 A 
ATOM     10  C   UNL     1       7.930  -2.035  -1.548  1.00  0.00     0.166 A 
ATOM     11  C   UNL     1       8.607  -1.544  -2.642  1.00  0.00     0.165 A 
ATOM     12  O   UNL     1       8.308  -3.350  -1.376  1.00  0.00    -0.454 OA
ATOM     13  O   UNL     1       9.395  -2.578  -3.123  1.00  0.00    -0.454 OA
ATOM     14  C   UNL     1       9.305  -3.713  -2.296  1.00  0.00     0.468 C 
ENDBRANCH   5   6
ENDBRANCH   1   5
TORSDOF 3
ENDMDL
MODEL 5
REMARK VINA RESULT:      -7.0      1.982      2.554
REMARK SMILES CC(=O)CCc1ccc2c(c1)OCO2
REMARK SMILES IDX 4 1 2 2 1 3 3 4 5 5 6 6 7 7 11 8 8 9 10 10 9 11 12 12 14 13
REMARK SMILES IDX 13 14
REMARK H PARENT
REMARK Flexibility Score: inf
ROOT
ATOM      1  C   UNL     1       6.924   0.853   1.152  1.00  0.00     0.080 C 
ENDROOT
BRANCH   1   2
ATOM      2  C   UNL     1       5.485   1.107   1.443  1.00  0.00     0.130 C 
ATOM      3  C   UNL     1       4.714   2.149   0.715  1.00  0.00     0.087 C 
ATOM      4  O   UNL     1       4.894   0.461   2.293  1.00  0.00    -0.300 OA
ENDBRANCH   1   2
BRANCH   1   5
ATOM      5  C   UNL     1       7.216   0.973  -0.330  1.00  0.00     0.043 C 
BRANCH   5   6
ATOM      6  C   UNL     1       7.637  -0.315  -0.910  1.00  0.00    -0.044 A 
ATOM      7  C   UNL     1       7.779  -0.485  -2.292  1.00  0.00     0.008 A 
ATOM      8  C   UNL     1       7.902  -1.382  -0.082  1.00  0.00     0.054 A 
ATOM      9  C   UNL     1       8.178  -1.716  -2.779  1.00  0.00     0.051 A 
ATOM     10  C   UNL     1       8.306  -2.624  -0.580  1.00  0.00     0.166 A 
ATOM     11  C   UNL     1       8.445  -2.793  -1.940  1.00  0.00     0.165 A 
ATOM     12  O   UNL     1       8.624  -3.821   0.027  1.00  0.00    -0.454 OA
ATOM     13  O   UNL     1       8.850  -4.103  -2.142  1.00  0.00    -0.454 OA
ATOM     14  C   UNL     1       9.063  -4.764  -0.917  1.00  0.00     0.468 C 
ENDBRANCH   5   6
ENDBRANCH   1   5
TORSDOF 3
ENDMDL
