@<TRIPOS>MOLECULE
/home/cewinharhar/GITHUB/reincatalyze/data/processed/docking_pred/2023-May-22-2206_sub9_nm5_bs15_s42_ex16_mel10_mts10000_k50_ec02_g099_lra9e-4_lrc1e-3/2b606219d5526e18d91eeb9dfd7a568ae4147191_ligand_9.pdbqt
 14 15 0 0 0
SMALL
GASTEIGER

@<TRIPOS>ATOM
      1  C          6.3710    1.2310    0.9240 C.3     1  UNL1        0.0800
      2  C          5.6600    0.4020    1.9360 C.2     1  UNL1        0.1300
      3  C          6.2820   -0.8130    2.5270 C.3     1  UNL1        0.0870
      4  O          4.5370    0.6980    2.3110 O.2     1  UNL1       -0.3000
      5  C          5.8650    0.9460   -0.4760 C.3     1  UNL1        0.0430
      6  C          6.8140    0.1170   -1.2420 C.2     1  UNL1       -0.0440
      7  C          7.5030    0.6260   -2.3490 C.2     1  UNL1        0.0080
      8  C          7.0370   -1.1880   -0.8670 C.2     1  UNL1        0.0540
      9  C          8.3820   -0.1980   -3.0280 C.2     1  UNL1        0.0510
     10  C          7.9270   -2.0170   -1.5560 C.2     1  UNL1        0.1660
     11  C          8.6040   -1.5180   -2.6470 C.2     1  UNL1        0.1650
     12  O          8.3150   -3.3280   -1.3840 O.2     1  UNL1       -0.4540
     13  O          9.4040   -2.5440   -3.1260 O.2     1  UNL1       -0.4540
     14  C          9.3190   -3.6810   -2.3000 C.3     1  UNL1        0.4680
@<TRIPOS>BOND
     1    13    11    1
     2    13    14    1
     3     9    11    2
     4     9     7    1
     5    11    10    1
     6     7     6    2
     7    14    12    1
     8    10    12    1
     9    10     8    2
    10     6     8    1
    11     6     5    1
    12     5     1    1
    13     1     2    1
    14     2     4    2
    15     2     3    1
