@<TRIPOS>MOLECULE
/home/cewinharhar/GITHUB/reincatalyze/data/processed/docking_pred/2023-May-22-2206_sub9_nm5_bs15_s42_ex16_mel10_mts10000_k50_ec02_g099_lra9e-4_lrc1e-3/2b611616233e02901686b2fc0a6dd8ec9c570ff2_ligand_9.pdbqt
 14 15 0 0 0
SMALL
GASTEIGER

@<TRIPOS>ATOM
      1  C          6.7720    0.7590    1.3090 C.3     1  UNL1        0.0800
      2  C          5.3340    1.1120    1.4730 C.2     1  UNL1        0.1300
      3  C          4.6840    2.1490    0.6280 C.3     1  UNL1        0.0870
      4  O          4.6440    0.5560    2.3110 O.2     1  UNL1       -0.3000
      5  C          7.2330    0.9760   -0.1190 C.3     1  UNL1        0.0430
      6  C          7.6130   -0.2910   -0.7690 C.2     1  UNL1       -0.0440
      7  C          7.6960   -0.4040   -2.1610 C.2     1  UNL1        0.0080
      8  C          7.8980   -1.3950    0.0030 C.2     1  UNL1        0.0540
      9  C          8.0590   -1.6190   -2.7150 C.2     1  UNL1        0.0510
     10  C          8.2640   -2.6200   -0.5620 C.2     1  UNL1        0.1660
     11  C          8.3450   -2.7330   -1.9320 C.2     1  UNL1        0.1650
     12  O          8.5900   -3.8450   -0.0200 O.2     1  UNL1       -0.4540
     13  O          8.7240   -4.0380   -2.2060 O.2     1  UNL1       -0.4540
     14  C          8.9780   -4.7520   -1.0190 C.3     1  UNL1        0.4680
@<TRIPOS>BOND
     1     9     7    1
     2     9    11    2
     3    13    11    1
     4    13    14    1
     5     7     6    2
     6    11    10    1
     7    14    12    1
     8     6     5    1
     9     6     8    1
    10    10    12    1
    11    10     8    2
    12     5     1    1
    13     3     2    1
    14     1     2    1
    15     2     4    2
