MODEL 1
REMARK VINA RESULT:      -7.6      0.000      0.000
REMARK SMILES CC(=O)CCc1ccc2c(c1)OCO2
REMARK SMILES IDX 4 1 2 2 1 3 3 4 5 5 6 6 7 7 11 8 8 9 10 10 9 11 12 12 14 13
REMARK SMILES IDX 13 14
REMARK H PARENT
REMARK Flexibility Score: inf
ROOT
ATOM      1  C   UNL     1       5.553   1.901   1.290  1.00  0.00     0.080 C 
ENDROOT
BRANCH   1   2
ATOM      2  C   UNL     1       5.121   0.678   2.022  1.00  0.00     0.130 C 
ATOM      3  C   UNL     1       6.025  -0.491   2.192  1.00  0.00     0.087 C 
ATOM      4  O   UNL     1       4.003   0.600   2.506  1.00  0.00    -0.300 OA
ENDBRANCH   1   2
BRANCH   1   5
ATOM      5  C   UNL     1       5.420   1.722  -0.209  1.00  0.00     0.043 C 
BRANCH   5   6
ATOM      6  C   UNL     1       6.583   1.021  -0.781  1.00  0.00    -0.044 A 
ATOM      7  C   UNL     1       7.892   1.451  -0.536  1.00  0.00     0.008 A 
ATOM      8  C   UNL     1       6.389  -0.087  -1.576  1.00  0.00     0.054 A 
ATOM      9  C   UNL     1       8.944   0.753  -1.099  1.00  0.00     0.051 A 
ATOM     10  C   UNL     1       7.456  -0.789  -2.142  1.00  0.00     0.166 A 
ATOM     11  C   UNL     1       8.745  -0.366  -1.902  1.00  0.00     0.165 A 
ATOM     12  O   UNL     1       7.524  -1.901  -2.954  1.00  0.00    -0.454 OA
ATOM     13  O   UNL     1       9.585  -1.236  -2.578  1.00  0.00    -0.454 OA
ATOM     14  C   UNL     1       8.857  -2.278  -3.184  1.00  0.00     0.468 C 
ENDBRANCH   5   6
ENDBRANCH   1   5
TORSDOF 3
ENDMDL
MODEL 2
REMARK VINA RESULT:      -7.5      1.927      2.376
REMARK SMILES CC(=O)CCc1ccc2c(c1)OCO2
REMARK SMILES IDX 4 1 2 2 1 3 3 4 5 5 6 6 7 7 11 8 8 9 10 10 9 11 12 12 14 13
REMARK SMILES IDX 13 14
REMARK H PARENT
REMARK Flexibility Score: inf
ROOT
ATOM      1  C   UNL     1       5.762   1.415  -0.304  1.00  0.00     0.080 C 
ENDROOT
BRANCH   1   2
ATOM      2  C   UNL     1       5.091   1.312   1.022  1.00  0.00     0.130 C 
ATOM      3  C   UNL     1       5.403   0.211   1.972  1.00  0.00     0.087 C 
ATOM      4  O   UNL     1       4.260   2.135   1.369  1.00  0.00    -0.300 OA
ENDBRANCH   1   2
BRANCH   1   5
ATOM      5  C   UNL     1       7.248   1.137  -0.192  1.00  0.00     0.043 C 
BRANCH   5   6
ATOM      6  C   UNL     1       7.612  -0.150  -0.810  1.00  0.00    -0.044 A 
ATOM      7  C   UNL     1       7.676  -0.304  -2.199  1.00  0.00     0.008 A 
ATOM      8  C   UNL     1       7.900  -1.233  -0.011  1.00  0.00     0.054 A 
ATOM      9  C   UNL     1       8.024  -1.536  -2.723  1.00  0.00     0.051 A 
ATOM     10  C   UNL     1       8.252  -2.476  -0.545  1.00  0.00     0.166 A 
ATOM     11  C   UNL     1       8.314  -2.629  -1.912  1.00  0.00     0.165 A 
ATOM     12  O   UNL     1       8.578  -3.687   0.029  1.00  0.00    -0.454 OA
ATOM     13  O   UNL     1       8.682  -3.944  -2.152  1.00  0.00    -0.454 OA
ATOM     14  C   UNL     1       8.947  -4.625  -0.949  1.00  0.00     0.468 C 
ENDBRANCH   5   6
ENDBRANCH   1   5
TORSDOF 3
ENDMDL
MODEL 3
REMARK VINA RESULT:      -7.2      2.069      2.631
REMARK SMILES CC(=O)CCc1ccc2c(c1)OCO2
REMARK SMILES IDX 4 1 2 2 1 3 3 4 5 5 6 6 7 7 11 8 8 9 10 10 9 11 12 12 14 13
REMARK SMILES IDX 13 14
REMARK H PARENT
REMARK Flexibility Score: inf
ROOT
ATOM      1  C   UNL     1       5.451  -0.028   2.032  1.00  0.00     0.080 C 
ENDROOT
BRANCH   1   2
ATOM      2  C   UNL     1       4.573   1.148   1.775  1.00  0.00     0.130 C 
ATOM      3  C   UNL     1       4.889   2.141   0.714  1.00  0.00     0.087 C 
ATOM      4  O   UNL     1       3.561   1.330   2.433  1.00  0.00    -0.300 OA
ENDBRANCH   1   2
BRANCH   1   5
ATOM      5  C   UNL     1       6.872   0.237   1.577  1.00  0.00     0.043 C 
BRANCH   5   6
ATOM      6  C   UNL     1       7.295  -0.706   0.527  1.00  0.00    -0.044 A 
ATOM      7  C   UNL     1       7.171  -0.394  -0.832  1.00  0.00     0.008 A 
ATOM      8  C   UNL     1       7.828  -1.925   0.879  1.00  0.00     0.054 A 
ATOM      9  C   UNL     1       7.585  -1.319  -1.773  1.00  0.00     0.051 A 
ATOM     10  C   UNL     1       8.246  -2.856  -0.076  1.00  0.00     0.166 A 
ATOM     11  C   UNL     1       8.123  -2.551  -1.414  1.00  0.00     0.165 A 
ATOM     12  O   UNL     1       8.798  -4.116   0.018  1.00  0.00    -0.454 OA
ATOM     13  O   UNL     1       8.608  -3.640  -2.120  1.00  0.00    -0.454 OA
ATOM     14  C   UNL     1       9.130  -4.617  -1.252  1.00  0.00     0.468 C 
ENDBRANCH   5   6
ENDBRANCH   1   5
TORSDOF 3
ENDMDL
MODEL 4
REMARK VINA RESULT:      -7.1      1.252      1.470
REMARK SMILES CC(=O)CCc1ccc2c(c1)OCO2
REMARK SMILES IDX 4 1 2 2 1 3 3 4 5 5 6 6 7 7 11 8 8 9 10 10 9 11 12 12 14 13
REMARK SMILES IDX 13 14
REMARK H PARENT
REMARK Flexibility Score: inf
ROOT
ATOM      1  C   UNL     1       6.379   1.181   0.919  1.00  0.00     0.080 C 
ENDROOT
BRANCH   1   2
ATOM      2  C   UNL     1       5.661   0.374   1.945  1.00  0.00     0.130 C 
ATOM      3  C   UNL     1       6.250  -0.868   2.514  1.00  0.00     0.087 C 
ATOM      4  O   UNL     1       4.560   0.712   2.350  1.00  0.00    -0.300 OA
ENDBRANCH   1   2
BRANCH   1   5
ATOM      5  C   UNL     1       5.863   0.883  -0.475  1.00  0.00     0.043 C 
BRANCH   5   6
ATOM      6  C   UNL     1       6.817   0.069  -1.249  1.00  0.00    -0.044 A 
ATOM      7  C   UNL     1       7.506   0.594  -2.348  1.00  0.00     0.008 A 
ATOM      8  C   UNL     1       7.045  -1.240  -0.889  1.00  0.00     0.054 A 
ATOM      9  C   UNL     1       8.390  -0.218  -3.036  1.00  0.00     0.051 A 
ATOM     10  C   UNL     1       7.941  -2.056  -1.587  1.00  0.00     0.166 A 
ATOM     11  C   UNL     1       8.618  -1.541  -2.669  1.00  0.00     0.165 A 
ATOM     12  O   UNL     1       8.335  -3.368  -1.430  1.00  0.00    -0.454 OA
ATOM     13  O   UNL     1       9.423  -2.557  -3.159  1.00  0.00    -0.454 OA
ATOM     14  C   UNL     1       9.343  -3.705  -2.348  1.00  0.00     0.468 C 
ENDBRANCH   5   6
ENDBRANCH   1   5
TORSDOF 3
ENDMDL
MODEL 5
REMARK VINA RESULT:      -7.1      1.966      2.515
REMARK SMILES CC(=O)CCc1ccc2c(c1)OCO2
REMARK SMILES IDX 4 1 2 2 1 3 3 4 5 5 6 6 7 7 11 8 8 9 10 10 9 11 12 12 14 13
REMARK SMILES IDX 13 14
REMARK H PARENT
REMARK Flexibility Score: inf
ROOT
ATOM      1  C   UNL     1       6.772   0.759   1.309  1.00  0.00     0.080 C 
ENDROOT
BRANCH   1   2
ATOM      2  C   UNL     1       5.334   1.112   1.473  1.00  0.00     0.130 C 
ATOM      3  C   UNL     1       4.684   2.149   0.628  1.00  0.00     0.087 C 
ATOM      4  O   UNL     1       4.644   0.556   2.311  1.00  0.00    -0.300 OA
ENDBRANCH   1   2
BRANCH   1   5
ATOM      5  C   UNL     1       7.233   0.976  -0.119  1.00  0.00     0.043 C 
BRANCH   5   6
ATOM      6  C   UNL     1       7.613  -0.291  -0.769  1.00  0.00    -0.044 A 
ATOM      7  C   UNL     1       7.696  -0.404  -2.161  1.00  0.00     0.008 A 
ATOM      8  C   UNL     1       7.898  -1.395   0.003  1.00  0.00     0.054 A 
ATOM      9  C   UNL     1       8.059  -1.619  -2.715  1.00  0.00     0.051 A 
ATOM     10  C   UNL     1       8.264  -2.620  -0.562  1.00  0.00     0.166 A 
ATOM     11  C   UNL     1       8.345  -2.733  -1.932  1.00  0.00     0.165 A 
ATOM     12  O   UNL     1       8.590  -3.845  -0.020  1.00  0.00    -0.454 OA
ATOM     13  O   UNL     1       8.724  -4.038  -2.206  1.00  0.00    -0.454 OA
ATOM     14  C   UNL     1       8.978  -4.752  -1.019  1.00  0.00     0.468 C 
ENDBRANCH   5   6
ENDBRANCH   1   5
TORSDOF 3
ENDMDL
