@<TRIPOS>MOLECULE
/home/cewinharhar/GITHUB/reincatalyze/data/processed/docking_pred/2023-May-22-2206_sub9_nm5_bs15_s42_ex16_mel10_mts10000_k50_ec02_g099_lra9e-4_lrc1e-3/2bd7ebd6000506c3611824cd415c5dddcf27ad2f_ligand_9.pdbqt
 14 15 0 0 0
SMALL
GASTEIGER

@<TRIPOS>ATOM
      1  C          6.9590   -0.4030    1.7190 C.3     1  UNL1        0.0800
      2  C          5.7690    0.4500    1.4460 C.2     1  UNL1        0.1300
      3  C          5.6000    1.1640    0.1530 C.3     1  UNL1        0.0870
      4  O          4.8920    0.5880    2.2840 O.2     1  UNL1       -0.3000
      5  C          7.0000   -0.8440    3.1690 C.3     1  UNL1        0.0430
      6  C          8.2930   -1.4590    3.5170 C.2     1  UNL1       -0.0440
      7  C          8.8630   -1.2990    4.7860 C.2     1  UNL1        0.0080
      8  C          8.9650   -2.2110    2.5810 C.2     1  UNL1        0.0540
      9  C         10.0790   -1.9000    5.0560 C.2     1  UNL1        0.0510
     10  C         10.1940   -2.8170    2.8590 C.2     1  UNL1        0.1660
     11  C         10.7560   -2.6600    4.1060 C.2     1  UNL1        0.1650
     12  O         11.0460   -3.6010    2.1100 O.2     1  UNL1       -0.4540
     13  O         11.9530   -3.3580    4.0980 O.2     1  UNL1       -0.4540
     14  C         12.1320   -4.0440    2.8820 C.3     1  UNL1        0.4680
@<TRIPOS>BOND
     1     3     2    1
     2     2     1    1
     3     2     4    2
     4     1     5    1
     5    12    10    1
     6    12    14    1
     7     8    10    1
     8     8     6    2
     9    10    11    2
    10    14    13    1
    11     5     6    1
    12     6     7    1
    13    13    11    1
    14    11     9    1
    15     7     9    2
