@<TRIPOS>MOLECULE
/home/cewinharhar/GITHUB/reincatalyze/data/processed/docking_pred/2023-May-22-2206_sub9_nm5_bs15_s42_ex16_mel10_mts10000_k50_ec02_g099_lra9e-4_lrc1e-3/2d2d9026ea33a6842fa37a74e1533968fe9c5ac5_ligand_9.pdbqt
 14 15 0 0 0
SMALL
GASTEIGER

@<TRIPOS>ATOM
      1  C          5.7120    1.3380   -0.3220 C.3     1  UNL1        0.0800
      2  C          5.1280    1.2670    1.0460 C.2     1  UNL1        0.1300
      3  C          5.4100    0.1250    1.9570 C.3     1  UNL1        0.0870
      4  O          4.3950    2.1500    1.4610 O.2     1  UNL1       -0.3000
      5  C          7.2120    1.1240   -0.2920 C.3     1  UNL1        0.0430
      6  C          7.5960   -0.1510   -0.9230 C.2     1  UNL1       -0.0440
      7  C          7.6660   -0.2890   -2.3140 C.2     1  UNL1        0.0080
      8  C          7.8960   -1.2390   -0.1350 C.2     1  UNL1        0.0540
      9  C          8.0330   -1.5100   -2.8500 C.2     1  UNL1        0.0510
     10  C          8.2660   -2.4710   -0.6810 C.2     1  UNL1        0.1660
     11  C          8.3350   -2.6080   -2.0500 C.2     1  UNL1        0.1650
     12  O          8.6070   -3.6840   -0.1200 O.2     1  UNL1       -0.4540
     13  O          8.7210   -3.9150   -2.3030 O.2     1  UNL1       -0.4540
     14  C          8.9920   -4.6060   -1.1070 C.3     1  UNL1        0.4680
@<TRIPOS>BOND
     1     9     7    1
     2     9    11    2
     3     7     6    2
     4    13    11    1
     5    13    14    1
     6    11    10    1
     7    14    12    1
     8     6     5    1
     9     6     8    1
    10    10     8    2
    11    10    12    1
    12     1     5    1
    13     1     2    1
    14     2     4    2
    15     2     3    1
