@<TRIPOS>MOLECULE
/home/cewinharhar/GITHUB/reincatalyze/data/processed/docking_pred/2023-May-22-2206_sub9_nm5_bs15_s42_ex16_mel10_mts10000_k50_ec02_g099_lra9e-4_lrc1e-3/2d2d9026ea33a6842fa37a74e1533968fe9c5ac5_ligand_9.pdbqt
 14 15 0 0 0
SMALL
GASTEIGER

@<TRIPOS>ATOM
      1  C          5.5330    1.8820    1.2930 C.3     1  UNL1        0.0800
      2  C          5.0870    0.6590    2.0170 C.2     1  UNL1        0.1300
      3  C          5.9700   -0.5300    2.1600 C.3     1  UNL1        0.0870
      4  O          3.9760    0.5980    2.5180 O.2     1  UNL1       -0.3000
      5  C          5.4030    1.7110   -0.2080 C.3     1  UNL1        0.0430
      6  C          6.5720    1.0210   -0.7820 C.2     1  UNL1       -0.0440
      7  C          7.8770    1.4690   -0.5470 C.2     1  UNL1        0.0080
      8  C          6.3870   -0.0940   -1.5680 C.2     1  UNL1        0.0540
      9  C          8.9350    0.7800   -1.1120 C.2     1  UNL1        0.0510
     10  C          7.4600   -0.7870   -2.1370 C.2     1  UNL1        0.1660
     11  C          8.7440   -0.3460   -1.9070 C.2     1  UNL1        0.1650
     12  O          7.5370   -1.9030   -2.9430 O.2     1  UNL1       -0.4540
     13  O          9.5920   -1.2100   -2.5830 O.2     1  UNL1       -0.4540
     14  C          8.8730   -2.2650   -3.1780 C.3     1  UNL1        0.4680
@<TRIPOS>BOND
     1    14    12    1
     2    14    13    1
     3    12    10    1
     4    13    11    1
     5    10    11    2
     6    10     8    1
     7    11     9    1
     8     8     6    2
     9     9     7    2
    10     6     7    1
    11     6     5    1
    12     5     1    1
    13     1     2    1
    14     2     3    1
    15     2     4    2
