@<TRIPOS>MOLECULE
/home/cewinharhar/GITHUB/reincatalyze/data/processed/docking_pred/2023-May-22-2206_sub9_nm5_bs15_s42_ex16_mel10_mts10000_k50_ec02_g099_lra9e-4_lrc1e-3/2d2d9026ea33a6842fa37a74e1533968fe9c5ac5_ligand_9.pdbqt
 14 15 0 0 0
SMALL
GASTEIGER

@<TRIPOS>ATOM
      1  C          5.4730   -0.0630    1.9540 C.3     1  UNL1        0.0800
      2  C          4.6220    1.1340    1.7040 C.2     1  UNL1        0.1300
      3  C          4.9290    2.0960    0.6130 C.3     1  UNL1        0.0870
      4  O          3.6420    1.3600    2.3950 O.2     1  UNL1       -0.3000
      5  C          6.9060    0.1810    1.5240 C.3     1  UNL1        0.0430
      6  C          7.3190   -0.7370    0.4480 C.2     1  UNL1       -0.0440
      7  C          7.1510   -0.4070   -0.9010 C.2     1  UNL1        0.0080
      8  C          7.8860   -1.9510    0.7670 C.2     1  UNL1        0.0540
      9  C          7.5580   -1.3090   -1.8680 C.2     1  UNL1        0.0510
     10  C          8.2960   -2.8580   -0.2140 C.2     1  UNL1        0.1660
     11  C          8.1300   -2.5350   -1.5430 C.2     1  UNL1        0.1650
     12  O          8.8760   -4.1080   -0.1550 O.2     1  UNL1       -0.4540
     13  O          8.6180   -3.6030   -2.2790 O.2     1  UNL1       -0.4540
     14  C          9.1830   -4.5830   -1.4400 C.3     1  UNL1        0.4680
@<TRIPOS>BOND
     1    13    11    1
     2    13    14    1
     3     9    11    2
     4     9     7    1
     5    11    10    1
     6    14    12    1
     7     7     6    2
     8    10    12    1
     9    10     8    2
    10     6     8    1
    11     6     5    1
    12     3     2    1
    13     5     1    1
    14     2     1    1
    15     2     4    2
