@<TRIPOS>MOLECULE
/home/cewinharhar/GITHUB/reincatalyze/data/processed/docking_pred/2023-May-22-2206_sub9_nm5_bs15_s42_ex16_mel10_mts10000_k50_ec02_g099_lra9e-4_lrc1e-3/2d2d9026ea33a6842fa37a74e1533968fe9c5ac5_ligand_9.pdbqt
 14 15 0 0 0
SMALL
GASTEIGER

@<TRIPOS>ATOM
      1  C          6.3980    1.1810    0.9070 C.3     1  UNL1        0.0800
      2  C          5.6910    0.3600    1.9290 C.2     1  UNL1        0.1300
      3  C          6.3160   -0.8490    2.5290 C.3     1  UNL1        0.0870
      4  O          4.5690    0.6580    2.3050 O.2     1  UNL1       -0.3000
      5  C          5.8850    0.8840   -0.4890 C.3     1  UNL1        0.0430
      6  C          6.8360    0.0620   -1.2570 C.2     1  UNL1       -0.0440
      7  C          7.5270    0.5780   -2.3600 C.2     1  UNL1        0.0080
      8  C          7.0610   -1.2450   -0.8880 C.2     1  UNL1        0.0540
      9  C          8.4080   -0.2410   -3.0420 C.2     1  UNL1        0.0510
     10  C          7.9540   -2.0680   -1.5810 C.2     1  UNL1        0.1660
     11  C          8.6330   -1.5620   -2.6670 C.2     1  UNL1        0.1650
     12  O          8.3440   -3.3800   -1.4160 O.2     1  UNL1       -0.4540
     13  O          9.4350   -2.5840   -3.1510 O.2     1  UNL1       -0.4540
     14  C          9.3510   -3.7260   -2.3320 C.3     1  UNL1        0.4680
@<TRIPOS>BOND
     1    13    11    1
     2    13    14    1
     3     9    11    2
     4     9     7    1
     5    11    10    1
     6     7     6    2
     7    14    12    1
     8    10    12    1
     9    10     8    2
    10     6     8    1
    11     6     5    1
    12     5     1    1
    13     1     2    1
    14     2     4    2
    15     2     3    1
