MODEL 1
REMARK VINA RESULT:      -7.6      0.000      0.000
REMARK SMILES CC(=O)CCc1ccc2c(c1)OCO2
REMARK SMILES IDX 4 1 2 2 1 3 3 4 5 5 6 6 7 7 11 8 8 9 10 10 9 11 12 12 14 13
REMARK SMILES IDX 13 14
REMARK H PARENT
REMARK Flexibility Score: inf
ROOT
ATOM      1  C   UNL     1       5.543   1.912   1.253  1.00  0.00     0.080 C 
ENDROOT
BRANCH   1   2
ATOM      2  C   UNL     1       5.099   0.705   2.005  1.00  0.00     0.130 C 
ATOM      3  C   UNL     1       5.994  -0.467   2.198  1.00  0.00     0.087 C 
ATOM      4  O   UNL     1       3.980   0.644   2.487  1.00  0.00    -0.300 OA
ENDBRANCH   1   2
BRANCH   1   5
ATOM      5  C   UNL     1       5.408   1.709  -0.243  1.00  0.00     0.043 C 
BRANCH   5   6
ATOM      6  C   UNL     1       6.576   1.011  -0.808  1.00  0.00    -0.044 A 
ATOM      7  C   UNL     1       7.882   1.453  -0.566  1.00  0.00     0.008 A 
ATOM      8  C   UNL     1       6.390  -0.105  -1.592  1.00  0.00     0.054 A 
ATOM      9  C   UNL     1       8.940   0.757  -1.122  1.00  0.00     0.051 A 
ATOM     10  C   UNL     1       7.463  -0.805  -2.151  1.00  0.00     0.166 A 
ATOM     11  C   UNL     1       8.748  -0.371  -1.914  1.00  0.00     0.165 A 
ATOM     12  O   UNL     1       7.539  -1.924  -2.953  1.00  0.00    -0.454 OA
ATOM     13  O   UNL     1       9.595  -1.241  -2.582  1.00  0.00    -0.454 OA
ATOM     14  C   UNL     1       8.875  -2.294  -3.179  1.00  0.00     0.468 C 
ENDBRANCH   5   6
ENDBRANCH   1   5
TORSDOF 3
ENDMDL
MODEL 2
REMARK VINA RESULT:      -7.4      1.920      2.359
REMARK SMILES CC(=O)CCc1ccc2c(c1)OCO2
REMARK SMILES IDX 4 1 2 2 1 3 3 4 5 5 6 6 7 7 11 8 8 9 10 10 9 11 12 12 14 13
REMARK SMILES IDX 13 14
REMARK H PARENT
REMARK Flexibility Score: inf
ROOT
ATOM      1  C   UNL     1       5.744   1.404  -0.258  1.00  0.00     0.080 C 
ENDROOT
BRANCH   1   2
ATOM      2  C   UNL     1       5.101   1.268   1.079  1.00  0.00     0.130 C 
ATOM      3  C   UNL     1       5.377   0.104   1.963  1.00  0.00     0.087 C 
ATOM      4  O   UNL     1       4.324   2.115   1.489  1.00  0.00    -0.300 OA
ENDBRANCH   1   2
BRANCH   1   5
ATOM      5  C   UNL     1       7.235   1.142  -0.182  1.00  0.00     0.043 C 
BRANCH   5   6
ATOM      6  C   UNL     1       7.596  -0.148  -0.796  1.00  0.00    -0.044 A 
ATOM      7  C   UNL     1       7.638  -0.312  -2.185  1.00  0.00     0.008 A 
ATOM      8  C   UNL     1       7.903  -1.223   0.006  1.00  0.00     0.054 A 
ATOM      9  C   UNL     1       7.985  -1.546  -2.705  1.00  0.00     0.051 A 
ATOM     10  C   UNL     1       8.253  -2.468  -0.524  1.00  0.00     0.166 A 
ATOM     11  C   UNL     1       8.294  -2.631  -1.891  1.00  0.00     0.165 A 
ATOM     12  O   UNL     1       8.595  -3.673   0.053  1.00  0.00    -0.454 OA
ATOM     13  O   UNL     1       8.665  -3.945  -2.128  1.00  0.00    -0.454 OA
ATOM     14  C   UNL     1       8.954  -4.616  -0.924  1.00  0.00     0.468 C 
ENDBRANCH   5   6
ENDBRANCH   1   5
TORSDOF 3
ENDMDL
MODEL 3
REMARK VINA RESULT:      -7.1      2.089      2.638
REMARK SMILES CC(=O)CCc1ccc2c(c1)OCO2
REMARK SMILES IDX 4 1 2 2 1 3 3 4 5 5 6 6 7 7 11 8 8 9 10 10 9 11 12 12 14 13
REMARK SMILES IDX 13 14
REMARK H PARENT
REMARK Flexibility Score: inf
ROOT
ATOM      1  C   UNL     1       5.519  -0.028   1.941  1.00  0.00     0.080 C 
ENDROOT
BRANCH   1   2
ATOM      2  C   UNL     1       4.658   1.149   1.636  1.00  0.00     0.130 C 
ATOM      3  C   UNL     1       4.975   2.077   0.518  1.00  0.00     0.087 C 
ATOM      4  O   UNL     1       3.662   1.386   2.300  1.00  0.00    -0.300 OA
ENDBRANCH   1   2
BRANCH   1   5
ATOM      5  C   UNL     1       6.950   0.206   1.499  1.00  0.00     0.043 C 
BRANCH   5   6
ATOM      6  C   UNL     1       7.362  -0.747   0.454  1.00  0.00    -0.044 A 
ATOM      7  C   UNL     1       7.249  -0.437  -0.907  1.00  0.00     0.008 A 
ATOM      8  C   UNL     1       7.873  -1.974   0.812  1.00  0.00     0.054 A 
ATOM      9  C   UNL     1       7.652  -1.371  -1.844  1.00  0.00     0.051 A 
ATOM     10  C   UNL     1       8.280  -2.914  -0.140  1.00  0.00     0.166 A 
ATOM     11  C   UNL     1       8.168  -2.610  -1.478  1.00  0.00     0.165 A 
ATOM     12  O   UNL     1       8.811  -4.183  -0.040  1.00  0.00    -0.454 OA
ATOM     13  O   UNL     1       8.639  -3.709  -2.179  1.00  0.00    -0.454 OA
ATOM     14  C   UNL     1       9.141  -4.693  -1.306  1.00  0.00     0.468 C 
ENDBRANCH   5   6
ENDBRANCH   1   5
TORSDOF 3
ENDMDL
MODEL 4
REMARK VINA RESULT:      -7.0      1.248      1.442
REMARK SMILES CC(=O)CCc1ccc2c(c1)OCO2
REMARK SMILES IDX 4 1 2 2 1 3 3 4 5 5 6 6 7 7 11 8 8 9 10 10 9 11 12 12 14 13
REMARK SMILES IDX 13 14
REMARK H PARENT
REMARK Flexibility Score: inf
ROOT
ATOM      1  C   UNL     1       6.383   1.177   0.972  1.00  0.00     0.080 C 
ENDROOT
BRANCH   1   2
ATOM      2  C   UNL     1       5.678   0.319   1.965  1.00  0.00     0.130 C 
ATOM      3  C   UNL     1       6.308  -0.906   2.526  1.00  0.00     0.087 C 
ATOM      4  O   UNL     1       4.554   0.600   2.349  1.00  0.00    -0.300 OA
ENDBRANCH   1   2
BRANCH   1   5
ATOM      5  C   UNL     1       5.867   0.931  -0.432  1.00  0.00     0.043 C 
BRANCH   5   6
ATOM      6  C   UNL     1       6.804   0.114  -1.223  1.00  0.00    -0.044 A 
ATOM      7  C   UNL     1       7.466   0.634  -2.342  1.00  0.00     0.008 A 
ATOM      8  C   UNL     1       7.043  -1.193  -0.862  1.00  0.00     0.054 A 
ATOM      9  C   UNL     1       8.335  -0.180  -3.045  1.00  0.00     0.051 A 
ATOM     10  C   UNL     1       7.924  -2.011  -1.576  1.00  0.00     0.166 A 
ATOM     11  C   UNL     1       8.574  -1.501  -2.677  1.00  0.00     0.165 A 
ATOM     12  O   UNL     1       8.324  -3.321  -1.421  1.00  0.00    -0.454 OA
ATOM     13  O   UNL     1       9.370  -2.518  -3.180  1.00  0.00    -0.454 OA
ATOM     14  C   UNL     1       9.311  -3.661  -2.361  1.00  0.00     0.468 C 
ENDBRANCH   5   6
ENDBRANCH   1   5
TORSDOF 3
ENDMDL
MODEL 5
REMARK VINA RESULT:      -6.8      1.202      5.215
REMARK SMILES CC(=O)CCc1ccc2c(c1)OCO2
REMARK SMILES IDX 4 1 2 2 1 3 3 4 5 5 6 6 7 7 11 8 8 9 10 10 9 11 12 12 14 13
REMARK SMILES IDX 13 14
REMARK H PARENT
REMARK Flexibility Score: inf
ROOT
ATOM      1  C   UNL     1       8.324   0.250  -2.527  1.00  0.00     0.080 C 
ENDROOT
BRANCH   1   2
ATOM      2  C   UNL     1       8.004  -1.194  -2.700  1.00  0.00     0.130 C 
ATOM      3  C   UNL     1       9.062  -2.198  -2.994  1.00  0.00     0.087 C 
ATOM      4  O   UNL     1       6.856  -1.598  -2.605  1.00  0.00    -0.300 OA
ENDBRANCH   1   2
BRANCH   1   5
ATOM      5  C   UNL     1       8.817   0.540  -1.123  1.00  0.00     0.043 C 
BRANCH   5   6
ATOM      6  C   UNL     1       7.744   0.389  -0.124  1.00  0.00    -0.044 A 
ATOM      7  C   UNL     1       7.765  -0.640   0.825  1.00  0.00     0.008 A 
ATOM      8  C   UNL     1       6.691   1.276  -0.114  1.00  0.00     0.054 A 
ATOM      9  C   UNL     1       6.730  -0.732   1.738  1.00  0.00     0.051 A 
ATOM     10  C   UNL     1       5.648   1.179   0.812  1.00  0.00     0.166 A 
ATOM     11  C   UNL     1       5.668   0.167   1.745  1.00  0.00     0.165 A 
ATOM     12  O   UNL     1       4.508   1.925   1.024  1.00  0.00    -0.454 OA
ATOM     13  O   UNL     1       4.528   0.314   2.519  1.00  0.00    -0.454 OA
ATOM     14  C   UNL     1       3.811   1.469   2.155  1.00  0.00     0.468 C 
ENDBRANCH   5   6
ENDBRANCH   1   5
TORSDOF 3
ENDMDL
