@<TRIPOS>MOLECULE
/home/cewinharhar/GITHUB/reincatalyze/data/processed/docking_pred/2023-May-22-2206_sub9_nm5_bs15_s42_ex16_mel10_mts10000_k50_ec02_g099_lra9e-4_lrc1e-3/306d1dfeb5e1085b4f3e24b09348dc81ae645662_ligand_9.pdbqt
 14 15 0 0 0
SMALL
GASTEIGER

@<TRIPOS>ATOM
      1  C          5.5110    1.9070    1.2690 C.3     1  UNL1        0.0800
      2  C          5.0650    0.6870    1.9980 C.2     1  UNL1        0.1300
      3  C          5.9440   -0.5040    2.1380 C.3     1  UNL1        0.0870
      4  O          3.9560    0.6300    2.5050 O.2     1  UNL1       -0.3000
      5  C          5.3890    1.7270   -0.2310 C.3     1  UNL1        0.0430
      6  C          6.5580    1.0280   -0.7940 C.2     1  UNL1       -0.0440
      7  C          7.8630    1.4680   -0.5500 C.2     1  UNL1        0.0080
      8  C          6.3730   -0.0880   -1.5790 C.2     1  UNL1        0.0540
      9  C          8.9220    0.7720   -1.1040 C.2     1  UNL1        0.0510
     10  C          7.4460   -0.7890   -2.1370 C.2     1  UNL1        0.1660
     11  C          8.7310   -0.3560   -1.8980 C.2     1  UNL1        0.1650
     12  O          7.5220   -1.9080   -2.9390 O.2     1  UNL1       -0.4540
     13  O          9.5780   -1.2270   -2.5640 O.2     1  UNL1       -0.4540
     14  C          8.8590   -2.2790   -3.1620 C.3     1  UNL1        0.4680
@<TRIPOS>BOND
     1    14    12    1
     2    14    13    1
     3    12    10    1
     4    13    11    1
     5    10    11    2
     6    10     8    1
     7    11     9    1
     8     8     6    2
     9     9     7    2
    10     6     7    1
    11     6     5    1
    12     5     1    1
    13     1     2    1
    14     2     3    1
    15     2     4    2
