@<TRIPOS>MOLECULE
/home/cewinharhar/GITHUB/reincatalyze/data/processed/docking_pred/2023-May-22-2206_sub9_nm5_bs15_s42_ex16_mel10_mts10000_k50_ec02_g099_lra9e-4_lrc1e-3/31018d4d3337f577513d0037205f1d699057d88b_ligand_9.pdbqt
 14 15 0 0 0
SMALL
GASTEIGER

@<TRIPOS>ATOM
      1  C          5.4960    1.9330    1.2590 C.3     1  UNL1        0.0800
      2  C          5.0510    0.7180    1.9970 C.2     1  UNL1        0.1300
      3  C          5.9290   -0.4750    2.1370 C.3     1  UNL1        0.0870
      4  O          3.9460    0.6660    2.5110 O.2     1  UNL1       -0.3000
      5  C          5.3770    1.7410   -0.2400 C.3     1  UNL1        0.0430
      6  C          6.5500    1.0420   -0.7960 C.2     1  UNL1       -0.0440
      7  C          7.8540    1.4770   -0.5350 C.2     1  UNL1        0.0080
      8  C          6.3690   -0.0680   -1.5890 C.2     1  UNL1        0.0540
      9  C          8.9160    0.7810   -1.0830 C.2     1  UNL1        0.0510
     10  C          7.4460   -0.7690   -2.1410 C.2     1  UNL1        0.1660
     11  C          8.7290   -0.3410   -1.8860 C.2     1  UNL1        0.1650
     12  O          7.5260   -1.8830   -2.9490 O.2     1  UNL1       -0.4540
     13  O          9.5810   -1.2100   -2.5490 O.2     1  UNL1       -0.4540
     14  C          8.8640   -2.2560   -3.1610 C.3     1  UNL1        0.4680
@<TRIPOS>BOND
     1    14    12    1
     2    14    13    1
     3    12    10    1
     4    13    11    1
     5    10    11    2
     6    10     8    1
     7    11     9    1
     8     8     6    2
     9     9     7    2
    10     6     7    1
    11     6     5    1
    12     5     1    1
    13     1     2    1
    14     2     3    1
    15     2     4    2
