@<TRIPOS>MOLECULE
/home/cewinharhar/GITHUB/reincatalyze/data/processed/docking_pred/2023-May-22-2206_sub9_nm5_bs15_s42_ex16_mel10_mts10000_k50_ec02_g099_lra9e-4_lrc1e-3/3109bb1a4c888d48ff6ee722b945383cff227a99_ligand_9.pdbqt
 14 15 0 0 0
SMALL
GASTEIGER

@<TRIPOS>ATOM
      1  C          6.3690    1.1880    0.9660 C.3     1  UNL1        0.0800
      2  C          5.6770    0.3340    1.9710 C.2     1  UNL1        0.1300
      3  C          6.3230   -0.8770    2.5430 C.3     1  UNL1        0.0870
      4  O          4.5520    0.6070    2.3560 O.2     1  UNL1       -0.3000
      5  C          5.8530    0.9190   -0.4340 C.3     1  UNL1        0.0430
      6  C          6.7950    0.0960   -1.2140 C.2     1  UNL1       -0.0440
      7  C          7.4540    0.6040   -2.3390 C.2     1  UNL1        0.0080
      8  C          7.0410   -1.2040   -0.8350 C.2     1  UNL1        0.0540
      9  C          8.3270   -0.2150   -3.0320 C.2     1  UNL1        0.0510
     10  C          7.9250   -2.0280   -1.5380 C.2     1  UNL1        0.1660
     11  C          8.5730   -1.5290   -2.6460 C.2     1  UNL1        0.1650
     12  O          8.3310   -3.3340   -1.3650 O.2     1  UNL1       -0.4540
     13  O          9.3740   -2.5490   -3.1350 O.2     1  UNL1       -0.4540
     14  C          9.3200   -3.6820   -2.3010 C.3     1  UNL1        0.4680
@<TRIPOS>BOND
     1    13    11    1
     2    13    14    1
     3     9    11    2
     4     9     7    1
     5    11    10    1
     6     7     6    2
     7    14    12    1
     8    10    12    1
     9    10     8    2
    10     6     8    1
    11     6     5    1
    12     5     1    1
    13     1     2    1
    14     2     4    2
    15     2     3    1
