@<TRIPOS>MOLECULE
/home/cewinharhar/GITHUB/reincatalyze/data/processed/docking_pred/2023-May-22-2206_sub9_nm5_bs15_s42_ex16_mel10_mts10000_k50_ec02_g099_lra9e-4_lrc1e-3/3109bb1a4c888d48ff6ee722b945383cff227a99_ligand_9.pdbqt
 14 15 0 0 0
SMALL
GASTEIGER

@<TRIPOS>ATOM
      1  C          5.5110    1.9090    1.2740 C.3     1  UNL1        0.0800
      2  C          5.0640    0.6920    2.0070 C.2     1  UNL1        0.1300
      3  C          5.9450   -0.4980    2.1530 C.3     1  UNL1        0.0870
      4  O          3.9550    0.6350    2.5120 O.2     1  UNL1       -0.3000
      5  C          5.3890    1.7250   -0.2250 C.3     1  UNL1        0.0430
      6  C          6.5590    1.0250   -0.7860 C.2     1  UNL1       -0.0440
      7  C          7.8650    1.4560   -0.5270 C.2     1  UNL1        0.0080
      8  C          6.3740   -0.0810   -1.5840 C.2     1  UNL1        0.0540
      9  C          8.9240    0.7600   -1.0800 C.2     1  UNL1        0.0510
     10  C          7.4480   -0.7820   -2.1400 C.2     1  UNL1        0.1660
     11  C          8.7330   -0.3580   -1.8860 C.2     1  UNL1        0.1650
     12  O          7.5250   -1.8930   -2.9530 O.2     1  UNL1       -0.4540
     13  O          9.5810   -1.2270   -2.5550 O.2     1  UNL1       -0.4540
     14  C          8.8610   -2.2690   -3.1690 C.3     1  UNL1        0.4680
@<TRIPOS>BOND
     1    14    12    1
     2    14    13    1
     3    12    10    1
     4    13    11    1
     5    10    11    2
     6    10     8    1
     7    11     9    1
     8     8     6    2
     9     9     7    2
    10     6     7    1
    11     6     5    1
    12     5     1    1
    13     1     2    1
    14     2     3    1
    15     2     4    2
