MODEL 1
REMARK VINA RESULT:      -7.7      0.000      0.000
REMARK SMILES CC(=O)CCc1ccc2c(c1)OCO2
REMARK SMILES IDX 4 1 2 2 1 3 3 4 5 5 6 6 7 7 11 8 8 9 10 10 9 11 12 12 14 13
REMARK SMILES IDX 13 14
REMARK H PARENT
REMARK Flexibility Score: inf
ROOT
ATOM      1  C   UNL     1       5.511   1.909   1.274  1.00  0.00     0.080 C 
ENDROOT
BRANCH   1   2
ATOM      2  C   UNL     1       5.064   0.692   2.007  1.00  0.00     0.130 C 
ATOM      3  C   UNL     1       5.945  -0.498   2.153  1.00  0.00     0.087 C 
ATOM      4  O   UNL     1       3.955   0.635   2.512  1.00  0.00    -0.300 OA
ENDBRANCH   1   2
BRANCH   1   5
ATOM      5  C   UNL     1       5.389   1.725  -0.225  1.00  0.00     0.043 C 
BRANCH   5   6
ATOM      6  C   UNL     1       6.559   1.025  -0.786  1.00  0.00    -0.044 A 
ATOM      7  C   UNL     1       7.865   1.456  -0.527  1.00  0.00     0.008 A 
ATOM      8  C   UNL     1       6.374  -0.081  -1.584  1.00  0.00     0.054 A 
ATOM      9  C   UNL     1       8.924   0.760  -1.080  1.00  0.00     0.051 A 
ATOM     10  C   UNL     1       7.448  -0.782  -2.140  1.00  0.00     0.166 A 
ATOM     11  C   UNL     1       8.733  -0.358  -1.886  1.00  0.00     0.165 A 
ATOM     12  O   UNL     1       7.525  -1.893  -2.953  1.00  0.00    -0.454 OA
ATOM     13  O   UNL     1       9.581  -1.227  -2.555  1.00  0.00    -0.454 OA
ATOM     14  C   UNL     1       8.861  -2.269  -3.169  1.00  0.00     0.468 C 
ENDBRANCH   5   6
ENDBRANCH   1   5
TORSDOF 3
ENDMDL
MODEL 2
REMARK VINA RESULT:      -7.5      1.927      2.379
REMARK SMILES CC(=O)CCc1ccc2c(c1)OCO2
REMARK SMILES IDX 4 1 2 2 1 3 3 4 5 5 6 6 7 7 11 8 8 9 10 10 9 11 12 12 14 13
REMARK SMILES IDX 13 14
REMARK H PARENT
REMARK Flexibility Score: inf
ROOT
ATOM      1  C   UNL     1       5.762   1.415  -0.304  1.00  0.00     0.080 C 
ENDROOT
BRANCH   1   2
ATOM      2  C   UNL     1       5.091   1.312   1.022  1.00  0.00     0.130 C 
ATOM      3  C   UNL     1       5.403   0.211   1.972  1.00  0.00     0.087 C 
ATOM      4  O   UNL     1       4.260   2.135   1.369  1.00  0.00    -0.300 OA
ENDBRANCH   1   2
BRANCH   1   5
ATOM      5  C   UNL     1       7.248   1.137  -0.192  1.00  0.00     0.043 C 
BRANCH   5   6
ATOM      6  C   UNL     1       7.612  -0.150  -0.810  1.00  0.00    -0.044 A 
ATOM      7  C   UNL     1       7.676  -0.304  -2.199  1.00  0.00     0.008 A 
ATOM      8  C   UNL     1       7.900  -1.233  -0.011  1.00  0.00     0.054 A 
ATOM      9  C   UNL     1       8.024  -1.536  -2.723  1.00  0.00     0.051 A 
ATOM     10  C   UNL     1       8.252  -2.476  -0.545  1.00  0.00     0.166 A 
ATOM     11  C   UNL     1       8.314  -2.629  -1.912  1.00  0.00     0.165 A 
ATOM     12  O   UNL     1       8.578  -3.687   0.029  1.00  0.00    -0.454 OA
ATOM     13  O   UNL     1       8.682  -3.944  -2.152  1.00  0.00    -0.454 OA
ATOM     14  C   UNL     1       8.947  -4.625  -0.949  1.00  0.00     0.468 C 
ENDBRANCH   5   6
ENDBRANCH   1   5
TORSDOF 3
ENDMDL
MODEL 3
REMARK VINA RESULT:      -7.2      2.059      2.624
REMARK SMILES CC(=O)CCc1ccc2c(c1)OCO2
REMARK SMILES IDX 4 1 2 2 1 3 3 4 5 5 6 6 7 7 11 8 8 9 10 10 9 11 12 12 14 13
REMARK SMILES IDX 13 14
REMARK H PARENT
REMARK Flexibility Score: inf
ROOT
ATOM      1  C   UNL     1       5.433  -0.046   1.992  1.00  0.00     0.080 C 
ENDROOT
BRANCH   1   2
ATOM      2  C   UNL     1       4.578   1.148   1.746  1.00  0.00     0.130 C 
ATOM      3  C   UNL     1       4.886   2.121   0.665  1.00  0.00     0.087 C 
ATOM      4  O   UNL     1       3.591   1.364   2.432  1.00  0.00    -0.300 OA
ENDBRANCH   1   2
BRANCH   1   5
ATOM      5  C   UNL     1       6.865   0.205   1.561  1.00  0.00     0.043 C 
BRANCH   5   6
ATOM      6  C   UNL     1       7.288  -0.728   0.501  1.00  0.00    -0.044 A 
ATOM      7  C   UNL     1       7.153  -0.408  -0.855  1.00  0.00     0.008 A 
ATOM      8  C   UNL     1       7.832  -1.946   0.841  1.00  0.00     0.054 A 
ATOM      9  C   UNL     1       7.569  -1.323  -1.805  1.00  0.00     0.051 A 
ATOM     10  C   UNL     1       8.250  -2.867  -0.123  1.00  0.00     0.166 A 
ATOM     11  C   UNL     1       8.117  -2.553  -1.457  1.00  0.00     0.165 A 
ATOM     12  O   UNL     1       8.812  -4.124  -0.041  1.00  0.00    -0.454 OA
ATOM     13  O   UNL     1       8.606  -3.634  -2.174  1.00  0.00    -0.454 OA
ATOM     14  C   UNL     1       9.140  -4.614  -1.316  1.00  0.00     0.468 C 
ENDBRANCH   5   6
ENDBRANCH   1   5
TORSDOF 3
ENDMDL
MODEL 4
REMARK VINA RESULT:      -7.1      1.269      1.481
REMARK SMILES CC(=O)CCc1ccc2c(c1)OCO2
REMARK SMILES IDX 4 1 2 2 1 3 3 4 5 5 6 6 7 7 11 8 8 9 10 10 9 11 12 12 14 13
REMARK SMILES IDX 13 14
REMARK H PARENT
REMARK Flexibility Score: inf
ROOT
ATOM      1  C   UNL     1       6.369   1.188   0.966  1.00  0.00     0.080 C 
ENDROOT
BRANCH   1   2
ATOM      2  C   UNL     1       5.677   0.334   1.971  1.00  0.00     0.130 C 
ATOM      3  C   UNL     1       6.323  -0.877   2.543  1.00  0.00     0.087 C 
ATOM      4  O   UNL     1       4.552   0.607   2.356  1.00  0.00    -0.300 OA
ENDBRANCH   1   2
BRANCH   1   5
ATOM      5  C   UNL     1       5.853   0.919  -0.434  1.00  0.00     0.043 C 
BRANCH   5   6
ATOM      6  C   UNL     1       6.795   0.096  -1.214  1.00  0.00    -0.044 A 
ATOM      7  C   UNL     1       7.454   0.604  -2.339  1.00  0.00     0.008 A 
ATOM      8  C   UNL     1       7.041  -1.204  -0.835  1.00  0.00     0.054 A 
ATOM      9  C   UNL     1       8.327  -0.215  -3.032  1.00  0.00     0.051 A 
ATOM     10  C   UNL     1       7.925  -2.028  -1.538  1.00  0.00     0.166 A 
ATOM     11  C   UNL     1       8.573  -1.529  -2.646  1.00  0.00     0.165 A 
ATOM     12  O   UNL     1       8.331  -3.334  -1.365  1.00  0.00    -0.454 OA
ATOM     13  O   UNL     1       9.374  -2.549  -3.135  1.00  0.00    -0.454 OA
ATOM     14  C   UNL     1       9.320  -3.682  -2.301  1.00  0.00     0.468 C 
ENDBRANCH   5   6
ENDBRANCH   1   5
TORSDOF 3
ENDMDL
MODEL 5
REMARK VINA RESULT:      -7.1      1.997      2.553
REMARK SMILES CC(=O)CCc1ccc2c(c1)OCO2
REMARK SMILES IDX 4 1 2 2 1 3 3 4 5 5 6 6 7 7 11 8 8 9 10 10 9 11 12 12 14 13
REMARK SMILES IDX 13 14
REMARK H PARENT
REMARK Flexibility Score: inf
ROOT
ATOM      1  C   UNL     1       6.793   0.811   1.394  1.00  0.00     0.080 C 
ENDROOT
BRANCH   1   2
ATOM      2  C   UNL     1       5.344   1.147   1.471  1.00  0.00     0.130 C 
ATOM      3  C   UNL     1       4.726   2.149   0.562  1.00  0.00     0.087 C 
ATOM      4  O   UNL     1       4.618   0.606   2.289  1.00  0.00    -0.300 OA
ENDBRANCH   1   2
BRANCH   1   5
ATOM      5  C   UNL     1       7.332   1.015  -0.009  1.00  0.00     0.043 C 
BRANCH   5   6
ATOM      6  C   UNL     1       7.644  -0.267  -0.666  1.00  0.00    -0.044 A 
ATOM      7  C   UNL     1       7.583  -0.412  -2.056  1.00  0.00     0.008 A 
ATOM      8  C   UNL     1       8.009  -1.354   0.097  1.00  0.00     0.054 A 
ATOM      9  C   UNL     1       7.888  -1.639  -2.617  1.00  0.00     0.051 A 
ATOM     10  C   UNL     1       8.317  -2.592  -0.475  1.00  0.00     0.166 A 
ATOM     11  C   UNL     1       8.255  -2.735  -1.843  1.00  0.00     0.165 A 
ATOM     12  O   UNL     1       8.699  -3.804   0.059  1.00  0.00    -0.454 OA
ATOM     13  O   UNL     1       8.606  -4.047  -2.124  1.00  0.00    -0.454 OA
ATOM     14  C   UNL     1       8.983  -4.734  -0.955  1.00  0.00     0.468 C 
ENDBRANCH   5   6
ENDBRANCH   1   5
TORSDOF 3
ENDMDL
