@<TRIPOS>MOLECULE
/home/cewinharhar/GITHUB/reincatalyze/data/processed/docking_pred/2023-May-22-2206_sub9_nm5_bs15_s42_ex16_mel10_mts10000_k50_ec02_g099_lra9e-4_lrc1e-3/3110d36e974f17e9d190d2a4a051583463654b40_ligand_9.pdbqt
 14 15 0 0 0
SMALL
GASTEIGER

@<TRIPOS>ATOM
      1  C          5.8380    1.2980   -0.3200 C.3     1  UNL1        0.0800
      2  C          5.2840    1.1890    1.0580 C.2     1  UNL1        0.1300
      3  C          5.3410   -0.0840    1.8250 C.3     1  UNL1        0.0870
      4  O          4.7620    2.1490    1.6010 O.2     1  UNL1       -0.3000
      5  C          7.3330    1.0490   -0.3340 C.3     1  UNL1        0.0430
      6  C          7.6640   -0.2610   -0.9210 C.2     1  UNL1       -0.0440
      7  C          7.6760   -0.4620   -2.3060 C.2     1  UNL1        0.0080
      8  C          7.9730   -1.3200   -0.0970 C.2     1  UNL1        0.0540
      9  C          7.9950   -1.7130   -2.8000 C.2     1  UNL1        0.0510
     10  C          8.2950   -2.5830   -0.6020 C.2     1  UNL1        0.1660
     11  C          8.3060   -2.7810   -1.9640 C.2     1  UNL1        0.1650
     12  O          8.6320   -3.7770   -0.0000 O.2     1  UNL1       -0.4540
     13  O          8.6550   -4.1070   -2.1740 O.2     1  UNL1       -0.4540
     14  C          8.9590   -4.7500   -0.9590 C.3     1  UNL1        0.4680
@<TRIPOS>BOND
     1     9     7    1
     2     9    11    2
     3     7     6    2
     4    13    11    1
     5    13    14    1
     6    11    10    1
     7    14    12    1
     8     6     5    1
     9     6     8    1
    10    10     8    2
    11    10    12    1
    12     5     1    1
    13     1     2    1
    14     2     4    2
    15     2     3    1
