@<TRIPOS>MOLECULE
/home/cewinharhar/GITHUB/reincatalyze/data/processed/docking_pred/2023-May-22-2206_sub9_nm5_bs15_s42_ex16_mel10_mts10000_k50_ec02_g099_lra9e-4_lrc1e-3/3110d36e974f17e9d190d2a4a051583463654b40_ligand_9.pdbqt
 14 15 0 0 0
SMALL
GASTEIGER

@<TRIPOS>ATOM
      1  C          5.5780    1.8930    1.3060 C.3     1  UNL1        0.0800
      2  C          5.1240    0.6730    2.0300 C.2     1  UNL1        0.1300
      3  C          6.0100   -0.5110    2.1970 C.3     1  UNL1        0.0870
      4  O          4.0040    0.6090    2.5100 O.2     1  UNL1       -0.3000
      5  C          5.4400    1.7260   -0.1940 C.3     1  UNL1        0.0430
      6  C          6.5980    1.0230   -0.7750 C.2     1  UNL1       -0.0440
      7  C          7.9090    1.4570   -0.5470 C.2     1  UNL1        0.0080
      8  C          6.3980   -0.0900   -1.5590 C.2     1  UNL1        0.0540
      9  C          8.9560    0.7570   -1.1170 C.2     1  UNL1        0.0510
     10  C          7.4600   -0.7940   -2.1330 C.2     1  UNL1        0.1660
     11  C          8.7500   -0.3670   -1.9100 C.2     1  UNL1        0.1650
     12  O          7.5210   -1.9120   -2.9390 O.2     1  UNL1       -0.4540
     13  O          9.5850   -1.2400   -2.5900 O.2     1  UNL1       -0.4540
     14  C          8.8520   -2.2870   -3.1810 C.3     1  UNL1        0.4680
@<TRIPOS>BOND
     1    14    12    1
     2    14    13    1
     3    12    10    1
     4    13    11    1
     5    10    11    2
     6    10     8    1
     7    11     9    1
     8     8     6    2
     9     9     7    2
    10     6     7    1
    11     6     5    1
    12     5     1    1
    13     1     2    1
    14     2     3    1
    15     2     4    2
