@<TRIPOS>MOLECULE
/home/cewinharhar/GITHUB/reincatalyze/data/processed/docking_pred/2023-May-22-2206_sub9_nm5_bs15_s42_ex16_mel10_mts10000_k50_ec02_g099_lra9e-4_lrc1e-3/3110d36e974f17e9d190d2a4a051583463654b40_ligand_9.pdbqt
 14 15 0 0 0
SMALL
GASTEIGER

@<TRIPOS>ATOM
      1  C          8.5720    0.2450   -2.5990 C.3     1  UNL1        0.0800
      2  C          8.4970   -1.2340   -2.7590 C.2     1  UNL1        0.1300
      3  C          7.1940   -1.9450   -2.8440 C.3     1  UNL1        0.0870
      4  O          9.5120   -1.9090   -2.8250 O.2     1  UNL1       -0.3000
      5  C          9.0300    0.6250   -1.2040 C.3     1  UNL1        0.0430
      6  C          7.9560    0.4510   -0.2100 C.2     1  UNL1       -0.0440
      7  C          8.0070   -0.5620    0.7540 C.2     1  UNL1        0.0080
      8  C          6.8740    1.3010   -0.2200 C.2     1  UNL1        0.0540
      9  C          6.9710   -0.6770    1.6620 C.2     1  UNL1        0.0510
     10  C          5.8280    1.1810    0.7010 C.2     1  UNL1        0.1660
     11  C          5.8770    0.1830    1.6500 C.2     1  UNL1        0.1650
     12  O          4.6610    1.8890    0.8950 O.2     1  UNL1       -0.4540
     13  O          4.7280    0.3020    2.4150 O.2     1  UNL1       -0.4540
     14  C          3.9730    1.4260    2.0290 C.3     1  UNL1        0.4680
@<TRIPOS>BOND
     1     3     2    1
     2     4     2    2
     3     2     1    1
     4     1     5    1
     5     5     6    1
     6     8     6    2
     7     8    10    1
     8     6     7    1
     9    10    12    1
    10    10    11    2
    11     7     9    2
    12    12    14    1
    13    11     9    1
    14    11    13    1
    15    14    13    1
