@<TRIPOS>MOLECULE
/home/cewinharhar/GITHUB/reincatalyze/data/processed/docking_pred/2023-May-22-2206_sub9_nm5_bs15_s42_ex16_mel10_mts10000_k50_ec02_g099_lra9e-4_lrc1e-3/3110d36e974f17e9d190d2a4a051583463654b40_ligand_9.pdbqt
 14 15 0 0 0
SMALL
GASTEIGER

@<TRIPOS>ATOM
      1  C          5.5190    0.0870    2.0280 C.3     1  UNL1        0.0800
      2  C          4.5800    1.2030    1.7280 C.2     1  UNL1        0.1300
      3  C          4.8210    2.1440    0.6020 C.3     1  UNL1        0.0870
      4  O          3.5790    1.3790    2.4030 O.2     1  UNL1       -0.3000
      5  C          6.9080    0.3780    1.4960 C.3     1  UNL1        0.0430
      6  C          7.3110   -0.5910    0.4610 C.2     1  UNL1       -0.0440
      7  C          7.1750   -0.3060   -0.9020 C.2     1  UNL1        0.0080
      8  C          7.8380   -1.8070    0.8330 C.2     1  UNL1        0.0540
      9  C          7.5710   -1.2540   -1.8290 C.2     1  UNL1        0.0510
     10  C          8.2370   -2.7610   -0.1070 C.2     1  UNL1        0.1660
     11  C          8.1020   -2.4830   -1.4490 C.2     1  UNL1        0.1650
     12  O          8.7800   -4.0240    0.0070 O.2     1  UNL1       -0.4540
     13  O          8.5710   -3.5900   -2.1380 O.2     1  UNL1       -0.4540
     14  C          9.0940   -4.5540   -1.2550 C.3     1  UNL1        0.4680
@<TRIPOS>BOND
     1    13    11    1
     2    13    14    1
     3     9    11    2
     4     9     7    1
     5    11    10    1
     6    14    12    1
     7     7     6    2
     8    10    12    1
     9    10     8    2
    10     6     8    1
    11     6     5    1
    12     3     2    1
    13     5     1    1
    14     2     1    1
    15     2     4    2
