@<TRIPOS>MOLECULE
/home/cewinharhar/GITHUB/reincatalyze/data/processed/docking_pred/2023-May-22-2206_sub9_nm5_bs15_s42_ex16_mel10_mts10000_k50_ec02_g099_lra9e-4_lrc1e-3/31638bda67923b1bb66f4f033a77b51352de91e4_ligand_9.pdbqt
 14 15 0 0 0
SMALL
GASTEIGER

@<TRIPOS>ATOM
      1  C          6.7930    0.8110    1.3940 C.3     1  UNL1        0.0800
      2  C          5.3440    1.1470    1.4710 C.2     1  UNL1        0.1300
      3  C          4.7260    2.1490    0.5620 C.3     1  UNL1        0.0870
      4  O          4.6180    0.6060    2.2890 O.2     1  UNL1       -0.3000
      5  C          7.3320    1.0150   -0.0090 C.3     1  UNL1        0.0430
      6  C          7.6440   -0.2670   -0.6660 C.2     1  UNL1       -0.0440
      7  C          7.5830   -0.4120   -2.0560 C.2     1  UNL1        0.0080
      8  C          8.0090   -1.3540    0.0970 C.2     1  UNL1        0.0540
      9  C          7.8880   -1.6390   -2.6170 C.2     1  UNL1        0.0510
     10  C          8.3170   -2.5920   -0.4750 C.2     1  UNL1        0.1660
     11  C          8.2550   -2.7350   -1.8430 C.2     1  UNL1        0.1650
     12  O          8.6990   -3.8040    0.0590 O.2     1  UNL1       -0.4540
     13  O          8.6060   -4.0470   -2.1240 O.2     1  UNL1       -0.4540
     14  C          8.9830   -4.7340   -0.9550 C.3     1  UNL1        0.4680
@<TRIPOS>BOND
     1     9     7    1
     2     9    11    2
     3    13    11    1
     4    13    14    1
     5     7     6    2
     6    11    10    1
     7    14    12    1
     8     6     5    1
     9     6     8    1
    10    10    12    1
    11    10     8    2
    12     5     1    1
    13     3     2    1
    14     1     2    1
    15     2     4    2
