@<TRIPOS>MOLECULE
/home/cewinharhar/GITHUB/reincatalyze/data/processed/docking_pred/2023-May-22-2206_sub9_nm5_bs15_s42_ex16_mel10_mts10000_k50_ec02_g099_lra9e-4_lrc1e-3/31de0aabf4a391366091aaa04775d5537fef7eaf_ligand_9.pdbqt
 14 15 0 0 0
SMALL
GASTEIGER

@<TRIPOS>ATOM
      1  C          5.7260    1.2950   -0.2730 C.3     1  UNL1        0.0800
      2  C          5.1200    1.2390    1.0860 C.2     1  UNL1        0.1300
      3  C          5.3400    0.0790    1.9920 C.3     1  UNL1        0.0870
      4  O          4.4200    2.1490    1.4990 O.2     1  UNL1       -0.3000
      5  C          7.2240    1.0690   -0.2180 C.3     1  UNL1        0.0430
      6  C          7.6060   -0.2140   -0.8350 C.2     1  UNL1       -0.0440
      7  C          7.6820   -0.3660   -2.2240 C.2     1  UNL1        0.0080
      8  C          7.8980   -1.2960   -0.0350 C.2     1  UNL1        0.0540
      9  C          8.0470   -1.5930   -2.7460 C.2     1  UNL1        0.0510
     10  C          8.2670   -2.5340   -0.5680 C.2     1  UNL1        0.1660
     11  C          8.3420   -2.6850   -1.9350 C.2     1  UNL1        0.1650
     12  O          8.6010   -3.7430    0.0070 O.2     1  UNL1       -0.4540
     13  O          8.7250   -3.9950   -2.1740 O.2     1  UNL1       -0.4540
     14  C          8.9870   -4.6750   -0.9700 C.3     1  UNL1        0.4680
@<TRIPOS>BOND
     1     9     7    1
     2     9    11    2
     3     7     6    2
     4    13    11    1
     5    13    14    1
     6    11    10    1
     7    14    12    1
     8     6     5    1
     9     6     8    1
    10    10     8    2
    11    10    12    1
    12     1     5    1
    13     1     2    1
    14     2     4    2
    15     2     3    1
