@<TRIPOS>MOLECULE
/home/cewinharhar/GITHUB/reincatalyze/data/processed/docking_pred/2023-May-22-2206_sub9_nm5_bs15_s42_ex16_mel10_mts10000_k50_ec02_g099_lra9e-4_lrc1e-3/31de0aabf4a391366091aaa04775d5537fef7eaf_ligand_9.pdbqt
 14 15 0 0 0
SMALL
GASTEIGER

@<TRIPOS>ATOM
      1  C          5.5500    1.9100    1.2810 C.3     1  UNL1        0.0800
      2  C          5.1060    0.6930    2.0160 C.2     1  UNL1        0.1300
      3  C          6.0000   -0.4830    2.1920 C.3     1  UNL1        0.0870
      4  O          3.9860    0.6250    2.4970 O.2     1  UNL1       -0.3000
      5  C          5.4170    1.7270   -0.2180 C.3     1  UNL1        0.0430
      6  C          6.5810    1.0260   -0.7890 C.2     1  UNL1       -0.0440
      7  C          7.8890    1.4610   -0.5460 C.2     1  UNL1        0.0080
      8  C          6.3890   -0.0840   -1.5790 C.2     1  UNL1        0.0540
      9  C          8.9430    0.7630   -1.1080 C.2     1  UNL1        0.0510
     10  C          7.4580   -0.7870   -2.1440 C.2     1  UNL1        0.1660
     11  C          8.7450   -0.3590   -1.9070 C.2     1  UNL1        0.1650
     12  O          7.5270   -1.9010   -2.9520 O.2     1  UNL1       -0.4540
     13  O          9.5870   -1.2300   -2.5800 O.2     1  UNL1       -0.4540
     14  C          8.8620   -2.2760   -3.1810 C.3     1  UNL1        0.4680
@<TRIPOS>BOND
     1    14    12    1
     2    14    13    1
     3    12    10    1
     4    13    11    1
     5    10    11    2
     6    10     8    1
     7    11     9    1
     8     8     6    2
     9     9     7    2
    10     6     7    1
    11     6     5    1
    12     5     1    1
    13     1     2    1
    14     2     3    1
    15     2     4    2
