@<TRIPOS>MOLECULE
/home/cewinharhar/GITHUB/reincatalyze/data/processed/docking_pred/2023-May-22-2206_sub9_nm5_bs15_s42_ex16_mel10_mts10000_k50_ec02_g099_lra9e-4_lrc1e-3/32925d028e6f827171d23f19599134de0355568e_ligand_9.pdbqt
 14 15 0 0 0
SMALL
GASTEIGER

@<TRIPOS>ATOM
      1  C          5.4110   -0.0630    2.0310 C.3     1  UNL1        0.0800
      2  C          4.5520    1.1270    1.7740 C.2     1  UNL1        0.1300
      3  C          4.8840    2.1150    0.7130 C.3     1  UNL1        0.0870
      4  O          3.5450    1.3270    2.4340 O.2     1  UNL1       -0.3000
      5  C          6.8440    0.1920    1.6100 C.3     1  UNL1        0.0430
      6  C          7.2720   -0.7270    0.5400 C.2     1  UNL1       -0.0440
      7  C          7.1480   -0.3870   -0.8120 C.2     1  UNL1        0.0080
      8  C          7.8090   -1.9520    0.8670 C.2     1  UNL1        0.0540
      9  C          7.5670   -1.2900   -1.7720 C.2     1  UNL1        0.0510
     10  C          8.2310   -2.8610   -0.1070 C.2     1  UNL1        0.1660
     11  C          8.1090   -2.5270   -1.4380 C.2     1  UNL1        0.1650
     12  O          8.7880   -4.1200   -0.0390 O.2     1  UNL1       -0.4540
     13  O          8.5990   -3.6000   -2.1660 O.2     1  UNL1       -0.4540
     14  C          9.1230   -4.5930   -1.3180 C.3     1  UNL1        0.4680
@<TRIPOS>BOND
     1    13    11    1
     2    13    14    1
     3     9    11    2
     4     9     7    1
     5    11    10    1
     6    14    12    1
     7     7     6    2
     8    10    12    1
     9    10     8    2
    10     6     8    1
    11     6     5    1
    12     3     2    1
    13     5     1    1
    14     2     1    1
    15     2     4    2
