@<TRIPOS>MOLECULE
/home/cewinharhar/GITHUB/reincatalyze/data/processed/docking_pred/2023-May-22-2206_sub9_nm5_bs15_s42_ex16_mel10_mts10000_k50_ec02_g099_lra9e-4_lrc1e-3/32925d028e6f827171d23f19599134de0355568e_ligand_9.pdbqt
 14 15 0 0 0
SMALL
GASTEIGER

@<TRIPOS>ATOM
      1  C          5.5070    1.9090    1.2690 C.3     1  UNL1        0.0800
      2  C          5.0620    0.6930    2.0060 C.2     1  UNL1        0.1300
      3  C          5.9420   -0.4970    2.1520 C.3     1  UNL1        0.0870
      4  O          3.9540    0.6390    2.5140 O.2     1  UNL1       -0.3000
      5  C          5.3850    1.7190   -0.2300 C.3     1  UNL1        0.0430
      6  C          6.5550    1.0190   -0.7900 C.2     1  UNL1       -0.0440
      7  C          7.8600    1.4550   -0.5360 C.2     1  UNL1        0.0080
      8  C          6.3710   -0.0920   -1.5800 C.2     1  UNL1        0.0540
      9  C          8.9200    0.7580   -1.0870 C.2     1  UNL1        0.0510
     10  C          7.4460   -0.7940   -2.1350 C.2     1  UNL1        0.1660
     11  C          8.7300   -0.3650   -1.8870 C.2     1  UNL1        0.1650
     12  O          7.5230   -1.9100   -2.9420 O.2     1  UNL1       -0.4540
     13  O          9.5790   -1.2360   -2.5520 O.2     1  UNL1       -0.4540
     14  C          8.8600   -2.2830   -3.1590 C.3     1  UNL1        0.4680
@<TRIPOS>BOND
     1    14    12    1
     2    14    13    1
     3    12    10    1
     4    13    11    1
     5    10    11    2
     6    10     8    1
     7    11     9    1
     8     8     6    2
     9     9     7    2
    10     6     7    1
    11     6     5    1
    12     5     1    1
    13     1     2    1
    14     2     3    1
    15     2     4    2
