@<TRIPOS>MOLECULE
/home/cewinharhar/GITHUB/reincatalyze/data/processed/docking_pred/2023-May-22-2206_sub9_nm5_bs15_s42_ex16_mel10_mts10000_k50_ec02_g099_lra9e-4_lrc1e-3/32925d028e6f827171d23f19599134de0355568e_ligand_9.pdbqt
 14 15 0 0 0
SMALL
GASTEIGER

@<TRIPOS>ATOM
      1  C          6.3890    1.1900    0.9490 C.3     1  UNL1        0.0800
      2  C          5.6480    0.3740    1.9520 C.2     1  UNL1        0.1300
      3  C          6.2380   -0.8550    2.5480 C.3     1  UNL1        0.0870
      4  O          4.5280    0.6940    2.3150 O.2     1  UNL1       -0.3000
      5  C          5.8800    0.9310   -0.4550 C.3     1  UNL1        0.0430
      6  C          6.8170    0.1010   -1.2320 C.2     1  UNL1       -0.0440
      7  C          7.4790    0.6020   -2.3590 C.2     1  UNL1        0.0080
      8  C          7.0570   -1.1990   -0.8480 C.2     1  UNL1        0.0540
      9  C          8.3480   -0.2240   -3.0490 C.2     1  UNL1        0.0510
     10  C          7.9370   -2.0290   -1.5480 C.2     1  UNL1        0.1660
     11  C          8.5880   -1.5370   -2.6580 C.2     1  UNL1        0.1650
     12  O          8.3380   -3.3360   -1.3710 O.2     1  UNL1       -0.4540
     13  O          9.3830   -2.5630   -3.1430 O.2     1  UNL1       -0.4540
     14  C          9.3250   -3.6920   -2.3050 C.3     1  UNL1        0.4680
@<TRIPOS>BOND
     1    13    11    1
     2    13    14    1
     3     9    11    2
     4     9     7    1
     5    11    10    1
     6     7     6    2
     7    14    12    1
     8    10    12    1
     9    10     8    2
    10     6     8    1
    11     6     5    1
    12     5     1    1
    13     1     2    1
    14     2     4    2
    15     2     3    1
