MODEL 1
REMARK VINA RESULT:      -7.7      0.000      0.000
REMARK SMILES CC(=O)CCc1ccc2c(c1)OCO2
REMARK SMILES IDX 4 1 2 2 1 3 3 4 5 5 6 6 7 7 11 8 8 9 10 10 9 11 12 12 14 13
REMARK SMILES IDX 13 14
REMARK H PARENT
REMARK Flexibility Score: inf
ROOT
ATOM      1  C   UNL     1       5.507   1.909   1.269  1.00  0.00     0.080 C 
ENDROOT
BRANCH   1   2
ATOM      2  C   UNL     1       5.062   0.693   2.006  1.00  0.00     0.130 C 
ATOM      3  C   UNL     1       5.942  -0.497   2.152  1.00  0.00     0.087 C 
ATOM      4  O   UNL     1       3.954   0.639   2.514  1.00  0.00    -0.300 OA
ENDBRANCH   1   2
BRANCH   1   5
ATOM      5  C   UNL     1       5.385   1.719  -0.230  1.00  0.00     0.043 C 
BRANCH   5   6
ATOM      6  C   UNL     1       6.555   1.019  -0.790  1.00  0.00    -0.044 A 
ATOM      7  C   UNL     1       7.860   1.455  -0.536  1.00  0.00     0.008 A 
ATOM      8  C   UNL     1       6.371  -0.092  -1.580  1.00  0.00     0.054 A 
ATOM      9  C   UNL     1       8.920   0.758  -1.087  1.00  0.00     0.051 A 
ATOM     10  C   UNL     1       7.446  -0.794  -2.135  1.00  0.00     0.166 A 
ATOM     11  C   UNL     1       8.730  -0.365  -1.887  1.00  0.00     0.165 A 
ATOM     12  O   UNL     1       7.523  -1.910  -2.942  1.00  0.00    -0.454 OA
ATOM     13  O   UNL     1       9.579  -1.236  -2.552  1.00  0.00    -0.454 OA
ATOM     14  C   UNL     1       8.860  -2.283  -3.159  1.00  0.00     0.468 C 
ENDBRANCH   5   6
ENDBRANCH   1   5
TORSDOF 3
ENDMDL
MODEL 2
REMARK VINA RESULT:      -7.3      1.833      2.312
REMARK SMILES CC(=O)CCc1ccc2c(c1)OCO2
REMARK SMILES IDX 4 1 2 2 1 3 3 4 5 5 6 6 7 7 11 8 8 9 10 10 9 11 12 12 14 13
REMARK SMILES IDX 13 14
REMARK H PARENT
REMARK Flexibility Score: inf
ROOT
ATOM      1  C   UNL     1       5.601   1.360  -0.221  1.00  0.00     0.080 C 
ENDROOT
BRANCH   1   2
ATOM      2  C   UNL     1       5.006   1.268   1.141  1.00  0.00     0.130 C 
ATOM      3  C   UNL     1       5.443   0.233   2.116  1.00  0.00     0.087 C 
ATOM      4  O   UNL     1       4.135   2.044   1.498  1.00  0.00    -0.300 OA
ENDBRANCH   1   2
BRANCH   1   5
ATOM      5  C   UNL     1       7.097   1.115  -0.186  1.00  0.00     0.043 C 
BRANCH   5   6
ATOM      6  C   UNL     1       7.459  -0.154  -0.842  1.00  0.00    -0.044 A 
ATOM      7  C   UNL     1       7.423  -0.295  -2.234  1.00  0.00     0.008 A 
ATOM      8  C   UNL     1       7.844  -1.231  -0.078  1.00  0.00     0.054 A 
ATOM      9  C   UNL     1       7.775  -1.510  -2.794  1.00  0.00     0.051 A 
ATOM     10  C   UNL     1       8.199  -2.457  -0.649  1.00  0.00     0.166 A 
ATOM     11  C   UNL     1       8.163  -2.597  -2.018  1.00  0.00     0.165 A 
ATOM     12  O   UNL     1       8.610  -3.659  -0.113  1.00  0.00    -0.454 OA
ATOM     13  O   UNL     1       8.558  -3.896  -2.298  1.00  0.00    -0.454 OA
ATOM     14  C   UNL     1       8.938  -4.576  -1.126  1.00  0.00     0.468 C 
ENDBRANCH   5   6
ENDBRANCH   1   5
TORSDOF 3
ENDMDL
MODEL 3
REMARK VINA RESULT:      -7.2      2.039      2.611
REMARK SMILES CC(=O)CCc1ccc2c(c1)OCO2
REMARK SMILES IDX 4 1 2 2 1 3 3 4 5 5 6 6 7 7 11 8 8 9 10 10 9 11 12 12 14 13
REMARK SMILES IDX 13 14
REMARK H PARENT
REMARK Flexibility Score: inf
ROOT
ATOM      1  C   UNL     1       5.411  -0.063   2.031  1.00  0.00     0.080 C 
ENDROOT
BRANCH   1   2
ATOM      2  C   UNL     1       4.552   1.127   1.774  1.00  0.00     0.130 C 
ATOM      3  C   UNL     1       4.884   2.115   0.713  1.00  0.00     0.087 C 
ATOM      4  O   UNL     1       3.545   1.327   2.434  1.00  0.00    -0.300 OA
ENDBRANCH   1   2
BRANCH   1   5
ATOM      5  C   UNL     1       6.844   0.192   1.610  1.00  0.00     0.043 C 
BRANCH   5   6
ATOM      6  C   UNL     1       7.272  -0.727   0.540  1.00  0.00    -0.044 A 
ATOM      7  C   UNL     1       7.148  -0.387  -0.812  1.00  0.00     0.008 A 
ATOM      8  C   UNL     1       7.809  -1.952   0.867  1.00  0.00     0.054 A 
ATOM      9  C   UNL     1       7.567  -1.290  -1.772  1.00  0.00     0.051 A 
ATOM     10  C   UNL     1       8.231  -2.861  -0.107  1.00  0.00     0.166 A 
ATOM     11  C   UNL     1       8.109  -2.527  -1.438  1.00  0.00     0.165 A 
ATOM     12  O   UNL     1       8.788  -4.120  -0.039  1.00  0.00    -0.454 OA
ATOM     13  O   UNL     1       8.599  -3.600  -2.166  1.00  0.00    -0.454 OA
ATOM     14  C   UNL     1       9.123  -4.593  -1.318  1.00  0.00     0.468 C 
ENDBRANCH   5   6
ENDBRANCH   1   5
TORSDOF 3
ENDMDL
MODEL 4
REMARK VINA RESULT:      -7.1      1.261      1.477
REMARK SMILES CC(=O)CCc1ccc2c(c1)OCO2
REMARK SMILES IDX 4 1 2 2 1 3 3 4 5 5 6 6 7 7 11 8 8 9 10 10 9 11 12 12 14 13
REMARK SMILES IDX 13 14
REMARK H PARENT
REMARK Flexibility Score: inf
ROOT
ATOM      1  C   UNL     1       6.389   1.190   0.949  1.00  0.00     0.080 C 
ENDROOT
BRANCH   1   2
ATOM      2  C   UNL     1       5.648   0.374   1.952  1.00  0.00     0.130 C 
ATOM      3  C   UNL     1       6.238  -0.855   2.548  1.00  0.00     0.087 C 
ATOM      4  O   UNL     1       4.528   0.694   2.315  1.00  0.00    -0.300 OA
ENDBRANCH   1   2
BRANCH   1   5
ATOM      5  C   UNL     1       5.880   0.931  -0.455  1.00  0.00     0.043 C 
BRANCH   5   6
ATOM      6  C   UNL     1       6.817   0.101  -1.232  1.00  0.00    -0.044 A 
ATOM      7  C   UNL     1       7.479   0.602  -2.359  1.00  0.00     0.008 A 
ATOM      8  C   UNL     1       7.057  -1.199  -0.848  1.00  0.00     0.054 A 
ATOM      9  C   UNL     1       8.348  -0.224  -3.049  1.00  0.00     0.051 A 
ATOM     10  C   UNL     1       7.937  -2.029  -1.548  1.00  0.00     0.166 A 
ATOM     11  C   UNL     1       8.588  -1.537  -2.658  1.00  0.00     0.165 A 
ATOM     12  O   UNL     1       8.338  -3.336  -1.371  1.00  0.00    -0.454 OA
ATOM     13  O   UNL     1       9.383  -2.563  -3.143  1.00  0.00    -0.454 OA
ATOM     14  C   UNL     1       9.325  -3.692  -2.305  1.00  0.00     0.468 C 
ENDBRANCH   5   6
ENDBRANCH   1   5
TORSDOF 3
ENDMDL
MODEL 5
REMARK VINA RESULT:      -7.0      1.971      2.554
REMARK SMILES CC(=O)CCc1ccc2c(c1)OCO2
REMARK SMILES IDX 4 1 2 2 1 3 3 4 5 5 6 6 7 7 11 8 8 9 10 10 9 11 12 12 14 13
REMARK SMILES IDX 13 14
REMARK H PARENT
REMARK Flexibility Score: inf
ROOT
ATOM      1  C   UNL     1       6.802   0.659   1.205  1.00  0.00     0.080 C 
ENDROOT
BRANCH   1   2
ATOM      2  C   UNL     1       5.385   1.072   1.409  1.00  0.00     0.130 C 
ATOM      3  C   UNL     1       4.761   2.150   0.596  1.00  0.00     0.087 C 
ATOM      4  O   UNL     1       4.692   0.532   2.256  1.00  0.00    -0.300 OA
ENDBRANCH   1   2
BRANCH   1   5
ATOM      5  C   UNL     1       7.236   0.871  -0.232  1.00  0.00     0.043 C 
BRANCH   5   6
ATOM      6  C   UNL     1       7.676  -0.388  -0.861  1.00  0.00    -0.044 A 
ATOM      7  C   UNL     1       7.891  -0.482  -2.240  1.00  0.00     0.008 A 
ATOM      8  C   UNL     1       7.886  -1.503  -0.081  1.00  0.00     0.054 A 
ATOM      9  C   UNL     1       8.305  -1.689  -2.774  1.00  0.00     0.051 A 
ATOM     10  C   UNL     1       8.304  -2.720  -0.626  1.00  0.00     0.166 A 
ATOM     11  C   UNL     1       8.515  -2.814  -1.984  1.00  0.00     0.165 A 
ATOM     12  O   UNL     1       8.577  -3.953  -0.072  1.00  0.00    -0.454 OA
ATOM     13  O   UNL     1       8.919  -4.116  -2.238  1.00  0.00    -0.454 OA
ATOM     14  C   UNL     1       9.059  -4.847  -1.043  1.00  0.00     0.468 C 
ENDBRANCH   5   6
ENDBRANCH   1   5
TORSDOF 3
ENDMDL
