@<TRIPOS>MOLECULE
/home/cewinharhar/GITHUB/reincatalyze/data/processed/docking_pred/2023-May-22-2206_sub9_nm5_bs15_s42_ex16_mel10_mts10000_k50_ec02_g099_lra9e-4_lrc1e-3/354626f0a3e222b5e9865005b72eb67019ec4e19_ligand_9.pdbqt
 14 15 0 0 0
SMALL
GASTEIGER

@<TRIPOS>ATOM
      1  C          6.0850    0.8760    2.0320 C.3     1  UNL1        0.0800
      2  C          4.7400    1.3570    1.6110 C.2     1  UNL1        0.1300
      3  C          3.4980    0.8960    2.2880 C.3     1  UNL1        0.0870
      4  O          4.6170    2.1490    0.6910 O.2     1  UNL1       -0.3000
      5  C          6.1190   -0.6360    2.1410 C.3     1  UNL1        0.0430
      6  C          6.8540   -1.2480    1.0200 C.2     1  UNL1       -0.0440
      7  C          7.6400   -2.3930    1.1970 C.2     1  UNL1        0.0080
      8  C          6.7700   -0.6910   -0.2360 C.2     1  UNL1        0.0540
      9  C          8.3060   -2.9240    0.1070 C.2     1  UNL1        0.0510
     10  C          7.4440   -1.2330   -1.3340 C.2     1  UNL1        0.1660
     11  C          8.2190   -2.3580   -1.1610 C.2     1  UNL1        0.1650
     12  O          7.5210   -0.8700   -2.6620 O.2     1  UNL1       -0.4540
     13  O          8.7600   -2.6660   -2.3990 O.2     1  UNL1       -0.4540
     14  C          8.2710   -1.8020   -3.3970 C.3     1  UNL1        0.4680
@<TRIPOS>BOND
     1    14    12    1
     2    14    13    1
     3    12    10    1
     4    13    11    1
     5    10    11    2
     6    10     8    1
     7    11     9    1
     8     8     6    2
     9     9     7    2
    10     4     2    2
    11     6     7    1
    12     6     5    1
    13     2     1    1
    14     2     3    1
    15     1     5    1
