@<TRIPOS>MOLECULE
/home/cewinharhar/GITHUB/reincatalyze/data/processed/docking_pred/2023-May-22-2206_sub9_nm5_bs15_s42_ex16_mel10_mts10000_k50_ec02_g099_lra9e-4_lrc1e-3/354626f0a3e222b5e9865005b72eb67019ec4e19_ligand_9.pdbqt
 14 15 0 0 0
SMALL
GASTEIGER

@<TRIPOS>ATOM
      1  C          5.2800   -0.1770    2.3030 C.3     1  UNL1        0.0800
      2  C          4.3690    0.9570    1.9800 C.2     1  UNL1        0.1300
      3  C          4.6490    1.8870    0.8540 C.3     1  UNL1        0.0870
      4  O          3.3600    1.1560    2.6370 O.2     1  UNL1       -0.3000
      5  C          6.7200    0.1630    1.9710 C.3     1  UNL1        0.0430
      6  C          7.2670   -0.7330    0.9360 C.2     1  UNL1       -0.0440
      7  C          7.5810   -2.0680    1.2130 C.2     1  UNL1        0.0080
      8  C          7.4770   -0.2550   -0.3380 C.2     1  UNL1        0.0540
      9  C          8.0910   -2.8620    0.2020 C.2     1  UNL1        0.0510
     10  C          7.9920   -1.0620   -1.3570 C.2     1  UNL1        0.1660
     11  C          8.3020   -2.3760   -1.0850 C.2     1  UNL1        0.1650
     12  O          8.2880   -0.8270   -2.6830 O.2     1  UNL1       -0.4540
     13  O          8.7850   -2.9260   -2.2620 O.2     1  UNL1       -0.4540
     14  C          8.7080   -2.0040   -3.3230 C.3     1  UNL1        0.4680
@<TRIPOS>BOND
     1    14    12    1
     2    14    13    1
     3    12    10    1
     4    13    11    1
     5    10    11    2
     6    10     8    1
     7    11     9    1
     8     8     6    2
     9     9     7    2
    10     3     2    1
    11     6     7    1
    12     6     5    1
    13     5     1    1
    14     2     1    1
    15     2     4    2
