@<TRIPOS>MOLECULE
/home/cewinharhar/GITHUB/reincatalyze/data/processed/docking_pred/2023-May-22-2206_sub9_nm5_bs15_s42_ex16_mel10_mts10000_k50_ec02_g099_lra9e-4_lrc1e-3/36543b95c0c748273319382419c31c9b55863a9a_ligand_9.pdbqt
 14 15 0 0 0
SMALL
GASTEIGER

@<TRIPOS>ATOM
      1  C          5.4950    1.9380    1.2500 C.3     1  UNL1        0.0800
      2  C          5.0030    0.7380    1.9820 C.2     1  UNL1        0.1300
      3  C          5.8230   -0.4980    2.0950 C.3     1  UNL1        0.0870
      4  O          3.9040    0.7340    2.5130 O.2     1  UNL1       -0.3000
      5  C          5.3830    1.7520   -0.2500 C.3     1  UNL1        0.0430
      6  C          6.5550    1.0500   -0.8030 C.2     1  UNL1       -0.0440
      7  C          7.8600    1.4760   -0.5320 C.2     1  UNL1        0.0080
      8  C          6.3730   -0.0540   -1.6040 C.2     1  UNL1        0.0540
      9  C          8.9210    0.7770   -1.0770 C.2     1  UNL1        0.0510
     10  C          7.4500   -0.7580   -2.1530 C.2     1  UNL1        0.1660
     11  C          8.7340   -0.3380   -1.8870 C.2     1  UNL1        0.1650
     12  O          7.5300   -1.8680   -2.9670 O.2     1  UNL1       -0.4540
     13  O          9.5850   -1.2090   -2.5500 O.2     1  UNL1       -0.4540
     14  C          8.8660   -2.2470   -3.1730 C.3     1  UNL1        0.4680
@<TRIPOS>BOND
     1    14    12    1
     2    14    13    1
     3    12    10    1
     4    13    11    1
     5    10    11    2
     6    10     8    1
     7    11     9    1
     8     8     6    2
     9     9     7    2
    10     6     7    1
    11     6     5    1
    12     5     1    1
    13     1     2    1
    14     2     3    1
    15     2     4    2
