@<TRIPOS>MOLECULE
/home/cewinharhar/GITHUB/reincatalyze/data/processed/docking_pred/2023-May-22-2206_sub9_nm5_bs15_s42_ex16_mel10_mts10000_k50_ec02_g099_lra9e-4_lrc1e-3/367438b83e07ec58543242b49c62b5ced391bd04_ligand_9.pdbqt
 14 15 0 0 0
SMALL
GASTEIGER

@<TRIPOS>ATOM
      1  C          8.3230    0.2050   -2.6630 C.3     1  UNL1        0.0800
      2  C          8.0330   -1.2540   -2.7490 C.2     1  UNL1        0.1300
      3  C          9.1050   -2.2480   -3.0250 C.3     1  UNL1        0.0870
      4  O          6.8990   -1.6770   -2.5960 O.2     1  UNL1       -0.3000
      5  C          8.8450    0.5810   -1.2910 C.3     1  UNL1        0.0430
      6  C          7.8110    0.4300   -0.2520 C.2     1  UNL1       -0.0440
      7  C          7.9160   -0.5420    0.7500 C.2     1  UNL1        0.0080
      8  C          6.7130    1.2590   -0.2560 C.2     1  UNL1        0.0540
      9  C          6.9150   -0.6380    1.7000 C.2     1  UNL1        0.0510
     10  C          5.7040    1.1590    0.7070 C.2     1  UNL1        0.1660
     11  C          5.8060    0.2030    1.6920 C.2     1  UNL1        0.1650
     12  O          4.5320    1.8540    0.9150 O.2     1  UNL1       -0.4540
     13  O          4.6820    0.3320    2.4940 O.2     1  UNL1       -0.4540
     14  C          3.8940    1.4260    2.0910 C.3     1  UNL1        0.4680
@<TRIPOS>BOND
     1     3     2    1
     2     2     1    1
     3     2     4    2
     4     1     5    1
     5     5     6    1
     6     8     6    2
     7     8    10    1
     8     6     7    1
     9    10    12    1
    10    10    11    2
    11     7     9    2
    12    12    14    1
    13    11     9    1
    14    11    13    1
    15    14    13    1
