MODEL 1
REMARK VINA RESULT:      -7.6      0.000      0.000
REMARK SMILES CC(=O)CCc1ccc2c(c1)OCO2
REMARK SMILES IDX 4 1 2 2 1 3 3 4 5 5 6 6 7 7 11 8 8 9 10 10 9 11 12 12 14 13
REMARK SMILES IDX 13 14
REMARK H PARENT
REMARK Flexibility Score: inf
ROOT
ATOM      1  C   UNL     1       5.549   1.920   1.269  1.00  0.00     0.080 C 
ENDROOT
BRANCH   1   2
ATOM      2  C   UNL     1       5.108   0.706   2.012  1.00  0.00     0.130 C 
ATOM      3  C   UNL     1       6.004  -0.466   2.196  1.00  0.00     0.087 C 
ATOM      4  O   UNL     1       3.989   0.640   2.495  1.00  0.00    -0.300 OA
ENDBRANCH   1   2
BRANCH   1   5
ATOM      5  C   UNL     1       5.416   1.727  -0.228  1.00  0.00     0.043 C 
BRANCH   5   6
ATOM      6  C   UNL     1       6.581   1.025  -0.795  1.00  0.00    -0.044 A 
ATOM      7  C   UNL     1       7.889   1.459  -0.550  1.00  0.00     0.008 A 
ATOM      8  C   UNL     1       6.390  -0.086  -1.584  1.00  0.00     0.054 A 
ATOM      9  C   UNL     1       8.943   0.760  -1.108  1.00  0.00     0.051 A 
ATOM     10  C   UNL     1       7.459  -0.790  -2.146  1.00  0.00     0.166 A 
ATOM     11  C   UNL     1       8.747  -0.363  -1.906  1.00  0.00     0.165 A 
ATOM     12  O   UNL     1       7.530  -1.906  -2.953  1.00  0.00    -0.454 OA
ATOM     13  O   UNL     1       9.590  -1.236  -2.577  1.00  0.00    -0.454 OA
ATOM     14  C   UNL     1       8.864  -2.281  -3.178  1.00  0.00     0.468 C 
ENDBRANCH   5   6
ENDBRANCH   1   5
TORSDOF 3
ENDMDL
MODEL 2
REMARK VINA RESULT:      -7.4      1.913      2.342
REMARK SMILES CC(=O)CCc1ccc2c(c1)OCO2
REMARK SMILES IDX 4 1 2 2 1 3 3 4 5 5 6 6 7 7 11 8 8 9 10 10 9 11 12 12 14 13
REMARK SMILES IDX 13 14
REMARK H PARENT
REMARK Flexibility Score: inf
ROOT
ATOM      1  C   UNL     1       5.737   1.412  -0.218  1.00  0.00     0.080 C 
ENDROOT
BRANCH   1   2
ATOM      2  C   UNL     1       5.080   1.260   1.110  1.00  0.00     0.130 C 
ATOM      3  C   UNL     1       5.385   0.111   2.005  1.00  0.00     0.087 C 
ATOM      4  O   UNL     1       4.266   2.079   1.505  1.00  0.00    -0.300 OA
ENDBRANCH   1   2
BRANCH   1   5
ATOM      5  C   UNL     1       7.226   1.144  -0.130  1.00  0.00     0.043 C 
BRANCH   5   6
ATOM      6  C   UNL     1       7.589  -0.136  -0.764  1.00  0.00    -0.044 A 
ATOM      7  C   UNL     1       7.628  -0.280  -2.156  1.00  0.00     0.008 A 
ATOM      8  C   UNL     1       7.902  -1.222   0.021  1.00  0.00     0.054 A 
ATOM      9  C   UNL     1       7.977  -1.505  -2.695  1.00  0.00     0.051 A 
ATOM     10  C   UNL     1       8.254  -2.459  -0.528  1.00  0.00     0.166 A 
ATOM     11  C   UNL     1       8.292  -2.601  -1.898  1.00  0.00     0.165 A 
ATOM     12  O   UNL     1       8.601  -3.671   0.030  1.00  0.00    -0.454 OA
ATOM     13  O   UNL     1       8.666  -3.911  -2.154  1.00  0.00    -0.454 OA
ATOM     14  C   UNL     1       8.960  -4.598  -0.962  1.00  0.00     0.468 C 
ENDBRANCH   5   6
ENDBRANCH   1   5
TORSDOF 3
ENDMDL
MODEL 3
REMARK VINA RESULT:      -7.2      2.092      2.648
REMARK SMILES CC(=O)CCc1ccc2c(c1)OCO2
REMARK SMILES IDX 4 1 2 2 1 3 3 4 5 5 6 6 7 7 11 8 8 9 10 10 9 11 12 12 14 13
REMARK SMILES IDX 13 14
REMARK H PARENT
REMARK Flexibility Score: inf
ROOT
ATOM      1  C   UNL     1       5.530  -0.041   1.954  1.00  0.00     0.080 C 
ENDROOT
BRANCH   1   2
ATOM      2  C   UNL     1       4.670   1.139   1.658  1.00  0.00     0.130 C 
ATOM      3  C   UNL     1       5.010   2.101   0.577  1.00  0.00     0.087 C 
ATOM      4  O   UNL     1       3.654   1.351   2.301  1.00  0.00    -0.300 OA
ENDBRANCH   1   2
BRANCH   1   5
ATOM      5  C   UNL     1       6.959   0.194   1.507  1.00  0.00     0.043 C 
BRANCH   5   6
ATOM      6  C   UNL     1       7.367  -0.758   0.458  1.00  0.00    -0.044 A 
ATOM      7  C   UNL     1       7.237  -0.450  -0.901  1.00  0.00     0.008 A 
ATOM      8  C   UNL     1       7.890  -1.980   0.812  1.00  0.00     0.054 A 
ATOM      9  C   UNL     1       7.637  -1.382  -1.841  1.00  0.00     0.051 A 
ATOM     10  C   UNL     1       8.294  -2.919  -0.142  1.00  0.00     0.166 A 
ATOM     11  C   UNL     1       8.166  -2.617  -1.480  1.00  0.00     0.165 A 
ATOM     12  O   UNL     1       8.835  -4.183  -0.046  1.00  0.00    -0.454 OA
ATOM     13  O   UNL     1       8.637  -3.714  -2.185  1.00  0.00    -0.454 OA
ATOM     14  C   UNL     1       9.155  -4.692  -1.316  1.00  0.00     0.468 C 
ENDBRANCH   5   6
ENDBRANCH   1   5
TORSDOF 3
ENDMDL
MODEL 4
REMARK VINA RESULT:      -7.1      1.256      1.470
REMARK SMILES CC(=O)CCc1ccc2c(c1)OCO2
REMARK SMILES IDX 4 1 2 2 1 3 3 4 5 5 6 6 7 7 11 8 8 9 10 10 9 11 12 12 14 13
REMARK SMILES IDX 13 14
REMARK H PARENT
REMARK Flexibility Score: inf
ROOT
ATOM      1  C   UNL     1       6.412   1.194   0.938  1.00  0.00     0.080 C 
ENDROOT
BRANCH   1   2
ATOM      2  C   UNL     1       5.678   0.357   1.928  1.00  0.00     0.130 C 
ATOM      3  C   UNL     1       6.272  -0.883   2.495  1.00  0.00     0.087 C 
ATOM      4  O   UNL     1       4.559   0.668   2.304  1.00  0.00    -0.300 OA
ENDBRANCH   1   2
BRANCH   1   5
ATOM      5  C   UNL     1       5.907   0.951  -0.470  1.00  0.00     0.043 C 
BRANCH   5   6
ATOM      6  C   UNL     1       6.837   0.113  -1.247  1.00  0.00    -0.044 A 
ATOM      7  C   UNL     1       7.514   0.612  -2.366  1.00  0.00     0.008 A 
ATOM      8  C   UNL     1       7.055  -1.193  -0.871  1.00  0.00     0.054 A 
ATOM      9  C   UNL     1       8.376  -0.221  -3.056  1.00  0.00     0.051 A 
ATOM     10  C   UNL     1       7.928  -2.031  -1.572  1.00  0.00     0.166 A 
ATOM     11  C   UNL     1       8.593  -1.541  -2.673  1.00  0.00     0.165 A 
ATOM     12  O   UNL     1       8.308  -3.345  -1.402  1.00  0.00    -0.454 OA
ATOM     13  O   UNL     1       9.377  -2.575  -3.161  1.00  0.00    -0.454 OA
ATOM     14  C   UNL     1       9.296  -3.709  -2.331  1.00  0.00     0.468 C 
ENDBRANCH   5   6
ENDBRANCH   1   5
TORSDOF 3
ENDMDL
MODEL 5
REMARK VINA RESULT:      -6.8      1.187      5.170
REMARK SMILES CC(=O)CCc1ccc2c(c1)OCO2
REMARK SMILES IDX 4 1 2 2 1 3 3 4 5 5 6 6 7 7 11 8 8 9 10 10 9 11 12 12 14 13
REMARK SMILES IDX 13 14
REMARK H PARENT
REMARK Flexibility Score: inf
ROOT
ATOM      1  C   UNL     1       8.323   0.205  -2.663  1.00  0.00     0.080 C 
ENDROOT
BRANCH   1   2
ATOM      2  C   UNL     1       8.033  -1.254  -2.749  1.00  0.00     0.130 C 
ATOM      3  C   UNL     1       9.105  -2.248  -3.025  1.00  0.00     0.087 C 
ATOM      4  O   UNL     1       6.899  -1.677  -2.596  1.00  0.00    -0.300 OA
ENDBRANCH   1   2
BRANCH   1   5
ATOM      5  C   UNL     1       8.845   0.581  -1.291  1.00  0.00     0.043 C 
BRANCH   5   6
ATOM      6  C   UNL     1       7.811   0.430  -0.252  1.00  0.00    -0.044 A 
ATOM      7  C   UNL     1       7.916  -0.542   0.750  1.00  0.00     0.008 A 
ATOM      8  C   UNL     1       6.713   1.259  -0.256  1.00  0.00     0.054 A 
ATOM      9  C   UNL     1       6.915  -0.638   1.700  1.00  0.00     0.051 A 
ATOM     10  C   UNL     1       5.704   1.159   0.707  1.00  0.00     0.166 A 
ATOM     11  C   UNL     1       5.806   0.203   1.692  1.00  0.00     0.165 A 
ATOM     12  O   UNL     1       4.532   1.854   0.915  1.00  0.00    -0.454 OA
ATOM     13  O   UNL     1       4.682   0.332   2.494  1.00  0.00    -0.454 OA
ATOM     14  C   UNL     1       3.894   1.426   2.091  1.00  0.00     0.468 C 
ENDBRANCH   5   6
ENDBRANCH   1   5
TORSDOF 3
ENDMDL
