@<TRIPOS>MOLECULE
/home/cewinharhar/GITHUB/reincatalyze/data/processed/docking_pred/2023-May-22-2206_sub9_nm5_bs15_s42_ex16_mel10_mts10000_k50_ec02_g099_lra9e-4_lrc1e-3/367438b83e07ec58543242b49c62b5ced391bd04_ligand_9.pdbqt
 14 15 0 0 0
SMALL
GASTEIGER

@<TRIPOS>ATOM
      1  C          5.5300   -0.0410    1.9540 C.3     1  UNL1        0.0800
      2  C          4.6700    1.1390    1.6580 C.2     1  UNL1        0.1300
      3  C          5.0100    2.1010    0.5770 C.3     1  UNL1        0.0870
      4  O          3.6540    1.3510    2.3010 O.2     1  UNL1       -0.3000
      5  C          6.9590    0.1940    1.5070 C.3     1  UNL1        0.0430
      6  C          7.3670   -0.7580    0.4580 C.2     1  UNL1       -0.0440
      7  C          7.2370   -0.4500   -0.9010 C.2     1  UNL1        0.0080
      8  C          7.8900   -1.9800    0.8120 C.2     1  UNL1        0.0540
      9  C          7.6370   -1.3820   -1.8410 C.2     1  UNL1        0.0510
     10  C          8.2940   -2.9190   -0.1420 C.2     1  UNL1        0.1660
     11  C          8.1660   -2.6170   -1.4800 C.2     1  UNL1        0.1650
     12  O          8.8350   -4.1830   -0.0460 O.2     1  UNL1       -0.4540
     13  O          8.6370   -3.7140   -2.1850 O.2     1  UNL1       -0.4540
     14  C          9.1550   -4.6920   -1.3160 C.3     1  UNL1        0.4680
@<TRIPOS>BOND
     1    13    11    1
     2    13    14    1
     3     9    11    2
     4     9     7    1
     5    11    10    1
     6    14    12    1
     7     7     6    2
     8    10    12    1
     9    10     8    2
    10     6     8    1
    11     6     5    1
    12     3     2    1
    13     5     1    1
    14     2     1    1
    15     2     4    2
