@<TRIPOS>MOLECULE
/home/cewinharhar/GITHUB/reincatalyze/data/processed/docking_pred/2023-May-22-2206_sub9_nm5_bs15_s42_ex16_mel10_mts10000_k50_ec02_g099_lra9e-4_lrc1e-3/37aabdb081a78d2f2d4d4e560ab17afff45a2586_ligand_9.pdbqt
 14 15 0 0 0
SMALL
GASTEIGER

@<TRIPOS>ATOM
      1  C          5.8210    1.0540   -0.3320 C.3     1  UNL1        0.0800
      2  C          5.7700    1.2500    1.1440 C.2     1  UNL1        0.1300
      3  C          4.9580    0.3640    2.0220 C.3     1  UNL1        0.0870
      4  O          6.3970    2.1490    1.6790 O.2     1  UNL1       -0.3000
      5  C          7.2420    0.8250   -0.8080 C.3     1  UNL1        0.0430
      6  C          7.7110   -0.5360   -0.4940 C.2     1  UNL1       -0.0440
      7  C          7.9600   -0.9400    0.8220 C.2     1  UNL1        0.0080
      8  C          7.9090   -1.4410   -1.5120 C.2     1  UNL1        0.0540
      9  C          8.3980   -2.2310    1.0560 C.2     1  UNL1        0.0510
     10  C          8.3520   -2.7450   -1.2700 C.2     1  UNL1        0.1660
     11  C          8.5990   -3.1430    0.0240 C.2     1  UNL1        0.1650
     12  O          8.6220   -3.8140   -2.0980 O.2     1  UNL1       -0.4540
     13  O          9.0180   -4.4630   -0.0350 O.2     1  UNL1       -0.4540
     14  C          8.9600   -4.9550   -1.3530 C.3     1  UNL1        0.4680
@<TRIPOS>BOND
     1    12    14    1
     2    12    10    1
     3     8    10    1
     4     8     6    2
     5    14    13    1
     6    10    11    2
     7     5     6    1
     8     5     1    1
     9     6     7    1
    10     1     2    1
    11    13    11    1
    12    11     9    1
    13     7     9    2
    14     2     4    2
    15     2     3    1
