@<TRIPOS>MOLECULE
/home/cewinharhar/GITHUB/reincatalyze/data/processed/docking_pred/2023-May-22-2206_sub9_nm5_bs15_s42_ex16_mel10_mts10000_k50_ec02_g099_lra9e-4_lrc1e-3/3b11ad51370e6150fddf32b3aa65dd5e24197163_ligand_9.pdbqt
 14 15 0 0 0
SMALL
GASTEIGER

@<TRIPOS>ATOM
      1  C          6.0600    1.3670    1.1140 C.3     1  UNL1        0.0800
      2  C          5.5150    0.3060    2.0060 C.2     1  UNL1        0.1300
      3  C          6.2900   -0.9240    2.3190 C.3     1  UNL1        0.0870
      4  O          4.4090    0.4170    2.5090 O.2     1  UNL1       -0.3000
      5  C          5.6840    1.1160   -0.3330 C.3     1  UNL1        0.0430
      6  C          6.7970    0.5170   -1.0900 C.2     1  UNL1       -0.0440
      7  C          6.6390   -0.6760   -1.8050 C.2     1  UNL1        0.0080
      8  C          8.0250    1.1380   -1.1040 C.2     1  UNL1        0.0540
      9  C          7.7190   -1.1910   -2.4990 C.2     1  UNL1        0.0510
     10  C          9.1140    0.6140   -1.8070 C.2     1  UNL1        0.1660
     11  C          8.9600   -0.5610   -2.5100 C.2     1  UNL1        0.1650
     12  O         10.4170    1.0350   -1.9730 O.2     1  UNL1       -0.4540
     13  O         10.1830   -0.8380   -3.1000 O.2     1  UNL1       -0.4540
     14  C         11.1090    0.1940   -2.8600 C.3     1  UNL1        0.4680
@<TRIPOS>BOND
     1    13    14    1
     2    13    11    1
     3    14    12    1
     4    11     9    2
     5    11    10    1
     6     9     7    1
     7    12    10    1
     8    10     8    2
     9     7     6    2
    10     8     6    1
    11     6     5    1
    12     5     1    1
    13     1     2    1
    14     2     3    1
    15     2     4    2
