MODEL 1
REMARK VINA RESULT:      -7.6      0.000      0.000
REMARK SMILES CC(=O)CCc1ccc2c(c1)OCO2
REMARK SMILES IDX 4 1 2 2 1 3 3 4 5 5 6 6 7 7 11 8 8 9 10 10 9 11 12 12 14 13
REMARK SMILES IDX 13 14
REMARK H PARENT
REMARK Flexibility Score: inf
ROOT
ATOM      1  C   UNL     1       5.531   1.806   1.170  1.00  0.00     0.080 C 
ENDROOT
BRANCH   1   2
ATOM      2  C   UNL     1       5.072   0.617   1.941  1.00  0.00     0.130 C 
ATOM      3  C   UNL     1       5.883  -0.628   2.011  1.00  0.00     0.087 C 
ATOM      4  O   UNL     1       4.010   0.631   2.542  1.00  0.00    -0.300 OA
ENDBRANCH   1   2
BRANCH   1   5
ATOM      5  C   UNL     1       5.425   1.567  -0.324  1.00  0.00     0.043 C 
BRANCH   5   6
ATOM      6  C   UNL     1       6.667   0.997  -0.875  1.00  0.00    -0.044 A 
ATOM      7  C   UNL     1       7.926   1.453  -0.469  1.00  0.00     0.008 A 
ATOM      8  C   UNL     1       6.599  -0.010  -1.811  1.00  0.00     0.054 A 
ATOM      9  C   UNL     1       9.058   0.880  -1.021  1.00  0.00     0.051 A 
ATOM     10  C   UNL     1       7.745  -0.587  -2.365  1.00  0.00     0.166 A 
ATOM     11  C   UNL     1       8.985  -0.138  -1.967  1.00  0.00     0.165 A 
ATOM     12  O   UNL     1       7.939  -1.585  -3.297  1.00  0.00    -0.454 OA
ATOM     13  O   UNL     1       9.924  -0.878  -2.669  1.00  0.00    -0.454 OA
ATOM     14  C   UNL     1       9.305  -1.868  -3.456  1.00  0.00     0.468 C 
ENDBRANCH   5   6
ENDBRANCH   1   5
TORSDOF 3
ENDMDL
MODEL 2
REMARK VINA RESULT:      -7.4      1.013      1.870
REMARK SMILES CC(=O)CCc1ccc2c(c1)OCO2
REMARK SMILES IDX 4 1 2 2 1 3 3 4 5 5 6 6 7 7 11 8 8 9 10 10 9 11 12 12 14 13
REMARK SMILES IDX 13 14
REMARK H PARENT
REMARK Flexibility Score: inf
ROOT
ATOM      1  C   UNL     1       6.060   1.367   1.114  1.00  0.00     0.080 C 
ENDROOT
BRANCH   1   2
ATOM      2  C   UNL     1       5.515   0.306   2.006  1.00  0.00     0.130 C 
ATOM      3  C   UNL     1       6.290  -0.924   2.319  1.00  0.00     0.087 C 
ATOM      4  O   UNL     1       4.409   0.417   2.509  1.00  0.00    -0.300 OA
ENDBRANCH   1   2
BRANCH   1   5
ATOM      5  C   UNL     1       5.684   1.116  -0.333  1.00  0.00     0.043 C 
BRANCH   5   6
ATOM      6  C   UNL     1       6.797   0.517  -1.090  1.00  0.00    -0.044 A 
ATOM      7  C   UNL     1       6.639  -0.676  -1.805  1.00  0.00     0.008 A 
ATOM      8  C   UNL     1       8.025   1.138  -1.104  1.00  0.00     0.054 A 
ATOM      9  C   UNL     1       7.719  -1.191  -2.499  1.00  0.00     0.051 A 
ATOM     10  C   UNL     1       9.114   0.614  -1.807  1.00  0.00     0.166 A 
ATOM     11  C   UNL     1       8.960  -0.561  -2.510  1.00  0.00     0.165 A 
ATOM     12  O   UNL     1      10.417   1.035  -1.973  1.00  0.00    -0.454 OA
ATOM     13  O   UNL     1      10.183  -0.838  -3.100  1.00  0.00    -0.454 OA
ATOM     14  C   UNL     1      11.109   0.194  -2.860  1.00  0.00     0.468 C 
ENDBRANCH   5   6
ENDBRANCH   1   5
TORSDOF 3
ENDMDL
MODEL 3
REMARK VINA RESULT:      -7.3      1.260      2.309
REMARK SMILES CC(=O)CCc1ccc2c(c1)OCO2
REMARK SMILES IDX 4 1 2 2 1 3 3 4 5 5 6 6 7 7 11 8 8 9 10 10 9 11 12 12 14 13
REMARK SMILES IDX 13 14
REMARK H PARENT
REMARK Flexibility Score: inf
ROOT
ATOM      1  C   UNL     1       5.789  -0.547   1.731  1.00  0.00     0.080 C 
ENDROOT
BRANCH   1   2
ATOM      2  C   UNL     1       4.934   0.672   1.765  1.00  0.00     0.130 C 
ATOM      3  C   UNL     1       5.152   1.805   0.827  1.00  0.00     0.087 C 
ATOM      4  O   UNL     1       4.024   0.776   2.571  1.00  0.00    -0.300 OA
ENDBRANCH   1   2
BRANCH   1   5
ATOM      5  C   UNL     1       7.239  -0.195   1.463  1.00  0.00     0.043 C 
BRANCH   5   6
ATOM      6  C   UNL     1       7.579  -0.332   0.035  1.00  0.00    -0.044 A 
ATOM      7  C   UNL     1       6.900  -1.228  -0.798  1.00  0.00     0.008 A 
ATOM      8  C   UNL     1       8.587   0.437  -0.502  1.00  0.00     0.054 A 
ATOM      9  C   UNL     1       7.262  -1.313  -2.130  1.00  0.00     0.051 A 
ATOM     10  C   UNL     1       8.949   0.348  -1.850  1.00  0.00     0.166 A 
ATOM     11  C   UNL     1       8.281  -0.535  -2.670  1.00  0.00     0.165 A 
ATOM     12  O   UNL     1       9.900   0.992  -2.612  1.00  0.00    -0.454 OA
ATOM     13  O   UNL     1       8.842  -0.412  -3.932  1.00  0.00    -0.454 OA
ATOM     14  C   UNL     1       9.810   0.610  -3.960  1.00  0.00     0.468 C 
ENDBRANCH   5   6
ENDBRANCH   1   5
TORSDOF 3
ENDMDL
MODEL 4
REMARK VINA RESULT:      -7.3      2.097      2.554
REMARK SMILES CC(=O)CCc1ccc2c(c1)OCO2
REMARK SMILES IDX 4 1 2 2 1 3 3 4 5 5 6 6 7 7 11 8 8 9 10 10 9 11 12 12 14 13
REMARK SMILES IDX 13 14
REMARK H PARENT
REMARK Flexibility Score: inf
ROOT
ATOM      1  C   UNL     1       5.755   1.359  -0.288  1.00  0.00     0.080 C 
ENDROOT
BRANCH   1   2
ATOM      2  C   UNL     1       5.134   1.259   1.062  1.00  0.00     0.130 C 
ATOM      3  C   UNL     1       5.357   0.077   1.938  1.00  0.00     0.087 C 
ATOM      4  O   UNL     1       4.420   2.150   1.491  1.00  0.00    -0.300 OA
ENDBRANCH   1   2
BRANCH   1   5
ATOM      5  C   UNL     1       7.247   1.099  -0.229  1.00  0.00     0.043 C 
BRANCH   5   6
ATOM      6  C   UNL     1       7.603  -0.186  -0.858  1.00  0.00    -0.044 A 
ATOM      7  C   UNL     1       7.614  -0.342  -2.249  1.00  0.00     0.008 A 
ATOM      8  C   UNL     1       7.936  -1.263  -0.069  1.00  0.00     0.054 A 
ATOM      9  C   UNL     1       7.958  -1.571  -2.783  1.00  0.00     0.051 A 
ATOM     10  C   UNL     1       8.283  -2.503  -0.613  1.00  0.00     0.166 A 
ATOM     11  C   UNL     1       8.293  -2.658  -1.982  1.00  0.00     0.165 A 
ATOM     12  O   UNL     1       8.647  -3.708  -0.050  1.00  0.00    -0.454 OA
ATOM     13  O   UNL     1       8.668  -3.969  -2.233  1.00  0.00    -0.454 OA
ATOM     14  C   UNL     1       8.990  -4.643  -1.040  1.00  0.00     0.468 C 
ENDBRANCH   5   6
ENDBRANCH   1   5
TORSDOF 3
ENDMDL
MODEL 5
REMARK VINA RESULT:      -7.0      2.259      2.793
REMARK SMILES CC(=O)CCc1ccc2c(c1)OCO2
REMARK SMILES IDX 4 1 2 2 1 3 3 4 5 5 6 6 7 7 11 8 8 9 10 10 9 11 12 12 14 13
REMARK SMILES IDX 13 14
REMARK H PARENT
REMARK Flexibility Score: inf
ROOT
ATOM      1  C   UNL     1       5.625   0.029   1.937  1.00  0.00     0.080 C 
ENDROOT
BRANCH   1   2
ATOM      2  C   UNL     1       4.709   1.160   1.620  1.00  0.00     0.130 C 
ATOM      3  C   UNL     1       4.991   2.105   0.507  1.00  0.00     0.087 C 
ATOM      4  O   UNL     1       3.693   1.345   2.271  1.00  0.00    -0.300 OA
ENDBRANCH   1   2
BRANCH   1   5
ATOM      5  C   UNL     1       7.023   0.289   1.410  1.00  0.00     0.043 C 
BRANCH   5   6
ATOM      6  C   UNL     1       7.409  -0.690   0.379  1.00  0.00    -0.044 A 
ATOM      7  C   UNL     1       7.300  -0.400  -0.986  1.00  0.00     0.008 A 
ATOM      8  C   UNL     1       7.893  -1.923   0.756  1.00  0.00     0.054 A 
ATOM      9  C   UNL     1       7.679  -1.358  -1.908  1.00  0.00     0.051 A 
ATOM     10  C   UNL     1       8.275  -2.888  -0.181  1.00  0.00     0.166 A 
ATOM     11  C   UNL     1       8.167  -2.603  -1.524  1.00  0.00     0.165 A 
ATOM     12  O   UNL     1       8.777  -4.166  -0.061  1.00  0.00    -0.454 OA
ATOM     13  O   UNL     1       8.610  -3.724  -2.208  1.00  0.00    -0.454 OA
ATOM     14  C   UNL     1       9.091  -4.704  -1.320  1.00  0.00     0.468 C 
ENDBRANCH   5   6
ENDBRANCH   1   5
TORSDOF 3
ENDMDL
