@<TRIPOS>MOLECULE
/home/cewinharhar/GITHUB/reincatalyze/data/processed/docking_pred/2023-May-22-2206_sub9_nm5_bs15_s42_ex16_mel10_mts10000_k50_ec02_g099_lra9e-4_lrc1e-3/3b11ad51370e6150fddf32b3aa65dd5e24197163_ligand_9.pdbqt
 14 15 0 0 0
SMALL
GASTEIGER

@<TRIPOS>ATOM
      1  C          5.7550    1.3590   -0.2880 C.3     1  UNL1        0.0800
      2  C          5.1340    1.2590    1.0620 C.2     1  UNL1        0.1300
      3  C          5.3570    0.0770    1.9380 C.3     1  UNL1        0.0870
      4  O          4.4200    2.1500    1.4910 O.2     1  UNL1       -0.3000
      5  C          7.2470    1.0990   -0.2290 C.3     1  UNL1        0.0430
      6  C          7.6030   -0.1860   -0.8580 C.2     1  UNL1       -0.0440
      7  C          7.6140   -0.3420   -2.2490 C.2     1  UNL1        0.0080
      8  C          7.9360   -1.2630   -0.0690 C.2     1  UNL1        0.0540
      9  C          7.9580   -1.5710   -2.7830 C.2     1  UNL1        0.0510
     10  C          8.2830   -2.5030   -0.6130 C.2     1  UNL1        0.1660
     11  C          8.2930   -2.6580   -1.9820 C.2     1  UNL1        0.1650
     12  O          8.6470   -3.7080   -0.0500 O.2     1  UNL1       -0.4540
     13  O          8.6680   -3.9690   -2.2330 O.2     1  UNL1       -0.4540
     14  C          8.9900   -4.6430   -1.0400 C.3     1  UNL1        0.4680
@<TRIPOS>BOND
     1     9     7    1
     2     9    11    2
     3     7     6    2
     4    13    11    1
     5    13    14    1
     6    11    10    1
     7    14    12    1
     8     6     5    1
     9     6     8    1
    10    10     8    2
    11    10    12    1
    12     1     5    1
    13     1     2    1
    14     2     4    2
    15     2     3    1
