@<TRIPOS>MOLECULE
/home/cewinharhar/GITHUB/reincatalyze/data/processed/docking_pred/2023-May-22-2206_sub9_nm5_bs15_s42_ex16_mel10_mts10000_k50_ec02_g099_lra9e-4_lrc1e-3/3b11ad51370e6150fddf32b3aa65dd5e24197163_ligand_9.pdbqt
 14 15 0 0 0
SMALL
GASTEIGER

@<TRIPOS>ATOM
      1  C          5.5310    1.8060    1.1700 C.3     1  UNL1        0.0800
      2  C          5.0720    0.6170    1.9410 C.2     1  UNL1        0.1300
      3  C          5.8830   -0.6280    2.0110 C.3     1  UNL1        0.0870
      4  O          4.0100    0.6310    2.5420 O.2     1  UNL1       -0.3000
      5  C          5.4250    1.5670   -0.3240 C.3     1  UNL1        0.0430
      6  C          6.6670    0.9970   -0.8750 C.2     1  UNL1       -0.0440
      7  C          7.9260    1.4530   -0.4690 C.2     1  UNL1        0.0080
      8  C          6.5990   -0.0100   -1.8110 C.2     1  UNL1        0.0540
      9  C          9.0580    0.8800   -1.0210 C.2     1  UNL1        0.0510
     10  C          7.7450   -0.5870   -2.3650 C.2     1  UNL1        0.1660
     11  C          8.9850   -0.1380   -1.9670 C.2     1  UNL1        0.1650
     12  O          7.9390   -1.5850   -3.2970 O.2     1  UNL1       -0.4540
     13  O          9.9240   -0.8780   -2.6690 O.2     1  UNL1       -0.4540
     14  C          9.3050   -1.8680   -3.4560 C.3     1  UNL1        0.4680
@<TRIPOS>BOND
     1    14    12    1
     2    14    13    1
     3    12    10    1
     4    13    11    1
     5    10    11    2
     6    10     8    1
     7    11     9    1
     8     8     6    2
     9     9     7    2
    10     6     7    1
    11     6     5    1
    12     5     1    1
    13     1     2    1
    14     2     3    1
    15     2     4    2
