@<TRIPOS>MOLECULE
/home/cewinharhar/GITHUB/reincatalyze/data/processed/docking_pred/2023-May-22-2206_sub9_nm5_bs15_s42_ex16_mel10_mts10000_k50_ec02_g099_lra9e-4_lrc1e-3/3b11ad51370e6150fddf32b3aa65dd5e24197163_ligand_9.pdbqt
 14 15 0 0 0
SMALL
GASTEIGER

@<TRIPOS>ATOM
      1  C          5.6250    0.0290    1.9370 C.3     1  UNL1        0.0800
      2  C          4.7090    1.1600    1.6200 C.2     1  UNL1        0.1300
      3  C          4.9910    2.1050    0.5070 C.3     1  UNL1        0.0870
      4  O          3.6930    1.3450    2.2710 O.2     1  UNL1       -0.3000
      5  C          7.0230    0.2890    1.4100 C.3     1  UNL1        0.0430
      6  C          7.4090   -0.6900    0.3790 C.2     1  UNL1       -0.0440
      7  C          7.3000   -0.4000   -0.9860 C.2     1  UNL1        0.0080
      8  C          7.8930   -1.9230    0.7560 C.2     1  UNL1        0.0540
      9  C          7.6790   -1.3580   -1.9080 C.2     1  UNL1        0.0510
     10  C          8.2750   -2.8880   -0.1810 C.2     1  UNL1        0.1660
     11  C          8.1670   -2.6030   -1.5240 C.2     1  UNL1        0.1650
     12  O          8.7770   -4.1660   -0.0610 O.2     1  UNL1       -0.4540
     13  O          8.6100   -3.7240   -2.2080 O.2     1  UNL1       -0.4540
     14  C          9.0910   -4.7040   -1.3200 C.3     1  UNL1        0.4680
@<TRIPOS>BOND
     1    13    11    1
     2    13    14    1
     3     9    11    2
     4     9     7    1
     5    11    10    1
     6    14    12    1
     7     7     6    2
     8    10    12    1
     9    10     8    2
    10     6     8    1
    11     6     5    1
    12     3     2    1
    13     5     1    1
    14     2     1    1
    15     2     4    2
