@<TRIPOS>MOLECULE
/home/cewinharhar/GITHUB/reincatalyze/data/processed/docking_pred/2023-May-22-2206_sub9_nm5_bs15_s42_ex16_mel10_mts10000_k50_ec02_g099_lra9e-4_lrc1e-3/3b29dc4ebb7ee5049f43ecb42d98a580ffb6b5da_ligand_9.pdbqt
 14 15 0 0 0
SMALL
GASTEIGER

@<TRIPOS>ATOM
      1  C          5.4890    1.9050    1.2770 C.3     1  UNL1        0.0800
      2  C          4.9840    0.6940    1.9830 C.2     1  UNL1        0.1300
      3  C          5.7960   -0.5480    2.0810 C.3     1  UNL1        0.0870
      4  O          3.8800    0.6870    2.5040 O.2     1  UNL1       -0.3000
      5  C          5.3840    1.7490   -0.2270 C.3     1  UNL1        0.0430
      6  C          6.5520    1.0450   -0.7860 C.2     1  UNL1       -0.0440
      7  C          7.8600    1.4690   -0.5200 C.2     1  UNL1        0.0080
      8  C          6.3650   -0.0580   -1.5870 C.2     1  UNL1        0.0540
      9  C          8.9170    0.7680   -1.0710 C.2     1  UNL1        0.0510
     10  C          7.4380   -0.7640   -2.1410 C.2     1  UNL1        0.1660
     11  C          8.7240   -0.3460   -1.8820 C.2     1  UNL1        0.1650
     12  O          7.5120   -1.8720   -2.9570 O.2     1  UNL1       -0.4540
     13  O          9.5700   -1.2180   -2.5490 O.2     1  UNL1       -0.4540
     14  C          8.8470   -2.2540   -3.1700 C.3     1  UNL1        0.4680
@<TRIPOS>BOND
     1    14    12    1
     2    14    13    1
     3    12    10    1
     4    13    11    1
     5    10    11    2
     6    10     8    1
     7    11     9    1
     8     8     6    2
     9     9     7    2
    10     6     7    1
    11     6     5    1
    12     5     1    1
    13     1     2    1
    14     2     3    1
    15     2     4    2
