@<TRIPOS>MOLECULE
/home/cewinharhar/GITHUB/reincatalyze/data/processed/docking_pred/2023-May-22-2206_sub9_nm5_bs15_s42_ex16_mel10_mts10000_k50_ec02_g099_lra9e-4_lrc1e-3/3b29dc4ebb7ee5049f43ecb42d98a580ffb6b5da_ligand_9.pdbqt
 14 15 0 0 0
SMALL
GASTEIGER

@<TRIPOS>ATOM
      1  C          5.6010   -0.1870    1.9620 C.3     1  UNL1        0.0800
      2  C          5.3550    1.0070    1.1060 C.2     1  UNL1        0.1300
      3  C          5.9940    1.1560   -0.2290 C.3     1  UNL1        0.0870
      4  O          4.6180    1.9050    1.4800 O.2     1  UNL1       -0.3000
      5  C          6.5350   -1.1690    1.2820 C.3     1  UNL1        0.0430
      6  C          7.6590   -1.5480    2.1560 C.2     1  UNL1       -0.0440
      7  C          7.6950   -1.1810    3.5060 C.2     1  UNL1        0.0080
      8  C          8.7040   -2.2830    1.6430 C.2     1  UNL1        0.0540
      9  C          8.7750   -1.5670    4.2780 C.2     1  UNL1        0.0510
     10  C          9.7940   -2.6710    2.4280 C.2     1  UNL1        0.1660
     11  C          9.8300   -2.3100    3.7560 C.2     1  UNL1        0.1650
     12  O         10.9380   -3.3920    2.1570 O.2     1  UNL1       -0.4540
     13  O         11.0070   -2.8220    4.2790 O.2     1  UNL1       -0.4540
     14  C         11.6950   -3.5920    3.3230 C.3     1  UNL1        0.4680
@<TRIPOS>BOND
     1     3     2    1
     2     2     4    2
     3     2     1    1
     4     5     1    1
     5     5     6    1
     6     8     6    2
     7     8    10    1
     8     6     7    1
     9    12    10    1
    10    12    14    1
    11    10    11    2
    12    14    13    1
    13     7     9    2
    14    11     9    1
    15    11    13    1
