@<TRIPOS>MOLECULE
/home/cewinharhar/GITHUB/reincatalyze/data/processed/docking_pred/2023-May-22-2206_sub9_nm5_bs15_s42_ex16_mel10_mts10000_k50_ec02_g099_lra9e-4_lrc1e-3/3b29dc4ebb7ee5049f43ecb42d98a580ffb6b5da_ligand_9.pdbqt
 14 15 0 0 0
SMALL
GASTEIGER

@<TRIPOS>ATOM
      1  C          5.6180    1.4590   -0.2830 C.3     1  UNL1        0.0800
      2  C          5.0330    1.3020    1.0770 C.2     1  UNL1        0.1300
      3  C          5.3920    0.1550    1.9540 C.3     1  UNL1        0.0870
      4  O          4.2370    2.1160    1.5150 O.2     1  UNL1       -0.3000
      5  C          7.1220    1.2700   -0.2610 C.3     1  UNL1        0.0430
      6  C          7.5180   -0.0290   -0.8330 C.2     1  UNL1       -0.0440
      7  C          7.6260   -0.2190   -2.2160 C.2     1  UNL1        0.0080
      8  C          7.7930   -1.0880    0.0030 C.2     1  UNL1        0.0540
      9  C          8.0030   -1.4600   -2.6950 C.2     1  UNL1        0.0510
     10  C          8.1730   -2.3410   -0.4870 C.2     1  UNL1        0.1660
     11  C          8.2790   -2.5280   -1.8470 C.2     1  UNL1        0.1650
     12  O          8.4940   -3.5320    0.1280 O.2     1  UNL1       -0.4540
     13  O          8.6670   -3.8450   -2.0410 O.2     1  UNL1       -0.4540
     14  C          8.9030   -4.4910   -0.8130 C.3     1  UNL1        0.4680
@<TRIPOS>BOND
     1     9     7    1
     2     9    11    2
     3     7     6    2
     4    13    11    1
     5    13    14    1
     6    11    10    1
     7     6     5    1
     8     6     8    1
     9    14    12    1
    10    10     8    2
    11    10    12    1
    12     1     5    1
    13     1     2    1
    14     2     4    2
    15     2     3    1
