@<TRIPOS>MOLECULE
/home/cewinharhar/GITHUB/reincatalyze/data/processed/docking_pred/2023-May-22-2206_sub9_nm5_bs15_s42_ex16_mel10_mts10000_k50_ec02_g099_lra9e-4_lrc1e-3/3dd20a82ca316ee4e9168eadca9f8684e5881f32_ligand_9.pdbqt
 14 15 0 0 0
SMALL
GASTEIGER

@<TRIPOS>ATOM
      1  C          5.5890    1.3690   -0.2230 C.3     1  UNL1        0.0800
      2  C          5.0330    1.2260    1.1510 C.2     1  UNL1        0.1300
      3  C          5.4250    0.0980    2.0390 C.3     1  UNL1        0.0870
      4  O          4.2330    2.0350    1.5910 O.2     1  UNL1       -0.3000
      5  C          7.0940    1.1850   -0.2300 C.3     1  UNL1        0.0430
      6  C          7.4860   -0.0920   -0.8520 C.2     1  UNL1       -0.0440
      7  C          7.4920   -0.2590   -2.2410 C.2     1  UNL1        0.0080
      8  C          7.8600   -1.1520   -0.0570 C.2     1  UNL1        0.0540
      9  C          7.8700   -1.4810   -2.7690 C.2     1  UNL1        0.0510
     10  C          8.2420   -2.3840   -0.5950 C.2     1  UNL1        0.1660
     11  C          8.2460   -2.5500   -1.9620 C.2     1  UNL1        0.1650
     12  O          8.6480   -3.5730   -0.0260 O.2     1  UNL1       -0.4540
     13  O          8.6610   -3.8500   -2.2070 O.2     1  UNL1       -0.4540
     14  C          9.0130   -4.5050   -1.0110 C.3     1  UNL1        0.4680
@<TRIPOS>BOND
     1     9     7    1
     2     9    11    2
     3     7     6    2
     4    13    11    1
     5    13    14    1
     6    11    10    1
     7    14    12    1
     8     6     5    1
     9     6     8    1
    10    10     8    2
    11    10    12    1
    12     5     1    1
    13     1     2    1
    14     2     4    2
    15     2     3    1
