@<TRIPOS>MOLECULE
/home/cewinharhar/GITHUB/reincatalyze/data/processed/docking_pred/2023-May-22-2206_sub9_nm5_bs15_s42_ex16_mel10_mts10000_k50_ec02_g099_lra9e-4_lrc1e-3/3dd20a82ca316ee4e9168eadca9f8684e5881f32_ligand_9.pdbqt
 14 15 0 0 0
SMALL
GASTEIGER

@<TRIPOS>ATOM
      1  C          6.3590    1.2330    0.8730 C.3     1  UNL1        0.0800
      2  C          5.6640    0.4190    1.9090 C.2     1  UNL1        0.1300
      3  C          6.2870   -0.7990    2.4930 C.3     1  UNL1        0.0870
      4  O          4.5550    0.7320    2.3120 O.2     1  UNL1       -0.3000
      5  C          5.8460    0.9090   -0.5160 C.3     1  UNL1        0.0430
      6  C          6.8080    0.0930   -1.2780 C.2     1  UNL1       -0.0440
      7  C          7.5170    0.6180   -2.3640 C.2     1  UNL1        0.0080
      8  C          7.0240   -1.2180   -0.9190 C.2     1  UNL1        0.0540
      9  C          8.4080   -0.1950   -3.0400 C.2     1  UNL1        0.0510
     10  C          7.9260   -2.0360   -1.6060 C.2     1  UNL1        0.1660
     11  C          8.6240   -1.5200   -2.6760 C.2     1  UNL1        0.1650
     12  O          8.3110   -3.3510   -1.4480 O.2     1  UNL1       -0.4540
     13  O          9.4320   -2.5390   -3.1560 O.2     1  UNL1       -0.4540
     14  C          9.3320   -3.6890   -2.3510 C.3     1  UNL1        0.4680
@<TRIPOS>BOND
     1    13    11    1
     2    13    14    1
     3     9    11    2
     4     9     7    1
     5    11    10    1
     6     7     6    2
     7    14    12    1
     8    10    12    1
     9    10     8    2
    10     6     8    1
    11     6     5    1
    12     5     1    1
    13     1     2    1
    14     2     4    2
    15     2     3    1
