@<TRIPOS>MOLECULE
/home/cewinharhar/GITHUB/reincatalyze/data/processed/docking_pred/2023-May-22-2206_sub9_nm5_bs15_s42_ex16_mel10_mts10000_k50_ec02_g099_lra9e-4_lrc1e-3/3e742204aaadd08b2af2eabe2bac092cf241077d_ligand_9.pdbqt
 14 15 0 0 0
SMALL
GASTEIGER

@<TRIPOS>ATOM
      1  C          6.3950    1.1740    0.9600 C.3     1  UNL1        0.0800
      2  C          5.6490    0.3540    1.9550 C.2     1  UNL1        0.1300
      3  C          6.2320   -0.8820    2.5420 C.3     1  UNL1        0.0870
      4  O          4.5290    0.6760    2.3190 O.2     1  UNL1       -0.3000
      5  C          5.8920    0.9240   -0.4480 C.3     1  UNL1        0.0430
      6  C          6.8320    0.0950   -1.2240 C.2     1  UNL1       -0.0440
      7  C          7.5060    0.6030   -2.3410 C.2     1  UNL1        0.0080
      8  C          7.0610   -1.2090   -0.8500 C.2     1  UNL1        0.0540
      9  C          8.3770   -0.2210   -3.0300 C.2     1  UNL1        0.0510
     10  C          7.9430   -2.0380   -1.5500 C.2     1  UNL1        0.1660
     11  C          8.6060   -1.5390   -2.6500 C.2     1  UNL1        0.1650
     12  O          8.3350   -3.3490   -1.3810 O.2     1  UNL1       -0.4540
     13  O          9.4000   -2.5650   -3.1370 O.2     1  UNL1       -0.4540
     14  C          9.3280   -3.7020   -2.3100 C.3     1  UNL1        0.4680
@<TRIPOS>BOND
     1    13    11    1
     2    13    14    1
     3     9    11    2
     4     9     7    1
     5    11    10    1
     6     7     6    2
     7    14    12    1
     8    10    12    1
     9    10     8    2
    10     6     8    1
    11     6     5    1
    12     5     1    1
    13     1     2    1
    14     2     4    2
    15     2     3    1
