@<TRIPOS>MOLECULE
/home/cewinharhar/GITHUB/reincatalyze/data/processed/docking_pred/2023-May-22-2206_sub9_nm5_bs15_s42_ex16_mel10_mts10000_k50_ec02_g099_lra9e-4_lrc1e-3/3e742204aaadd08b2af2eabe2bac092cf241077d_ligand_9.pdbqt
 14 15 0 0 0
SMALL
GASTEIGER

@<TRIPOS>ATOM
      1  C          5.5520    1.9210    1.2800 C.3     1  UNL1        0.0800
      2  C          5.1170    0.7030    2.0190 C.2     1  UNL1        0.1300
      3  C          6.0190   -0.4650    2.2000 C.3     1  UNL1        0.0870
      4  O          3.9980    0.6300    2.5020 O.2     1  UNL1       -0.3000
      5  C          5.4170    1.7320   -0.2180 C.3     1  UNL1        0.0430
      6  C          6.5800    1.0290   -0.7880 C.2     1  UNL1       -0.0440
      7  C          7.8890    1.4600   -0.5430 C.2     1  UNL1        0.0080
      8  C          6.3870   -0.0810   -1.5780 C.2     1  UNL1        0.0540
      9  C          8.9420    0.7600   -1.1040 C.2     1  UNL1        0.0510
     10  C          7.4540   -0.7860   -2.1420 C.2     1  UNL1        0.1660
     11  C          8.7430   -0.3620   -1.9030 C.2     1  UNL1        0.1650
     12  O          7.5220   -1.9010   -2.9500 O.2     1  UNL1       -0.4540
     13  O          9.5830   -1.2350   -2.5760 O.2     1  UNL1       -0.4540
     14  C          8.8560   -2.2790   -3.1780 C.3     1  UNL1        0.4680
@<TRIPOS>BOND
     1    14    12    1
     2    14    13    1
     3    12    10    1
     4    13    11    1
     5    10    11    2
     6    10     8    1
     7    11     9    1
     8     8     6    2
     9     9     7    2
    10     6     7    1
    11     6     5    1
    12     5     1    1
    13     1     2    1
    14     2     3    1
    15     2     4    2
