@<TRIPOS>MOLECULE
/home/cewinharhar/GITHUB/reincatalyze/data/processed/docking_pred/2023-May-22-2206_sub9_nm5_bs15_s42_ex16_mel10_mts10000_k50_ec02_g099_lra9e-4_lrc1e-3/3e742204aaadd08b2af2eabe2bac092cf241077d_ligand_9.pdbqt
 14 15 0 0 0
SMALL
GASTEIGER

@<TRIPOS>ATOM
      1  C          8.3120    0.1630   -2.7290 C.3     1  UNL1        0.0800
      2  C          8.0580   -1.3030   -2.8050 C.2     1  UNL1        0.1300
      3  C          9.1620   -2.2770   -3.0150 C.3     1  UNL1        0.0870
      4  O          6.9270   -1.7490   -2.6960 O.2     1  UNL1       -0.3000
      5  C          8.8570    0.5580   -1.3710 C.3     1  UNL1        0.0430
      6  C          7.8420    0.4150   -0.3120 C.2     1  UNL1       -0.0440
      7  C          7.9730   -0.5360    0.7060 C.2     1  UNL1        0.0080
      8  C          6.7340    1.2330   -0.3140 C.2     1  UNL1        0.0540
      9  C          6.9890   -0.6240    1.6730 C.2     1  UNL1        0.0510
     10  C          5.7420    1.1410    0.6670 C.2     1  UNL1        0.1660
     11  C          5.8710    0.2040    1.6680 C.2     1  UNL1        0.1650
     12  O          4.5660    1.8270    0.8810 O.2     1  UNL1       -0.4540
     13  O          4.7590    0.3370    2.4860 O.2     1  UNL1       -0.4540
     14  C          3.9520    1.4150    2.0750 C.3     1  UNL1        0.4680
@<TRIPOS>BOND
     1     3     2    1
     2     2     1    1
     3     2     4    2
     4     1     5    1
     5     5     6    1
     6     8     6    2
     7     8    10    1
     8     6     7    1
     9    10    12    1
    10    10    11    2
    11     7     9    2
    12    12    14    1
    13    11     9    1
    14    11    13    1
    15    14    13    1
