@<TRIPOS>MOLECULE
/home/cewinharhar/GITHUB/reincatalyze/data/processed/docking_pred/2023-May-22-2206_sub9_nm5_bs15_s42_ex16_mel10_mts10000_k50_ec02_g099_lra9e-4_lrc1e-3/3ef00b253c4480de2280c2f95d83164b82996574_ligand_9.pdbqt
 14 15 0 0 0
SMALL
GASTEIGER

@<TRIPOS>ATOM
      1  C          6.1710   -0.7790    2.4900 C.3     1  UNL1        0.0800
      2  C          5.4200    0.3220    1.8240 C.2     1  UNL1        0.1300
      3  C          5.8300    0.8560    0.4980 C.3     1  UNL1        0.0870
      4  O          4.4400    0.8210    2.3520 O.2     1  UNL1       -0.3000
      5  C          7.4830   -1.0570    1.7830 C.3     1  UNL1        0.0430
      6  C          8.5100   -1.5570    2.7130 C.2     1  UNL1       -0.0440
      7  C          8.4060   -1.3600    4.0950 C.2     1  UNL1        0.0080
      8  C          9.6020   -2.2370    2.2230 C.2     1  UNL1        0.0540
      9  C          9.4000   -1.8530    4.9200 C.2     1  UNL1        0.0510
     10  C         10.6040   -2.7340    3.0620 C.2     1  UNL1        0.1660
     11  C         10.5030   -2.5400    4.4210 C.2     1  UNL1        0.1650
     12  O         11.7700   -3.4310    2.8220 O.2     1  UNL1       -0.4540
     13  O         11.6190   -3.1290    4.9950 O.2     1  UNL1       -0.4540
     14  C         12.4020   -3.7840    4.0260 C.3     1  UNL1        0.4680
@<TRIPOS>BOND
     1     3     2    1
     2     5     1    1
     3     5     6    1
     4     2     4    2
     5     2     1    1
     6     8     6    2
     7     8    10    1
     8     6     7    1
     9    12    10    1
    10    12    14    1
    11    10    11    2
    12    14    13    1
    13     7     9    2
    14    11     9    1
    15    11    13    1
