@<TRIPOS>MOLECULE
/home/cewinharhar/GITHUB/reincatalyze/data/processed/docking_pred/2023-May-22-2206_sub9_nm5_bs15_s42_ex16_mel10_mts10000_k50_ec02_g099_lra9e-4_lrc1e-3/404021d27c656f8fbd9408a440432f577c9906d0_ligand_9.pdbqt
 14 15 0 0 0
SMALL
GASTEIGER

@<TRIPOS>ATOM
      1  C          5.9330    1.1240   -0.2090 C.3     1  UNL1        0.0800
      2  C          5.8860    1.1480    1.2790 C.2     1  UNL1        0.1300
      3  C          5.3210    0.0160    2.0610 C.3     1  UNL1        0.0870
      4  O          6.3140    2.1050    1.9040 O.2     1  UNL1       -0.3000
      5  C          7.3620    1.1100   -0.7150 C.3     1  UNL1        0.0430
      6  C          7.7600   -0.2250   -1.1940 C.2     1  UNL1       -0.0440
      7  C          7.9840   -0.4810   -2.5520 C.2     1  UNL1        0.0080
      8  C          7.9200   -1.2530   -0.2920 C.2     1  UNL1        0.0540
      9  C          8.3560   -1.7540   -2.9420 C.2     1  UNL1        0.0510
     10  C          8.2980   -2.5390   -0.6920 C.2     1  UNL1        0.1660
     11  C          8.5170   -2.7910   -2.0280 C.2     1  UNL1        0.1650
     12  O          8.5190   -3.7110   -0.0010 O.2     1  UNL1       -0.4540
     13  O          8.8730   -4.1270   -2.1300 O.2     1  UNL1       -0.4540
     14  C          8.9750   -4.7240   -0.8600 C.3     1  UNL1        0.4680
@<TRIPOS>BOND
     1     9     7    1
     2     9    11    2
     3     7     6    2
     4    13    11    1
     5    13    14    1
     6    11    10    1
     7     6     5    1
     8     6     8    1
     9    14    12    1
    10     5     1    1
    11    10     8    2
    12    10    12    1
    13     1     2    1
    14     2     4    2
    15     2     3    1
