@<TRIPOS>MOLECULE
/home/cewinharhar/GITHUB/reincatalyze/data/processed/docking_pred/2023-May-22-2206_sub9_nm5_bs15_s42_ex16_mel10_mts10000_k50_ec02_g099_lra9e-4_lrc1e-3/404021d27c656f8fbd9408a440432f577c9906d0_ligand_9.pdbqt
 14 15 0 0 0
SMALL
GASTEIGER

@<TRIPOS>ATOM
      1  C          6.3490    1.2330    0.8840 C.3     1  UNL1        0.0800
      2  C          5.6570    0.4110    1.9160 C.2     1  UNL1        0.1300
      3  C          6.2860   -0.8080    2.4930 C.3     1  UNL1        0.0870
      4  O          4.5470    0.7160    2.3190 O.2     1  UNL1       -0.3000
      5  C          5.8400    0.9110   -0.5080 C.3     1  UNL1        0.0430
      6  C          6.8080    0.1000   -1.2690 C.2     1  UNL1       -0.0440
      7  C          7.5260    0.6350   -2.3440 C.2     1  UNL1        0.0080
      8  C          7.0190   -1.2150   -0.9210 C.2     1  UNL1        0.0540
      9  C          8.4220   -0.1740   -3.0210 C.2     1  UNL1        0.0510
     10  C          7.9260   -2.0280   -1.6080 C.2     1  UNL1        0.1660
     11  C          8.6320   -1.5030   -2.6670 C.2     1  UNL1        0.1650
     12  O          8.3070   -3.3440   -1.4580 O.2     1  UNL1       -0.4540
     13  O          9.4430   -2.5180   -3.1500 O.2     1  UNL1       -0.4540
     14  C          9.3350   -3.6760   -2.3560 C.3     1  UNL1        0.4680
@<TRIPOS>BOND
     1    13    11    1
     2    13    14    1
     3     9    11    2
     4     9     7    1
     5    11    10    1
     6    14    12    1
     7     7     6    2
     8    10    12    1
     9    10     8    2
    10     6     8    1
    11     6     5    1
    12     5     1    1
    13     1     2    1
    14     2     4    2
    15     2     3    1
