MODEL 1
REMARK VINA RESULT:      -7.6      0.000      0.000
REMARK SMILES CC(=O)CCc1ccc2c(c1)OCO2
REMARK SMILES IDX 4 1 2 2 1 3 3 4 5 5 6 6 7 7 11 8 8 9 10 10 9 11 12 12 14 13
REMARK SMILES IDX 13 14
REMARK H PARENT
REMARK Flexibility Score: inf
ROOT
ATOM      1  C   UNL     1       5.525   1.954   1.250  1.00  0.00     0.080 C 
ENDROOT
BRANCH   1   2
ATOM      2  C   UNL     1       5.119   0.734   2.003  1.00  0.00     0.130 C 
ATOM      3  C   UNL     1       6.049  -0.411   2.194  1.00  0.00     0.087 C 
ATOM      4  O   UNL     1       4.003   0.639   2.488  1.00  0.00    -0.300 OA
ENDBRANCH   1   2
BRANCH   1   5
ATOM      5  C   UNL     1       5.396   1.745  -0.246  1.00  0.00     0.043 C 
BRANCH   5   6
ATOM      6  C   UNL     1       6.565   1.039  -0.801  1.00  0.00    -0.044 A 
ATOM      7  C   UNL     1       7.872   1.464  -0.537  1.00  0.00     0.008 A 
ATOM      8  C   UNL     1       6.378  -0.067  -1.598  1.00  0.00     0.054 A 
ATOM      9  C   UNL     1       8.930   0.761  -1.085  1.00  0.00     0.051 A 
ATOM     10  C   UNL     1       7.451  -0.774  -2.150  1.00  0.00     0.166 A 
ATOM     11  C   UNL     1       8.737  -0.356  -1.891  1.00  0.00     0.165 A 
ATOM     12  O   UNL     1       7.525  -1.886  -2.961  1.00  0.00    -0.454 OA
ATOM     13  O   UNL     1       9.584  -1.230  -2.555  1.00  0.00    -0.454 OA
ATOM     14  C   UNL     1       8.860  -2.269  -3.171  1.00  0.00     0.468 C 
ENDBRANCH   5   6
ENDBRANCH   1   5
TORSDOF 3
ENDMDL
MODEL 2
REMARK VINA RESULT:      -7.5      1.913      2.401
REMARK SMILES CC(=O)CCc1ccc2c(c1)OCO2
REMARK SMILES IDX 4 1 2 2 1 3 3 4 5 5 6 6 7 7 11 8 8 9 10 10 9 11 12 12 14 13
REMARK SMILES IDX 13 14
REMARK H PARENT
REMARK Flexibility Score: inf
ROOT
ATOM      1  C   UNL     1       5.753   1.336  -0.335  1.00  0.00     0.080 C 
ENDROOT
BRANCH   1   2
ATOM      2  C   UNL     1       5.164   1.276   1.032  1.00  0.00     0.130 C 
ATOM      3  C   UNL     1       5.466   0.156   1.963  1.00  0.00     0.087 C 
ATOM      4  O   UNL     1       4.411   2.150   1.429  1.00  0.00    -0.300 OA
ENDBRANCH   1   2
BRANCH   1   5
ATOM      5  C   UNL     1       7.249   1.095  -0.302  1.00  0.00     0.043 C 
BRANCH   5   6
ATOM      6  C   UNL     1       7.607  -0.198  -0.911  1.00  0.00    -0.044 A 
ATOM      7  C   UNL     1       7.631  -0.373  -2.300  1.00  0.00     0.008 A 
ATOM      8  C   UNL     1       7.931  -1.266  -0.105  1.00  0.00     0.054 A 
ATOM      9  C   UNL     1       7.976  -1.609  -2.815  1.00  0.00     0.051 A 
ATOM     10  C   UNL     1       8.280  -2.514  -0.631  1.00  0.00     0.166 A 
ATOM     11  C   UNL     1       8.302  -2.686  -1.997  1.00  0.00     0.165 A 
ATOM     12  O   UNL     1       8.636  -3.712  -0.050  1.00  0.00    -0.454 OA
ATOM     13  O   UNL     1       8.676  -4.001  -2.229  1.00  0.00    -0.454 OA
ATOM     14  C   UNL     1       8.985  -4.661  -1.025  1.00  0.00     0.468 C 
ENDBRANCH   5   6
ENDBRANCH   1   5
TORSDOF 3
ENDMDL
MODEL 3
REMARK VINA RESULT:      -7.2      2.097      2.630
REMARK SMILES CC(=O)CCc1ccc2c(c1)OCO2
REMARK SMILES IDX 4 1 2 2 1 3 3 4 5 5 6 6 7 7 11 8 8 9 10 10 9 11 12 12 14 13
REMARK SMILES IDX 13 14
REMARK H PARENT
REMARK Flexibility Score: inf
ROOT
ATOM      1  C   UNL     1       5.591   0.026   1.941  1.00  0.00     0.080 C 
ENDROOT
BRANCH   1   2
ATOM      2  C   UNL     1       4.684   1.165   1.628  1.00  0.00     0.130 C 
ATOM      3  C   UNL     1       4.958   2.094   0.499  1.00  0.00     0.087 C 
ATOM      4  O   UNL     1       3.683   1.371   2.296  1.00  0.00    -0.300 OA
ENDBRANCH   1   2
BRANCH   1   5
ATOM      5  C   UNL     1       6.997   0.288   1.439  1.00  0.00     0.043 C 
BRANCH   5   6
ATOM      6  C   UNL     1       7.400  -0.686   0.409  1.00  0.00    -0.044 A 
ATOM      7  C   UNL     1       7.305  -0.392  -0.956  1.00  0.00     0.008 A 
ATOM      8  C   UNL     1       7.886  -1.917   0.787  1.00  0.00     0.054 A 
ATOM      9  C   UNL     1       7.698  -1.345  -1.877  1.00  0.00     0.051 A 
ATOM     10  C   UNL     1       8.284  -2.877  -0.148  1.00  0.00     0.166 A 
ATOM     11  C   UNL     1       8.189  -2.589  -1.491  1.00  0.00     0.165 A 
ATOM     12  O   UNL     1       8.791  -4.154  -0.027  1.00  0.00    -0.454 OA
ATOM     13  O   UNL     1       8.645  -3.705  -2.174  1.00  0.00    -0.454 OA
ATOM     14  C   UNL     1       9.122  -4.686  -1.284  1.00  0.00     0.468 C 
ENDBRANCH   5   6
ENDBRANCH   1   5
TORSDOF 3
ENDMDL
MODEL 4
REMARK VINA RESULT:      -7.1      1.256      1.472
REMARK SMILES CC(=O)CCc1ccc2c(c1)OCO2
REMARK SMILES IDX 4 1 2 2 1 3 3 4 5 5 6 6 7 7 11 8 8 9 10 10 9 11 12 12 14 13
REMARK SMILES IDX 13 14
REMARK H PARENT
REMARK Flexibility Score: inf
ROOT
ATOM      1  C   UNL     1       6.369   1.185   0.921  1.00  0.00     0.080 C 
ENDROOT
BRANCH   1   2
ATOM      2  C   UNL     1       5.652   0.371   1.941  1.00  0.00     0.130 C 
ATOM      3  C   UNL     1       6.250  -0.863   2.517  1.00  0.00     0.087 C 
ATOM      4  O   UNL     1       4.543   0.695   2.335  1.00  0.00    -0.300 OA
ENDBRANCH   1   2
BRANCH   1   5
ATOM      5  C   UNL     1       5.856   0.896  -0.476  1.00  0.00     0.043 C 
BRANCH   5   6
ATOM      6  C   UNL     1       6.811   0.084  -1.251  1.00  0.00    -0.044 A 
ATOM      7  C   UNL     1       7.500   0.613  -2.349  1.00  0.00     0.008 A 
ATOM      8  C   UNL     1       7.040  -1.225  -0.895  1.00  0.00     0.054 A 
ATOM      9  C   UNL     1       8.384  -0.196  -3.039  1.00  0.00     0.051 A 
ATOM     10  C   UNL     1       7.936  -2.039  -1.595  1.00  0.00     0.166 A 
ATOM     11  C   UNL     1       8.613  -1.520  -2.676  1.00  0.00     0.165 A 
ATOM     12  O   UNL     1       8.330  -3.351  -1.442  1.00  0.00    -0.454 OA
ATOM     13  O   UNL     1       9.419  -2.535  -3.169  1.00  0.00    -0.454 OA
ATOM     14  C   UNL     1       9.339  -3.685  -2.361  1.00  0.00     0.468 C 
ENDBRANCH   5   6
ENDBRANCH   1   5
TORSDOF 3
ENDMDL
MODEL 5
REMARK VINA RESULT:      -6.8      1.262      1.763
REMARK SMILES CC(=O)CCc1ccc2c(c1)OCO2
REMARK SMILES IDX 4 1 2 2 1 3 3 4 5 5 6 6 7 7 11 8 8 9 10 10 9 11 12 12 14 13
REMARK SMILES IDX 13 14
REMARK H PARENT
REMARK Flexibility Score: inf
ROOT
ATOM      1  C   UNL     1       5.316  -0.079   1.975  1.00  0.00     0.080 C 
ENDROOT
BRANCH   1   2
ATOM      2  C   UNL     1       4.441   1.110   1.779  1.00  0.00     0.130 C 
ATOM      3  C   UNL     1       4.732   2.130   0.736  1.00  0.00     0.087 C 
ATOM      4  O   UNL     1       3.453   1.283   2.474  1.00  0.00    -0.300 OA
ENDBRANCH   1   2
BRANCH   1   5
ATOM      5  C   UNL     1       6.783   0.301   1.920  1.00  0.00     0.043 C 
BRANCH   5   6
ATOM      6  C   UNL     1       7.389  -0.046   0.622  1.00  0.00    -0.044 A 
ATOM      7  C   UNL     1       7.886   0.937  -0.241  1.00  0.00     0.008 A 
ATOM      8  C   UNL     1       7.475  -1.366   0.241  1.00  0.00     0.054 A 
ATOM      9  C   UNL     1       8.445   0.551  -1.446  1.00  0.00     0.051 A 
ATOM     10  C   UNL     1       8.041  -1.751  -0.978  1.00  0.00     0.166 A 
ATOM     11  C   UNL     1       8.530  -0.784  -1.829  1.00  0.00     0.165 A 
ATOM     12  O   UNL     1       8.240  -2.977  -1.577  1.00  0.00    -0.454 OA
ATOM     13  O   UNL     1       9.024  -1.444  -2.943  1.00  0.00    -0.454 OA
ATOM     14  C   UNL     1       8.943  -2.840  -2.785  1.00  0.00     0.468 C 
ENDBRANCH   5   6
ENDBRANCH   1   5
TORSDOF 3
ENDMDL
