@<TRIPOS>MOLECULE
/home/cewinharhar/GITHUB/reincatalyze/data/processed/docking_pred/2023-May-22-2206_sub9_nm5_bs15_s42_ex16_mel10_mts10000_k50_ec02_g099_lra9e-4_lrc1e-3/41d0b72e0d67d5e9a3b384f9954b5fa92cfe5642_ligand_9.pdbqt
 14 15 0 0 0
SMALL
GASTEIGER

@<TRIPOS>ATOM
      1  C          5.5910    0.0260    1.9410 C.3     1  UNL1        0.0800
      2  C          4.6840    1.1650    1.6280 C.2     1  UNL1        0.1300
      3  C          4.9580    2.0940    0.4990 C.3     1  UNL1        0.0870
      4  O          3.6830    1.3710    2.2960 O.2     1  UNL1       -0.3000
      5  C          6.9970    0.2880    1.4390 C.3     1  UNL1        0.0430
      6  C          7.4000   -0.6860    0.4090 C.2     1  UNL1       -0.0440
      7  C          7.3050   -0.3920   -0.9560 C.2     1  UNL1        0.0080
      8  C          7.8860   -1.9170    0.7870 C.2     1  UNL1        0.0540
      9  C          7.6980   -1.3450   -1.8770 C.2     1  UNL1        0.0510
     10  C          8.2840   -2.8770   -0.1480 C.2     1  UNL1        0.1660
     11  C          8.1890   -2.5890   -1.4910 C.2     1  UNL1        0.1650
     12  O          8.7910   -4.1540   -0.0270 O.2     1  UNL1       -0.4540
     13  O          8.6450   -3.7050   -2.1740 O.2     1  UNL1       -0.4540
     14  C          9.1220   -4.6860   -1.2840 C.3     1  UNL1        0.4680
@<TRIPOS>BOND
     1    13    11    1
     2    13    14    1
     3     9    11    2
     4     9     7    1
     5    11    10    1
     6    14    12    1
     7     7     6    2
     8    10    12    1
     9    10     8    2
    10     6     8    1
    11     6     5    1
    12     3     2    1
    13     5     1    1
    14     2     1    1
    15     2     4    2
