MODEL 1
REMARK VINA RESULT:      -7.3      0.000      0.000
REMARK SMILES CC(=O)CCc1ccc2c(c1)OCO2
REMARK SMILES IDX 4 1 2 2 1 3 3 4 5 5 6 6 7 7 11 8 8 9 10 10 9 11 12 12 14 13
REMARK SMILES IDX 13 14
REMARK H PARENT
REMARK Flexibility Score: inf
ROOT
ATOM      1  C   UNL     1       5.699   1.109  -0.357  1.00  0.00     0.080 C 
ENDROOT
BRANCH   1   2
ATOM      2  C   UNL     1       5.363   1.255   1.087  1.00  0.00     0.130 C 
ATOM      3  C   UNL     1       6.125   0.536   2.142  1.00  0.00     0.087 C 
ATOM      4  O   UNL     1       4.445   1.974   1.447  1.00  0.00    -0.300 OA
ENDBRANCH   1   2
BRANCH   1   5
ATOM      5  C   UNL     1       7.199   1.063  -0.571  1.00  0.00     0.043 C 
BRANCH   5   6
ATOM      6  C   UNL     1       7.634  -0.239  -1.107  1.00  0.00    -0.044 A 
ATOM      7  C   UNL     1       7.850  -0.433  -2.476  1.00  0.00     0.008 A 
ATOM      8  C   UNL     1       7.840  -1.295  -0.249  1.00  0.00     0.054 A 
ATOM      9  C   UNL     1       8.259  -1.676  -2.922  1.00  0.00     0.051 A 
ATOM     10  C   UNL     1       8.254  -2.551  -0.705  1.00  0.00     0.166 A 
ATOM     11  C   UNL     1       8.465  -2.743  -2.052  1.00  0.00     0.165 A 
ATOM     12  O   UNL     1       8.522  -3.741  -0.063  1.00  0.00    -0.454 OA
ATOM     13  O   UNL     1       8.864  -4.061  -2.211  1.00  0.00    -0.454 OA
ATOM     14  C   UNL     1       9.001  -4.704  -0.967  1.00  0.00     0.468 C 
ENDBRANCH   5   6
ENDBRANCH   1   5
TORSDOF 3
ENDMDL
MODEL 2
REMARK VINA RESULT:      -7.3      1.855      2.358
REMARK SMILES CC(=O)CCc1ccc2c(c1)OCO2
REMARK SMILES IDX 4 1 2 2 1 3 3 4 5 5 6 6 7 7 11 8 8 9 10 10 9 11 12 12 14 13
REMARK SMILES IDX 13 14
REMARK H PARENT
REMARK Flexibility Score: inf
ROOT
ATOM      1  C   UNL     1       5.657   2.118   1.148  1.00  0.00     0.080 C 
ENDROOT
BRANCH   1   2
ATOM      2  C   UNL     1       5.431   0.925   2.010  1.00  0.00     0.130 C 
ATOM      3  C   UNL     1       6.537  -0.009   2.355  1.00  0.00     0.087 C 
ATOM      4  O   UNL     1       4.325   0.677   2.461  1.00  0.00    -0.300 OA
ENDBRANCH   1   2
BRANCH   1   5
ATOM      5  C   UNL     1       5.463   1.782  -0.318  1.00  0.00     0.043 C 
BRANCH   5   6
ATOM      6  C   UNL     1       6.619   1.051  -0.868  1.00  0.00    -0.044 A 
ATOM      7  C   UNL     1       7.932   1.485  -0.651  1.00  0.00     0.008 A 
ATOM      8  C   UNL     1       6.414  -0.088  -1.613  1.00  0.00     0.054 A 
ATOM      9  C   UNL     1       8.977   0.758  -1.192  1.00  0.00     0.051 A 
ATOM     10  C   UNL     1       7.474  -0.820  -2.156  1.00  0.00     0.166 A 
ATOM     11  C   UNL     1       8.766  -0.393  -1.944  1.00  0.00     0.165 A 
ATOM     12  O   UNL     1       7.530  -1.966  -2.921  1.00  0.00    -0.454 OA
ATOM     13  O   UNL     1       9.597  -1.296  -2.589  1.00  0.00    -0.454 OA
ATOM     14  C   UNL     1       8.860  -2.359  -3.144  1.00  0.00     0.468 C 
ENDBRANCH   5   6
ENDBRANCH   1   5
TORSDOF 3
ENDMDL
MODEL 3
REMARK VINA RESULT:      -7.2      0.700      1.022
REMARK SMILES CC(=O)CCc1ccc2c(c1)OCO2
REMARK SMILES IDX 4 1 2 2 1 3 3 4 5 5 6 6 7 7 11 8 8 9 10 10 9 11 12 12 14 13
REMARK SMILES IDX 13 14
REMARK H PARENT
REMARK Flexibility Score: inf
ROOT
ATOM      1  C   UNL     1       6.728   0.590   1.286  1.00  0.00     0.080 C 
ENDROOT
BRANCH   1   2
ATOM      2  C   UNL     1       5.360   1.166   1.401  1.00  0.00     0.130 C 
ATOM      3  C   UNL     1       4.841   2.150   0.412  1.00  0.00     0.087 C 
ATOM      4  O   UNL     1       4.619   0.846   2.316  1.00  0.00    -0.300 OA
ENDBRANCH   1   2
BRANCH   1   5
ATOM      5  C   UNL     1       7.308   0.818  -0.096  1.00  0.00     0.043 C 
BRANCH   5   6
ATOM      6  C   UNL     1       7.692  -0.449  -0.743  1.00  0.00    -0.044 A 
ATOM      7  C   UNL     1       7.747  -0.573  -2.136  1.00  0.00     0.008 A 
ATOM      8  C   UNL     1       8.008  -1.542   0.031  1.00  0.00     0.054 A 
ATOM      9  C   UNL     1       8.114  -1.787  -2.688  1.00  0.00     0.051 A 
ATOM     10  C   UNL     1       8.380  -2.767  -0.531  1.00  0.00     0.166 A 
ATOM     11  C   UNL     1       8.433  -2.891  -1.902  1.00  0.00     0.165 A 
ATOM     12  O   UNL     1       8.735  -3.982   0.014  1.00  0.00    -0.454 OA
ATOM     13  O   UNL     1       8.825  -4.192  -2.172  1.00  0.00    -0.454 OA
ATOM     14  C   UNL     1       9.115  -4.893  -0.986  1.00  0.00     0.468 C 
ENDBRANCH   5   6
ENDBRANCH   1   5
TORSDOF 3
ENDMDL
MODEL 4
REMARK VINA RESULT:      -6.9      1.116      1.371
REMARK SMILES CC(=O)CCc1ccc2c(c1)OCO2
REMARK SMILES IDX 4 1 2 2 1 3 3 4 5 5 6 6 7 7 11 8 8 9 10 10 9 11 12 12 14 13
REMARK SMILES IDX 13 14
REMARK H PARENT
REMARK Flexibility Score: inf
ROOT
ATOM      1  C   UNL     1       6.384   1.556   0.727  1.00  0.00     0.080 C 
ENDROOT
BRANCH   1   2
ATOM      2  C   UNL     1       5.926   0.740   1.886  1.00  0.00     0.130 C 
ATOM      3  C   UNL     1       6.818  -0.251   2.545  1.00  0.00     0.087 C 
ATOM      4  O   UNL     1       4.795   0.861   2.329  1.00  0.00    -0.300 OA
ENDBRANCH   1   2
BRANCH   1   5
ATOM      5  C   UNL     1       5.800   1.043  -0.574  1.00  0.00     0.043 C 
BRANCH   5   6
ATOM      6  C   UNL     1       6.760   0.201  -1.310  1.00  0.00    -0.044 A 
ATOM      7  C   UNL     1       7.478   0.694  -2.405  1.00  0.00     0.008 A 
ATOM      8  C   UNL     1       6.965  -1.102  -0.917  1.00  0.00     0.054 A 
ATOM      9  C   UNL     1       8.366  -0.142  -3.057  1.00  0.00     0.051 A 
ATOM     10  C   UNL     1       7.865  -1.943  -1.579  1.00  0.00     0.166 A 
ATOM     11  C   UNL     1       8.571  -1.459  -2.658  1.00  0.00     0.165 A 
ATOM     12  O   UNL     1       8.240  -3.256  -1.385  1.00  0.00    -0.454 OA
ATOM     13  O   UNL     1       9.374  -2.495  -3.109  1.00  0.00    -0.454 OA
ATOM     14  C   UNL     1       9.263  -3.624  -2.275  1.00  0.00     0.468 C 
ENDBRANCH   5   6
ENDBRANCH   1   5
TORSDOF 3
ENDMDL
MODEL 5
REMARK VINA RESULT:      -6.5      1.807      5.333
REMARK SMILES CC(=O)CCc1ccc2c(c1)OCO2
REMARK SMILES IDX 4 1 2 2 1 3 3 4 5 5 6 6 7 7 11 8 8 9 10 10 9 11 12 12 14 13
REMARK SMILES IDX 13 14
REMARK H PARENT
REMARK Flexibility Score: inf
ROOT
ATOM      1  C   UNL     1       8.373   0.020  -2.869  1.00  0.00     0.080 C 
ENDROOT
BRANCH   1   2
ATOM      2  C   UNL     1       8.171  -1.454  -2.929  1.00  0.00     0.130 C 
ATOM      3  C   UNL     1       9.318  -2.398  -3.010  1.00  0.00     0.087 C 
ATOM      4  O   UNL     1       7.048  -1.934  -2.915  1.00  0.00    -0.300 OA
ENDBRANCH   1   2
BRANCH   1   5
ATOM      5  C   UNL     1       9.013   0.435  -1.558  1.00  0.00     0.043 C 
BRANCH   5   6
ATOM      6  C   UNL     1       8.054   0.378  -0.440  1.00  0.00    -0.044 A 
ATOM      7  C   UNL     1       8.308  -0.387   0.704  1.00  0.00     0.008 A 
ATOM      8  C   UNL     1       6.880   1.092  -0.512  1.00  0.00     0.054 A 
ATOM      9  C   UNL     1       7.371  -0.402   1.722  1.00  0.00     0.051 A 
ATOM     10  C   UNL     1       5.937   1.074   0.521  1.00  0.00     0.166 A 
ATOM     11  C   UNL     1       6.185   0.321   1.646  1.00  0.00     0.165 A 
ATOM     12  O   UNL     1       4.713   1.687   0.686  1.00  0.00    -0.454 OA
ATOM     13  O   UNL     1       5.097   0.490   2.489  1.00  0.00    -0.454 OA
ATOM     14  C   UNL     1       4.183   1.419   1.959  1.00  0.00     0.468 C 
ENDBRANCH   5   6
ENDBRANCH   1   5
TORSDOF 3
ENDMDL
