@<TRIPOS>MOLECULE
/home/cewinharhar/GITHUB/reincatalyze/data/processed/docking_pred/2023-May-22-2206_sub9_nm5_bs15_s42_ex16_mel10_mts10000_k50_ec02_g099_lra9e-4_lrc1e-3/42234a6127519c7502e2f6bf4b16ee47cf11c698_ligand_9.pdbqt
 14 15 0 0 0
SMALL
GASTEIGER

@<TRIPOS>ATOM
      1  C          6.3840    1.5560    0.7270 C.3     1  UNL1        0.0800
      2  C          5.9260    0.7400    1.8860 C.2     1  UNL1        0.1300
      3  C          6.8180   -0.2510    2.5450 C.3     1  UNL1        0.0870
      4  O          4.7950    0.8610    2.3290 O.2     1  UNL1       -0.3000
      5  C          5.8000    1.0430   -0.5740 C.3     1  UNL1        0.0430
      6  C          6.7600    0.2010   -1.3100 C.2     1  UNL1       -0.0440
      7  C          7.4780    0.6940   -2.4050 C.2     1  UNL1        0.0080
      8  C          6.9650   -1.1020   -0.9170 C.2     1  UNL1        0.0540
      9  C          8.3660   -0.1420   -3.0570 C.2     1  UNL1        0.0510
     10  C          7.8650   -1.9430   -1.5790 C.2     1  UNL1        0.1660
     11  C          8.5710   -1.4590   -2.6580 C.2     1  UNL1        0.1650
     12  O          8.2400   -3.2560   -1.3850 O.2     1  UNL1       -0.4540
     13  O          9.3740   -2.4950   -3.1090 O.2     1  UNL1       -0.4540
     14  C          9.2630   -3.6240   -2.2750 C.3     1  UNL1        0.4680
@<TRIPOS>BOND
     1    13    11    1
     2    13    14    1
     3     9    11    2
     4     9     7    1
     5    11    10    1
     6     7     6    2
     7    14    12    1
     8    10    12    1
     9    10     8    2
    10     6     8    1
    11     6     5    1
    12     5     1    1
    13     1     2    1
    14     2     4    2
    15     2     3    1
