@<TRIPOS>MOLECULE
/home/cewinharhar/GITHUB/reincatalyze/data/processed/docking_pred/2023-May-22-2206_sub9_nm5_bs15_s42_ex16_mel10_mts10000_k50_ec02_g099_lra9e-4_lrc1e-3/4295960a5818388fac6ce93a10a8a6662c8ec52f_ligand_9.pdbqt
 14 15 0 0 0
SMALL
GASTEIGER

@<TRIPOS>ATOM
      1  C          6.3630    1.2470    0.9100 C.3     1  UNL1        0.0800
      2  C          5.6610    0.4190    1.9300 C.2     1  UNL1        0.1300
      3  C          6.2870   -0.7970    2.5160 C.3     1  UNL1        0.0870
      4  O          4.5420    0.7160    2.3160 O.2     1  UNL1       -0.3000
      5  C          5.8530    0.9500   -0.4860 C.3     1  UNL1        0.0430
      6  C          6.8030    0.1230   -1.2510 C.2     1  UNL1       -0.0440
      7  C          7.4930    0.6320   -2.3570 C.2     1  UNL1        0.0080
      8  C          7.0270   -1.1820   -0.8750 C.2     1  UNL1        0.0540
      9  C          8.3730   -0.1900   -3.0360 C.2     1  UNL1        0.0510
     10  C          7.9190   -2.0090   -1.5650 C.2     1  UNL1        0.1660
     11  C          8.5970   -1.5100   -2.6540 C.2     1  UNL1        0.1650
     12  O          8.3080   -3.3210   -1.3920 O.2     1  UNL1       -0.4540
     13  O          9.3980   -2.5350   -3.1320 O.2     1  UNL1       -0.4540
     14  C          9.3140   -3.6720   -2.3080 C.3     1  UNL1        0.4680
@<TRIPOS>BOND
     1    13    11    1
     2    13    14    1
     3     9    11    2
     4     9     7    1
     5    11    10    1
     6     7     6    2
     7    14    12    1
     8    10    12    1
     9    10     8    2
    10     6     8    1
    11     6     5    1
    12     5     1    1
    13     1     2    1
    14     2     4    2
    15     2     3    1
