@<TRIPOS>MOLECULE
/home/cewinharhar/GITHUB/reincatalyze/data/processed/docking_pred/2023-May-22-2206_sub9_nm5_bs15_s42_ex16_mel10_mts10000_k50_ec02_g099_lra9e-4_lrc1e-3/4295960a5818388fac6ce93a10a8a6662c8ec52f_ligand_9.pdbqt
 14 15 0 0 0
SMALL
GASTEIGER

@<TRIPOS>ATOM
      1  C          5.3250   -0.0890    1.9470 C.3     1  UNL1        0.0800
      2  C          4.4510    1.1070    1.7900 C.2     1  UNL1        0.1300
      3  C          4.7310    2.1500    0.7670 C.3     1  UNL1        0.0870
      4  O          3.4730    1.2660    2.5020 O.2     1  UNL1       -0.3000
      5  C          6.7920    0.2910    1.8950 C.3     1  UNL1        0.0430
      6  C          7.4020   -0.0620    0.6010 C.2     1  UNL1       -0.0440
      7  C          7.9080    0.9170   -0.2620 C.2     1  UNL1        0.0080
      8  C          7.4830   -1.3820    0.2220 C.2     1  UNL1        0.0540
      9  C          8.4700    0.5270   -1.4640 C.2     1  UNL1        0.0510
     10  C          8.0530   -1.7720   -0.9940 C.2     1  UNL1        0.1660
     11  C          8.5500   -0.8090   -1.8440 C.2     1  UNL1        0.1650
     12  O          8.2480   -3.0000   -1.5890 O.2     1  UNL1       -0.4540
     13  O          9.0460   -1.4730   -2.9550 O.2     1  UNL1       -0.4540
     14  C          8.9570   -2.8690   -2.7950 C.3     1  UNL1        0.4680
@<TRIPOS>BOND
     1    13    14    1
     2    13    11    1
     3    14    12    1
     4    11     9    2
     5    11    10    1
     6    12    10    1
     7     9     7    1
     8    10     8    2
     9     7     6    2
    10     8     6    1
    11     6     5    1
    12     3     2    1
    13     2     1    1
    14     2     4    2
    15     5     1    1
