@<TRIPOS>MOLECULE
/home/cewinharhar/GITHUB/reincatalyze/data/processed/docking_pred/2023-May-22-2206_sub9_nm5_bs15_s42_ex16_mel10_mts10000_k50_ec02_g099_lra9e-4_lrc1e-3/4295960a5818388fac6ce93a10a8a6662c8ec52f_ligand_9.pdbqt
 14 15 0 0 0
SMALL
GASTEIGER

@<TRIPOS>ATOM
      1  C          5.5330    1.9190    1.2750 C.3     1  UNL1        0.0800
      2  C          5.0860    0.7020    2.0070 C.2     1  UNL1        0.1300
      3  C          5.9740   -0.4790    2.1750 C.3     1  UNL1        0.0870
      4  O          3.9690    0.6380    2.4940 O.2     1  UNL1       -0.3000
      5  C          5.4050    1.7380   -0.2250 C.3     1  UNL1        0.0430
      6  C          6.5690    1.0340   -0.7910 C.2     1  UNL1       -0.0440
      7  C          7.8780    1.4680   -0.5490 C.2     1  UNL1        0.0080
      8  C          6.3770   -0.0790   -1.5780 C.2     1  UNL1        0.0540
      9  C          8.9310    0.7670   -1.1070 C.2     1  UNL1        0.0510
     10  C          7.4460   -0.7850   -2.1390 C.2     1  UNL1        0.1660
     11  C          8.7340   -0.3570   -1.9020 C.2     1  UNL1        0.1650
     12  O          7.5150   -1.9020   -2.9430 O.2     1  UNL1       -0.4540
     13  O          9.5750   -1.2320   -2.5710 O.2     1  UNL1       -0.4540
     14  C          8.8490   -2.2790   -3.1690 C.3     1  UNL1        0.4680
@<TRIPOS>BOND
     1    14    12    1
     2    14    13    1
     3    12    10    1
     4    13    11    1
     5    10    11    2
     6    10     8    1
     7    11     9    1
     8     8     6    2
     9     9     7    2
    10     6     7    1
    11     6     5    1
    12     5     1    1
    13     1     2    1
    14     2     3    1
    15     2     4    2
