MODEL 1
REMARK VINA RESULT:      -7.7      0.000      0.000
REMARK SMILES CC(=O)CCc1ccc2c(c1)OCO2
REMARK SMILES IDX 4 1 2 2 1 3 3 4 5 5 6 6 7 7 11 8 8 9 10 10 9 11 12 12 14 13
REMARK SMILES IDX 13 14
REMARK H PARENT
REMARK Flexibility Score: inf
ROOT
ATOM      1  C   UNL     1       5.533   1.919   1.275  1.00  0.00     0.080 C 
ENDROOT
BRANCH   1   2
ATOM      2  C   UNL     1       5.086   0.702   2.007  1.00  0.00     0.130 C 
ATOM      3  C   UNL     1       5.974  -0.479   2.175  1.00  0.00     0.087 C 
ATOM      4  O   UNL     1       3.969   0.638   2.494  1.00  0.00    -0.300 OA
ENDBRANCH   1   2
BRANCH   1   5
ATOM      5  C   UNL     1       5.405   1.738  -0.225  1.00  0.00     0.043 C 
BRANCH   5   6
ATOM      6  C   UNL     1       6.569   1.034  -0.791  1.00  0.00    -0.044 A 
ATOM      7  C   UNL     1       7.878   1.468  -0.549  1.00  0.00     0.008 A 
ATOM      8  C   UNL     1       6.377  -0.079  -1.578  1.00  0.00     0.054 A 
ATOM      9  C   UNL     1       8.931   0.767  -1.107  1.00  0.00     0.051 A 
ATOM     10  C   UNL     1       7.446  -0.785  -2.139  1.00  0.00     0.166 A 
ATOM     11  C   UNL     1       8.734  -0.357  -1.902  1.00  0.00     0.165 A 
ATOM     12  O   UNL     1       7.515  -1.902  -2.943  1.00  0.00    -0.454 OA
ATOM     13  O   UNL     1       9.575  -1.232  -2.571  1.00  0.00    -0.454 OA
ATOM     14  C   UNL     1       8.849  -2.279  -3.169  1.00  0.00     0.468 C 
ENDBRANCH   5   6
ENDBRANCH   1   5
TORSDOF 3
ENDMDL
MODEL 2
REMARK VINA RESULT:      -7.4      1.933      2.387
REMARK SMILES CC(=O)CCc1ccc2c(c1)OCO2
REMARK SMILES IDX 4 1 2 2 1 3 3 4 5 5 6 6 7 7 11 8 8 9 10 10 9 11 12 12 14 13
REMARK SMILES IDX 13 14
REMARK H PARENT
REMARK Flexibility Score: inf
ROOT
ATOM      1  C   UNL     1       5.693   1.229  -0.325  1.00  0.00     0.080 C 
ENDROOT
BRANCH   1   2
ATOM      2  C   UNL     1       5.132   1.213   1.055  1.00  0.00     0.130 C 
ATOM      3  C   UNL     1       5.355   0.065   1.975  1.00  0.00     0.087 C 
ATOM      4  O   UNL     1       4.469   2.148   1.473  1.00  0.00    -0.300 OA
ENDBRANCH   1   2
BRANCH   1   5
ATOM      5  C   UNL     1       7.201   1.074  -0.308  1.00  0.00     0.043 C 
BRANCH   5   6
ATOM      6  C   UNL     1       7.626  -0.208  -0.896  1.00  0.00    -0.044 A 
ATOM      7  C   UNL     1       7.808  -0.357  -2.276  1.00  0.00     0.008 A 
ATOM      8  C   UNL     1       7.854  -1.292  -0.078  1.00  0.00     0.054 A 
ATOM      9  C   UNL     1       8.209  -1.585  -2.771  1.00  0.00     0.051 A 
ATOM     10  C   UNL     1       8.259  -2.531  -0.584  1.00  0.00     0.166 A 
ATOM     11  C   UNL     1       8.437  -2.679  -1.941  1.00  0.00     0.165 A 
ATOM     12  O   UNL     1       8.544  -3.741   0.012  1.00  0.00    -0.454 OA
ATOM     13  O   UNL     1       8.834  -3.990  -2.153  1.00  0.00    -0.454 OA
ATOM     14  C   UNL     1       9.002  -4.673  -0.934  1.00  0.00     0.468 C 
ENDBRANCH   5   6
ENDBRANCH   1   5
TORSDOF 3
ENDMDL
MODEL 3
REMARK VINA RESULT:      -7.2      2.072      2.641
REMARK SMILES CC(=O)CCc1ccc2c(c1)OCO2
REMARK SMILES IDX 4 1 2 2 1 3 3 4 5 5 6 6 7 7 11 8 8 9 10 10 9 11 12 12 14 13
REMARK SMILES IDX 13 14
REMARK H PARENT
REMARK Flexibility Score: inf
ROOT
ATOM      1  C   UNL     1       5.455  -0.056   1.997  1.00  0.00     0.080 C 
ENDROOT
BRANCH   1   2
ATOM      2  C   UNL     1       4.609   1.145   1.750  1.00  0.00     0.130 C 
ATOM      3  C   UNL     1       4.936   2.123   0.678  1.00  0.00     0.087 C 
ATOM      4  O   UNL     1       3.616   1.362   2.425  1.00  0.00    -0.300 OA
ENDBRANCH   1   2
BRANCH   1   5
ATOM      5  C   UNL     1       6.890   0.185   1.572  1.00  0.00     0.043 C 
BRANCH   5   6
ATOM      6  C   UNL     1       7.311  -0.750   0.514  1.00  0.00    -0.044 A 
ATOM      7  C   UNL     1       7.181  -0.429  -0.842  1.00  0.00     0.008 A 
ATOM      8  C   UNL     1       7.848  -1.970   0.855  1.00  0.00     0.054 A 
ATOM      9  C   UNL     1       7.594  -1.346  -1.792  1.00  0.00     0.051 A 
ATOM     10  C   UNL     1       8.265  -2.893  -0.108  1.00  0.00     0.166 A 
ATOM     11  C   UNL     1       8.136  -2.579  -1.443  1.00  0.00     0.165 A 
ATOM     12  O   UNL     1       8.821  -4.152  -0.025  1.00  0.00    -0.454 OA
ATOM     13  O   UNL     1       8.621  -3.662  -2.159  1.00  0.00    -0.454 OA
ATOM     14  C   UNL     1       9.149  -4.644  -1.299  1.00  0.00     0.468 C 
ENDBRANCH   5   6
ENDBRANCH   1   5
TORSDOF 3
ENDMDL
MODEL 4
REMARK VINA RESULT:      -7.1      1.245      1.452
REMARK SMILES CC(=O)CCc1ccc2c(c1)OCO2
REMARK SMILES IDX 4 1 2 2 1 3 3 4 5 5 6 6 7 7 11 8 8 9 10 10 9 11 12 12 14 13
REMARK SMILES IDX 13 14
REMARK H PARENT
REMARK Flexibility Score: inf
ROOT
ATOM      1  C   UNL     1       6.363   1.247   0.910  1.00  0.00     0.080 C 
ENDROOT
BRANCH   1   2
ATOM      2  C   UNL     1       5.661   0.419   1.930  1.00  0.00     0.130 C 
ATOM      3  C   UNL     1       6.287  -0.797   2.516  1.00  0.00     0.087 C 
ATOM      4  O   UNL     1       4.542   0.716   2.316  1.00  0.00    -0.300 OA
ENDBRANCH   1   2
BRANCH   1   5
ATOM      5  C   UNL     1       5.853   0.950  -0.486  1.00  0.00     0.043 C 
BRANCH   5   6
ATOM      6  C   UNL     1       6.803   0.123  -1.251  1.00  0.00    -0.044 A 
ATOM      7  C   UNL     1       7.493   0.632  -2.357  1.00  0.00     0.008 A 
ATOM      8  C   UNL     1       7.027  -1.182  -0.875  1.00  0.00     0.054 A 
ATOM      9  C   UNL     1       8.373  -0.190  -3.036  1.00  0.00     0.051 A 
ATOM     10  C   UNL     1       7.919  -2.009  -1.565  1.00  0.00     0.166 A 
ATOM     11  C   UNL     1       8.597  -1.510  -2.654  1.00  0.00     0.165 A 
ATOM     12  O   UNL     1       8.308  -3.321  -1.392  1.00  0.00    -0.454 OA
ATOM     13  O   UNL     1       9.398  -2.535  -3.132  1.00  0.00    -0.454 OA
ATOM     14  C   UNL     1       9.314  -3.672  -2.308  1.00  0.00     0.468 C 
ENDBRANCH   5   6
ENDBRANCH   1   5
TORSDOF 3
ENDMDL
MODEL 5
REMARK VINA RESULT:      -6.8      1.259      1.752
REMARK SMILES CC(=O)CCc1ccc2c(c1)OCO2
REMARK SMILES IDX 4 1 2 2 1 3 3 4 5 5 6 6 7 7 11 8 8 9 10 10 9 11 12 12 14 13
REMARK SMILES IDX 13 14
REMARK H PARENT
REMARK Flexibility Score: inf
ROOT
ATOM      1  C   UNL     1       5.325  -0.089   1.947  1.00  0.00     0.080 C 
ENDROOT
BRANCH   1   2
ATOM      2  C   UNL     1       4.451   1.107   1.790  1.00  0.00     0.130 C 
ATOM      3  C   UNL     1       4.731   2.150   0.767  1.00  0.00     0.087 C 
ATOM      4  O   UNL     1       3.473   1.266   2.502  1.00  0.00    -0.300 OA
ENDBRANCH   1   2
BRANCH   1   5
ATOM      5  C   UNL     1       6.792   0.291   1.895  1.00  0.00     0.043 C 
BRANCH   5   6
ATOM      6  C   UNL     1       7.402  -0.062   0.601  1.00  0.00    -0.044 A 
ATOM      7  C   UNL     1       7.908   0.917  -0.262  1.00  0.00     0.008 A 
ATOM      8  C   UNL     1       7.483  -1.382   0.222  1.00  0.00     0.054 A 
ATOM      9  C   UNL     1       8.470   0.527  -1.464  1.00  0.00     0.051 A 
ATOM     10  C   UNL     1       8.053  -1.772  -0.994  1.00  0.00     0.166 A 
ATOM     11  C   UNL     1       8.550  -0.809  -1.844  1.00  0.00     0.165 A 
ATOM     12  O   UNL     1       8.248  -3.000  -1.589  1.00  0.00    -0.454 OA
ATOM     13  O   UNL     1       9.046  -1.473  -2.955  1.00  0.00    -0.454 OA
ATOM     14  C   UNL     1       8.957  -2.869  -2.795  1.00  0.00     0.468 C 
ENDBRANCH   5   6
ENDBRANCH   1   5
TORSDOF 3
ENDMDL
