@<TRIPOS>MOLECULE
/home/cewinharhar/GITHUB/reincatalyze/data/processed/docking_pred/2023-May-22-2206_sub9_nm5_bs15_s42_ex16_mel10_mts10000_k50_ec02_g099_lra9e-4_lrc1e-3/437598aa9d4ddbb457dda5082e5f4820e6dbe55d_ligand_9.pdbqt
 14 15 0 0 0
SMALL
GASTEIGER

@<TRIPOS>ATOM
      1  C          5.3120   -0.0850    2.0020 C.3     1  UNL1        0.0800
      2  C          4.4450    1.1130    1.8240 C.2     1  UNL1        0.1300
      3  C          4.7450    2.1500    0.8020 C.3     1  UNL1        0.0870
      4  O          3.4550    1.2780    2.5190 O.2     1  UNL1       -0.3000
      5  C          6.7810    0.2840    1.9360 C.3     1  UNL1        0.0430
      6  C          7.3730   -0.0610    0.6310 C.2     1  UNL1       -0.0440
      7  C          7.8390    0.9250   -0.2460 C.2     1  UNL1        0.0080
      8  C          7.4780   -1.3820    0.2580 C.2     1  UNL1        0.0540
      9  C          8.3870    0.5410   -1.4570 C.2     1  UNL1        0.0510
     10  C          8.0320   -1.7640   -0.9670 C.2     1  UNL1        0.1660
     11  C          8.4900   -0.7950   -1.8320 C.2     1  UNL1        0.1650
     12  O          8.2440   -2.9910   -1.5610 O.2     1  UNL1       -0.4540
     13  O          8.9800   -1.4530   -2.9490 O.2     1  UNL1       -0.4540
     14  C          8.9270   -2.8490   -2.7810 C.3     1  UNL1        0.4680
@<TRIPOS>BOND
     1    13    14    1
     2    13    11    1
     3    14    12    1
     4    11     9    2
     5    11    10    1
     6    12    10    1
     7     9     7    1
     8    10     8    2
     9     7     6    2
    10     8     6    1
    11     6     5    1
    12     3     2    1
    13     2     1    1
    14     2     4    2
    15     5     1    1
