@<TRIPOS>MOLECULE
/home/cewinharhar/GITHUB/reincatalyze/data/processed/docking_pred/2023-May-22-2206_sub9_nm5_bs15_s42_ex16_mel10_mts10000_k50_ec02_g099_lra9e-4_lrc1e-3/437598aa9d4ddbb457dda5082e5f4820e6dbe55d_ligand_9.pdbqt
 14 15 0 0 0
SMALL
GASTEIGER

@<TRIPOS>ATOM
      1  C          5.5600    1.8660    1.2910 C.3     1  UNL1        0.0800
      2  C          5.1030    0.6470    2.0160 C.2     1  UNL1        0.1300
      3  C          5.9840   -0.5390    2.1820 C.3     1  UNL1        0.0870
      4  O          3.9840    0.5880    2.4980 O.2     1  UNL1       -0.3000
      5  C          5.4250    1.6960   -0.2090 C.3     1  UNL1        0.0430
      6  C          6.5860    0.9980   -0.7880 C.2     1  UNL1       -0.0440
      7  C          7.8950    1.4420   -0.5630 C.2     1  UNL1        0.0080
      8  C          6.3920   -0.1200   -1.5670 C.2     1  UNL1        0.0540
      9  C          8.9460    0.7450   -1.1310 C.2     1  UNL1        0.0510
     10  C          7.4580   -0.8210   -2.1380 C.2     1  UNL1        0.1660
     11  C          8.7460   -0.3840   -1.9190 C.2     1  UNL1        0.1650
     12  O          7.5250   -1.9410   -2.9380 O.2     1  UNL1       -0.4540
     13  O          9.5850   -1.2550   -2.5950 O.2     1  UNL1       -0.4540
     14  C          8.8590   -2.3100   -3.1800 C.3     1  UNL1        0.4680
@<TRIPOS>BOND
     1    14    12    1
     2    14    13    1
     3    12    10    1
     4    13    11    1
     5    10    11    2
     6    10     8    1
     7    11     9    1
     8     8     6    2
     9     9     7    2
    10     6     7    1
    11     6     5    1
    12     5     1    1
    13     1     2    1
    14     2     3    1
    15     2     4    2
