@<TRIPOS>MOLECULE
/home/cewinharhar/GITHUB/reincatalyze/data/processed/docking_pred/2023-May-22-2206_sub9_nm5_bs15_s42_ex16_mel10_mts10000_k50_ec02_g099_lra9e-4_lrc1e-3/437598aa9d4ddbb457dda5082e5f4820e6dbe55d_ligand_9.pdbqt
 14 15 0 0 0
SMALL
GASTEIGER

@<TRIPOS>ATOM
      1  C          6.3760    1.1990    0.8720 C.3     1  UNL1        0.0800
      2  C          5.6890    0.3820    1.9110 C.2     1  UNL1        0.1300
      3  C          6.3140   -0.8390    2.4840 C.3     1  UNL1        0.0870
      4  O          4.5830    0.6950    2.3230 O.2     1  UNL1       -0.3000
      5  C          5.8610    0.8720   -0.5160 C.3     1  UNL1        0.0430
      6  C          6.8200    0.0520   -1.2760 C.2     1  UNL1       -0.0440
      7  C          7.5210    0.5700   -2.3710 C.2     1  UNL1        0.0080
      8  C          7.0420   -1.2560   -0.9080 C.2     1  UNL1        0.0540
      9  C          8.4100   -0.2470   -3.0460 C.2     1  UNL1        0.0510
     10  C          7.9420   -2.0770   -1.5930 C.2     1  UNL1        0.1660
     11  C          8.6310   -1.5690   -2.6720 C.2     1  UNL1        0.1650
     12  O          8.3310   -3.3890   -1.4260 O.2     1  UNL1       -0.4540
     13  O          9.4390   -2.5890   -3.1490 O.2     1  UNL1       -0.4540
     14  C          9.3470   -3.7330   -2.3330 C.3     1  UNL1        0.4680
@<TRIPOS>BOND
     1    13    11    1
     2    13    14    1
     3     9    11    2
     4     9     7    1
     5    11    10    1
     6     7     6    2
     7    14    12    1
     8    10    12    1
     9    10     8    2
    10     6     8    1
    11     6     5    1
    12     5     1    1
    13     1     2    1
    14     2     4    2
    15     2     3    1
