@<TRIPOS>MOLECULE
/home/cewinharhar/GITHUB/reincatalyze/data/processed/docking_pred/2023-May-22-2206_sub9_nm5_bs15_s42_ex16_mel10_mts10000_k50_ec02_g099_lra9e-4_lrc1e-3/437598aa9d4ddbb457dda5082e5f4820e6dbe55d_ligand_9.pdbqt
 14 15 0 0 0
SMALL
GASTEIGER

@<TRIPOS>ATOM
      1  C          5.5390    0.0070    1.9590 C.3     1  UNL1        0.0800
      2  C          4.6570    1.1670    1.6500 C.2     1  UNL1        0.1300
      3  C          4.9640    2.1080    0.5400 C.3     1  UNL1        0.0870
      4  O          3.6500    1.3800    2.3050 O.2     1  UNL1       -0.3000
      5  C          6.9600    0.2570    1.4930 C.3     1  UNL1        0.0430
      6  C          7.3710   -0.7020    0.4520 C.2     1  UNL1       -0.0440
      7  C          7.2710   -0.3940   -0.9090 C.2     1  UNL1        0.0080
      8  C          7.8680   -1.9330    0.8160 C.2     1  UNL1        0.0540
      9  C          7.6720   -1.3340   -1.8410 C.2     1  UNL1        0.0510
     10  C          8.2730   -2.8790   -0.1300 C.2     1  UNL1        0.1660
     11  C          8.1740   -2.5770   -1.4700 C.2     1  UNL1        0.1650
     12  O          8.7920   -4.1520   -0.0230 O.2     1  UNL1       -0.4540
     13  O          8.6400   -3.6820   -2.1650 O.2     1  UNL1       -0.4540
     14  C          9.1260   -4.6680   -1.2860 C.3     1  UNL1        0.4680
@<TRIPOS>BOND
     1    13    11    1
     2    13    14    1
     3     9    11    2
     4     9     7    1
     5    11    10    1
     6    14    12    1
     7     7     6    2
     8    10    12    1
     9    10     8    2
    10     6     8    1
    11     6     5    1
    12     3     2    1
    13     5     1    1
    14     2     1    1
    15     2     4    2
