MODEL 1
REMARK VINA RESULT:      -7.6      0.000      0.000
REMARK SMILES CC(=O)CCc1ccc2c(c1)OCO2
REMARK SMILES IDX 4 1 2 2 1 3 3 4 5 5 6 6 7 7 11 8 8 9 10 10 9 11 12 12 14 13
REMARK SMILES IDX 13 14
REMARK H PARENT
REMARK Flexibility Score: inf
ROOT
ATOM      1  C   UNL     1       5.560   1.866   1.291  1.00  0.00     0.080 C 
ENDROOT
BRANCH   1   2
ATOM      2  C   UNL     1       5.103   0.647   2.016  1.00  0.00     0.130 C 
ATOM      3  C   UNL     1       5.984  -0.539   2.182  1.00  0.00     0.087 C 
ATOM      4  O   UNL     1       3.984   0.588   2.498  1.00  0.00    -0.300 OA
ENDBRANCH   1   2
BRANCH   1   5
ATOM      5  C   UNL     1       5.425   1.696  -0.209  1.00  0.00     0.043 C 
BRANCH   5   6
ATOM      6  C   UNL     1       6.586   0.998  -0.788  1.00  0.00    -0.044 A 
ATOM      7  C   UNL     1       7.895   1.442  -0.563  1.00  0.00     0.008 A 
ATOM      8  C   UNL     1       6.392  -0.120  -1.567  1.00  0.00     0.054 A 
ATOM      9  C   UNL     1       8.946   0.745  -1.131  1.00  0.00     0.051 A 
ATOM     10  C   UNL     1       7.458  -0.821  -2.138  1.00  0.00     0.166 A 
ATOM     11  C   UNL     1       8.746  -0.384  -1.919  1.00  0.00     0.165 A 
ATOM     12  O   UNL     1       7.525  -1.941  -2.938  1.00  0.00    -0.454 OA
ATOM     13  O   UNL     1       9.585  -1.255  -2.595  1.00  0.00    -0.454 OA
ATOM     14  C   UNL     1       8.859  -2.310  -3.180  1.00  0.00     0.468 C 
ENDBRANCH   5   6
ENDBRANCH   1   5
TORSDOF 3
ENDMDL
MODEL 2
REMARK VINA RESULT:      -7.4      1.851      2.318
REMARK SMILES CC(=O)CCc1ccc2c(c1)OCO2
REMARK SMILES IDX 4 1 2 2 1 3 3 4 5 5 6 6 7 7 11 8 8 9 10 10 9 11 12 12 14 13
REMARK SMILES IDX 13 14
REMARK H PARENT
REMARK Flexibility Score: inf
ROOT
ATOM      1  C   UNL     1       5.671   1.376  -0.332  1.00  0.00     0.080 C 
ENDROOT
BRANCH   1   2
ATOM      2  C   UNL     1       5.077   1.283   1.032  1.00  0.00     0.130 C 
ATOM      3  C   UNL     1       5.373   0.140   1.936  1.00  0.00     0.087 C 
ATOM      4  O   UNL     1       4.326   2.150   1.448  1.00  0.00    -0.300 OA
ENDBRANCH   1   2
BRANCH   1   5
ATOM      5  C   UNL     1       7.170   1.160  -0.295  1.00  0.00     0.043 C 
BRANCH   5   6
ATOM      6  C   UNL     1       7.553  -0.123  -0.912  1.00  0.00    -0.044 A 
ATOM      7  C   UNL     1       7.600  -0.283  -2.301  1.00  0.00     0.008 A 
ATOM      8  C   UNL     1       7.876  -1.195  -0.111  1.00  0.00     0.054 A 
ATOM      9  C   UNL     1       7.967  -1.510  -2.823  1.00  0.00     0.051 A 
ATOM     10  C   UNL     1       8.247  -2.433  -0.644  1.00  0.00     0.166 A 
ATOM     11  C   UNL     1       8.292  -2.592  -2.011  1.00  0.00     0.165 A 
ATOM     12  O   UNL     1       8.608  -3.633  -0.069  1.00  0.00    -0.454 OA
ATOM     13  O   UNL     1       8.685  -3.900  -2.250  1.00  0.00    -0.454 OA
ATOM     14  C   UNL     1       8.983  -4.569  -1.047  1.00  0.00     0.468 C 
ENDBRANCH   5   6
ENDBRANCH   1   5
TORSDOF 3
ENDMDL
MODEL 3
REMARK VINA RESULT:      -7.2      2.077      2.609
REMARK SMILES CC(=O)CCc1ccc2c(c1)OCO2
REMARK SMILES IDX 4 1 2 2 1 3 3 4 5 5 6 6 7 7 11 8 8 9 10 10 9 11 12 12 14 13
REMARK SMILES IDX 13 14
REMARK H PARENT
REMARK Flexibility Score: inf
ROOT
ATOM      1  C   UNL     1       5.539   0.007   1.959  1.00  0.00     0.080 C 
ENDROOT
BRANCH   1   2
ATOM      2  C   UNL     1       4.657   1.167   1.650  1.00  0.00     0.130 C 
ATOM      3  C   UNL     1       4.964   2.108   0.540  1.00  0.00     0.087 C 
ATOM      4  O   UNL     1       3.650   1.380   2.305  1.00  0.00    -0.300 OA
ENDBRANCH   1   2
BRANCH   1   5
ATOM      5  C   UNL     1       6.960   0.257   1.493  1.00  0.00     0.043 C 
BRANCH   5   6
ATOM      6  C   UNL     1       7.371  -0.702   0.452  1.00  0.00    -0.044 A 
ATOM      7  C   UNL     1       7.271  -0.394  -0.909  1.00  0.00     0.008 A 
ATOM      8  C   UNL     1       7.868  -1.933   0.816  1.00  0.00     0.054 A 
ATOM      9  C   UNL     1       7.672  -1.334  -1.841  1.00  0.00     0.051 A 
ATOM     10  C   UNL     1       8.273  -2.879  -0.130  1.00  0.00     0.166 A 
ATOM     11  C   UNL     1       8.174  -2.577  -1.470  1.00  0.00     0.165 A 
ATOM     12  O   UNL     1       8.792  -4.152  -0.023  1.00  0.00    -0.454 OA
ATOM     13  O   UNL     1       8.640  -3.682  -2.165  1.00  0.00    -0.454 OA
ATOM     14  C   UNL     1       9.126  -4.668  -1.286  1.00  0.00     0.468 C 
ENDBRANCH   5   6
ENDBRANCH   1   5
TORSDOF 3
ENDMDL
MODEL 4
REMARK VINA RESULT:      -7.1      1.249      1.464
REMARK SMILES CC(=O)CCc1ccc2c(c1)OCO2
REMARK SMILES IDX 4 1 2 2 1 3 3 4 5 5 6 6 7 7 11 8 8 9 10 10 9 11 12 12 14 13
REMARK SMILES IDX 13 14
REMARK H PARENT
REMARK Flexibility Score: inf
ROOT
ATOM      1  C   UNL     1       6.376   1.199   0.872  1.00  0.00     0.080 C 
ENDROOT
BRANCH   1   2
ATOM      2  C   UNL     1       5.689   0.382   1.911  1.00  0.00     0.130 C 
ATOM      3  C   UNL     1       6.314  -0.839   2.484  1.00  0.00     0.087 C 
ATOM      4  O   UNL     1       4.583   0.695   2.323  1.00  0.00    -0.300 OA
ENDBRANCH   1   2
BRANCH   1   5
ATOM      5  C   UNL     1       5.861   0.872  -0.516  1.00  0.00     0.043 C 
BRANCH   5   6
ATOM      6  C   UNL     1       6.820   0.052  -1.276  1.00  0.00    -0.044 A 
ATOM      7  C   UNL     1       7.521   0.570  -2.371  1.00  0.00     0.008 A 
ATOM      8  C   UNL     1       7.042  -1.256  -0.908  1.00  0.00     0.054 A 
ATOM      9  C   UNL     1       8.410  -0.247  -3.046  1.00  0.00     0.051 A 
ATOM     10  C   UNL     1       7.942  -2.077  -1.593  1.00  0.00     0.166 A 
ATOM     11  C   UNL     1       8.631  -1.569  -2.672  1.00  0.00     0.165 A 
ATOM     12  O   UNL     1       8.331  -3.389  -1.426  1.00  0.00    -0.454 OA
ATOM     13  O   UNL     1       9.439  -2.589  -3.149  1.00  0.00    -0.454 OA
ATOM     14  C   UNL     1       9.347  -3.733  -2.333  1.00  0.00     0.468 C 
ENDBRANCH   5   6
ENDBRANCH   1   5
TORSDOF 3
ENDMDL
MODEL 5
REMARK VINA RESULT:      -6.7      1.264      1.751
REMARK SMILES CC(=O)CCc1ccc2c(c1)OCO2
REMARK SMILES IDX 4 1 2 2 1 3 3 4 5 5 6 6 7 7 11 8 8 9 10 10 9 11 12 12 14 13
REMARK SMILES IDX 13 14
REMARK H PARENT
REMARK Flexibility Score: inf
ROOT
ATOM      1  C   UNL     1       5.312  -0.085   2.002  1.00  0.00     0.080 C 
ENDROOT
BRANCH   1   2
ATOM      2  C   UNL     1       4.445   1.113   1.824  1.00  0.00     0.130 C 
ATOM      3  C   UNL     1       4.745   2.150   0.802  1.00  0.00     0.087 C 
ATOM      4  O   UNL     1       3.455   1.278   2.519  1.00  0.00    -0.300 OA
ENDBRANCH   1   2
BRANCH   1   5
ATOM      5  C   UNL     1       6.781   0.284   1.936  1.00  0.00     0.043 C 
BRANCH   5   6
ATOM      6  C   UNL     1       7.373  -0.061   0.631  1.00  0.00    -0.044 A 
ATOM      7  C   UNL     1       7.839   0.925  -0.246  1.00  0.00     0.008 A 
ATOM      8  C   UNL     1       7.478  -1.382   0.258  1.00  0.00     0.054 A 
ATOM      9  C   UNL     1       8.387   0.541  -1.457  1.00  0.00     0.051 A 
ATOM     10  C   UNL     1       8.032  -1.764  -0.967  1.00  0.00     0.166 A 
ATOM     11  C   UNL     1       8.490  -0.795  -1.832  1.00  0.00     0.165 A 
ATOM     12  O   UNL     1       8.244  -2.991  -1.561  1.00  0.00    -0.454 OA
ATOM     13  O   UNL     1       8.980  -1.453  -2.949  1.00  0.00    -0.454 OA
ATOM     14  C   UNL     1       8.927  -2.849  -2.781  1.00  0.00     0.468 C 
ENDBRANCH   5   6
ENDBRANCH   1   5
TORSDOF 3
ENDMDL
