@<TRIPOS>MOLECULE
/home/cewinharhar/GITHUB/reincatalyze/data/processed/docking_pred/2023-May-22-2206_sub9_nm5_bs15_s42_ex16_mel10_mts10000_k50_ec02_g099_lra9e-4_lrc1e-3/44bf36be1ccee3462d679cf400989bbed31f99fd_ligand_9.pdbqt
 14 15 0 0 0
SMALL
GASTEIGER

@<TRIPOS>ATOM
      1  C          5.5570    0.0280    1.9480 C.3     1  UNL1        0.0800
      2  C          4.6600    1.1750    1.6330 C.2     1  UNL1        0.1300
      3  C          4.9500    2.1080    0.5120 C.3     1  UNL1        0.0870
      4  O          3.6540    1.3830    2.2920 O.2     1  UNL1       -0.3000
      5  C          6.9710    0.2860    1.4640 C.3     1  UNL1        0.0430
      6  C          7.3800   -0.6820    0.4310 C.2     1  UNL1       -0.0440
      7  C          7.2910   -0.3800   -0.9330 C.2     1  UNL1        0.0080
      8  C          7.8650   -1.9140    0.8050 C.2     1  UNL1        0.0540
      9  C          7.6900   -1.3280   -1.8570 C.2     1  UNL1        0.0510
     10  C          8.2690   -2.8690   -0.1340 C.2     1  UNL1        0.1660
     11  C          8.1800   -2.5730   -1.4760 C.2     1  UNL1        0.1650
     12  O          8.7770   -4.1450   -0.0170 O.2     1  UNL1       -0.4540
     13  O          8.6410   -3.6850   -2.1630 O.2     1  UNL1       -0.4540
     14  C          9.1140   -4.6700   -1.2760 C.3     1  UNL1        0.4680
@<TRIPOS>BOND
     1    13    11    1
     2    13    14    1
     3     9    11    2
     4     9     7    1
     5    11    10    1
     6    14    12    1
     7     7     6    2
     8    10    12    1
     9    10     8    2
    10     6     8    1
    11     6     5    1
    12     3     2    1
    13     5     1    1
    14     2     1    1
    15     2     4    2
