@<TRIPOS>MOLECULE
/home/cewinharhar/GITHUB/reincatalyze/data/processed/docking_pred/2023-May-22-2206_sub9_nm5_bs15_s42_ex16_mel10_mts10000_k50_ec02_g099_lra9e-4_lrc1e-3/46824fcf52dc560be674bfd6df7e039c48ea1670_ligand_9.pdbqt
 14 15 0 0 0
SMALL
GASTEIGER

@<TRIPOS>ATOM
      1  C          5.3980   -0.0690    2.0140 C.3     1  UNL1        0.0800
      2  C          4.5660    1.1430    1.7720 C.2     1  UNL1        0.1300
      3  C          4.9130    2.1300    0.7140 C.3     1  UNL1        0.0870
      4  O          3.5680    1.3620    2.4400 O.2     1  UNL1       -0.3000
      5  C          6.8420    0.1670    1.6200 C.3     1  UNL1        0.0430
      6  C          7.2740   -0.7500    0.5510 C.2     1  UNL1       -0.0440
      7  C          7.1480   -0.4110   -0.8010 C.2     1  UNL1        0.0080
      8  C          7.8170   -1.9720    0.8790 C.2     1  UNL1        0.0540
      9  C          7.5710   -1.3130   -1.7610 C.2     1  UNL1        0.0510
     10  C          8.2440   -2.8790   -0.0960 C.2     1  UNL1        0.1660
     11  C          8.1200   -2.5470   -1.4260 C.2     1  UNL1        0.1650
     12  O          8.8080   -4.1360   -0.0270 O.2     1  UNL1       -0.4540
     13  O          8.6160   -3.6170   -2.1550 O.2     1  UNL1       -0.4540
     14  C          9.1450   -4.6080   -1.3060 C.3     1  UNL1        0.4680
@<TRIPOS>BOND
     1    13    11    1
     2    13    14    1
     3     9    11    2
     4     9     7    1
     5    11    10    1
     6    14    12    1
     7     7     6    2
     8    10    12    1
     9    10     8    2
    10     6     8    1
    11     6     5    1
    12     3     2    1
    13     5     1    1
    14     2     1    1
    15     2     4    2
