@<TRIPOS>MOLECULE
/home/cewinharhar/GITHUB/reincatalyze/data/processed/docking_pred/2023-May-22-2206_sub9_nm5_bs15_s42_ex16_mel10_mts10000_k50_ec02_g099_lra9e-4_lrc1e-3/46861e00ed193d15618049a480e2ca269f83ce14_ligand_9.pdbqt
 14 15 0 0 0
SMALL
GASTEIGER

@<TRIPOS>ATOM
      1  C          5.5420    1.8900    1.2780 C.3     1  UNL1        0.0800
      2  C          5.0980    0.6710    2.0100 C.2     1  UNL1        0.1300
      3  C          5.9840   -0.5130    2.1650 C.3     1  UNL1        0.0870
      4  O          3.9850    0.6100    2.5070 O.2     1  UNL1       -0.3000
      5  C          5.4100    1.7100   -0.2210 C.3     1  UNL1        0.0430
      6  C          6.5750    1.0110   -0.7930 C.2     1  UNL1       -0.0440
      7  C          7.8830    1.4460   -0.5490 C.2     1  UNL1        0.0080
      8  C          6.3840   -0.1000   -1.5830 C.2     1  UNL1        0.0540
      9  C          8.9370    0.7490   -1.1110 C.2     1  UNL1        0.0510
     10  C          7.4530   -0.8010   -2.1490 C.2     1  UNL1        0.1660
     11  C          8.7400   -0.3730   -1.9110 C.2     1  UNL1        0.1650
     12  O          7.5230   -1.9150   -2.9580 O.2     1  UNL1       -0.4540
     13  O          9.5830   -1.2420   -2.5850 O.2     1  UNL1       -0.4540
     14  C          8.8580   -2.2880   -3.1870 C.3     1  UNL1        0.4680
@<TRIPOS>BOND
     1    14    12    1
     2    14    13    1
     3    12    10    1
     4    13    11    1
     5    10    11    2
     6    10     8    1
     7    11     9    1
     8     8     6    2
     9     9     7    2
    10     6     7    1
    11     6     5    1
    12     5     1    1
    13     1     2    1
    14     2     3    1
    15     2     4    2
