@<TRIPOS>MOLECULE
/home/cewinharhar/GITHUB/reincatalyze/data/processed/docking_pred/2023-May-22-2206_sub9_nm5_bs15_s42_ex16_mel10_mts10000_k50_ec02_g099_lra9e-4_lrc1e-3/46861e00ed193d15618049a480e2ca269f83ce14_ligand_9.pdbqt
 14 15 0 0 0
SMALL
GASTEIGER

@<TRIPOS>ATOM
      1  C          5.5590    1.5080   -0.0620 C.3     1  UNL1        0.0800
      2  C          4.9570    1.2050    1.2670 C.2     1  UNL1        0.1300
      3  C          5.4120    0.0480    2.0840 C.3     1  UNL1        0.0870
      4  O          4.0670    1.9020    1.7250 O.2     1  UNL1       -0.3000
      5  C          7.0580    1.2770   -0.0520 C.3     1  UNL1        0.0430
      6  C          7.4220    0.0280   -0.7440 C.2     1  UNL1       -0.0440
      7  C          7.3590   -0.0830   -2.1380 C.2     1  UNL1        0.0080
      8  C          7.8380   -1.0610   -0.0130 C.2     1  UNL1        0.0540
      9  C          7.7150   -1.2800   -2.7330 C.2     1  UNL1        0.0510
     10  C          8.1970   -2.2690   -0.6180 C.2     1  UNL1        0.1660
     11  C          8.1340   -2.3790   -1.9900 C.2     1  UNL1        0.1650
     12  O          8.6350   -3.4770   -0.1190 O.2     1  UNL1       -0.4540
     13  O          8.5410   -3.6660   -2.3070 O.2     1  UNL1       -0.4540
     14  C          8.9540   -4.3670   -1.1580 C.3     1  UNL1        0.4680
@<TRIPOS>BOND
     1     9     7    1
     2     9    11    2
     3    13    11    1
     4    13    14    1
     5     7     6    2
     6    11    10    1
     7    14    12    1
     8     6     5    1
     9     6     8    1
    10    10    12    1
    11    10     8    2
    12     1     5    1
    13     1     2    1
    14     2     4    2
    15     2     3    1
