@<TRIPOS>MOLECULE
/home/cewinharhar/GITHUB/reincatalyze/data/processed/docking_pred/2023-May-22-2206_sub9_nm5_bs15_s42_ex16_mel10_mts10000_k50_ec02_g099_lra9e-4_lrc1e-3/49b3117837231080fe644fe44c00424f4b8d2b91_ligand_9.pdbqt
 14 15 0 0 0
SMALL
GASTEIGER

@<TRIPOS>ATOM
      1  C          5.3990   -0.0610    2.0150 C.3     1  UNL1        0.0800
      2  C          4.5610    1.1450    1.7670 C.2     1  UNL1        0.1300
      3  C          4.9060    2.1320    0.7090 C.3     1  UNL1        0.0870
      4  O          3.5600    1.3600    2.4320 O.2     1  UNL1       -0.3000
      5  C          6.8420    0.1790    1.6160 C.3     1  UNL1        0.0430
      6  C          7.2750   -0.7410    0.5500 C.2     1  UNL1       -0.0440
      7  C          7.1540   -0.4040   -0.8030 C.2     1  UNL1        0.0080
      8  C          7.8150   -1.9630    0.8810 C.2     1  UNL1        0.0540
      9  C          7.5780   -1.3080   -1.7610 C.2     1  UNL1        0.0510
     10  C          8.2430   -2.8730   -0.0910 C.2     1  UNL1        0.1660
     11  C          8.1230   -2.5430   -1.4220 C.2     1  UNL1        0.1650
     12  O          8.8030   -4.1300   -0.0180 O.2     1  UNL1       -0.4540
     13  O          8.6180   -3.6150   -2.1470 O.2     1  UNL1       -0.4540
     14  C          9.1440   -4.6050   -1.2960 C.3     1  UNL1        0.4680
@<TRIPOS>BOND
     1    13    11    1
     2    13    14    1
     3     9    11    2
     4     9     7    1
     5    11    10    1
     6    14    12    1
     7     7     6    2
     8    10    12    1
     9    10     8    2
    10     6     8    1
    11     6     5    1
    12     3     2    1
    13     5     1    1
    14     2     1    1
    15     2     4    2
