MODEL 1
REMARK VINA RESULT:      -7.6      0.000      0.000
REMARK SMILES CC(=O)CCc1ccc2c(c1)OCO2
REMARK SMILES IDX 4 1 2 2 1 3 3 4 5 5 6 6 7 7 11 8 8 9 10 10 9 11 12 12 14 13
REMARK SMILES IDX 13 14
REMARK H PARENT
REMARK Flexibility Score: inf
ROOT
ATOM      1  C   UNL     1       5.545   1.925   1.277  1.00  0.00     0.080 C 
ENDROOT
BRANCH   1   2
ATOM      2  C   UNL     1       5.109   0.706   2.013  1.00  0.00     0.130 C 
ATOM      3  C   UNL     1       6.013  -0.462   2.195  1.00  0.00     0.087 C 
ATOM      4  O   UNL     1       3.989   0.630   2.491  1.00  0.00    -0.300 OA
ENDBRANCH   1   2
BRANCH   1   5
ATOM      5  C   UNL     1       5.414   1.740  -0.222  1.00  0.00     0.043 C 
BRANCH   5   6
ATOM      6  C   UNL     1       6.576   1.034  -0.789  1.00  0.00    -0.044 A 
ATOM      7  C   UNL     1       7.886   1.464  -0.547  1.00  0.00     0.008 A 
ATOM      8  C   UNL     1       6.381  -0.078  -1.577  1.00  0.00     0.054 A 
ATOM      9  C   UNL     1       8.938   0.762  -1.105  1.00  0.00     0.051 A 
ATOM     10  C   UNL     1       7.448  -0.786  -2.139  1.00  0.00     0.166 A 
ATOM     11  C   UNL     1       8.737  -0.362  -1.901  1.00  0.00     0.165 A 
ATOM     12  O   UNL     1       7.515  -1.903  -2.944  1.00  0.00    -0.454 OA
ATOM     13  O   UNL     1       9.577  -1.237  -2.572  1.00  0.00    -0.454 OA
ATOM     14  C   UNL     1       8.848  -2.282  -3.171  1.00  0.00     0.468 C 
ENDBRANCH   5   6
ENDBRANCH   1   5
TORSDOF 3
ENDMDL
MODEL 2
REMARK VINA RESULT:      -7.4      1.962      2.476
REMARK SMILES CC(=O)CCc1ccc2c(c1)OCO2
REMARK SMILES IDX 4 1 2 2 1 3 3 4 5 5 6 6 7 7 11 8 8 9 10 10 9 11 12 12 14 13
REMARK SMILES IDX 13 14
REMARK H PARENT
REMARK Flexibility Score: inf
ROOT
ATOM      1  C   UNL     1       5.816   1.135  -0.341  1.00  0.00     0.080 C 
ENDROOT
BRANCH   1   2
ATOM      2  C   UNL     1       5.317   1.192   1.062  1.00  0.00     0.130 C 
ATOM      3  C   UNL     1       5.577   0.093   2.029  1.00  0.00     0.087 C 
ATOM      4  O   UNL     1       4.673   2.150   1.459  1.00  0.00    -0.300 OA
ENDBRANCH   1   2
BRANCH   1   5
ATOM      5  C   UNL     1       7.323   0.970  -0.382  1.00  0.00     0.043 C 
BRANCH   5   6
ATOM      6  C   UNL     1       7.715  -0.326  -0.964  1.00  0.00    -0.044 A 
ATOM      7  C   UNL     1       7.856  -0.495  -2.346  1.00  0.00     0.008 A 
ATOM      8  C   UNL     1       7.953  -1.401  -0.138  1.00  0.00     0.054 A 
ATOM      9  C   UNL     1       8.228  -1.735  -2.835  1.00  0.00     0.051 A 
ATOM     10  C   UNL     1       8.329  -2.651  -0.638  1.00  0.00     0.166 A 
ATOM     11  C   UNL     1       8.467  -2.819  -1.997  1.00  0.00     0.165 A 
ATOM     12  O   UNL     1       8.617  -3.857  -0.033  1.00  0.00    -0.454 OA
ATOM     13  O   UNL     1       8.842  -4.138  -2.202  1.00  0.00    -0.454 OA
ATOM     14  C   UNL     1       9.036  -4.807  -0.979  1.00  0.00     0.468 C 
ENDBRANCH   5   6
ENDBRANCH   1   5
TORSDOF 3
ENDMDL
MODEL 3
REMARK VINA RESULT:      -7.2      2.056      2.632
REMARK SMILES CC(=O)CCc1ccc2c(c1)OCO2
REMARK SMILES IDX 4 1 2 2 1 3 3 4 5 5 6 6 7 7 11 8 8 9 10 10 9 11 12 12 14 13
REMARK SMILES IDX 13 14
REMARK H PARENT
REMARK Flexibility Score: inf
ROOT
ATOM      1  C   UNL     1       5.399  -0.061   2.015  1.00  0.00     0.080 C 
ENDROOT
BRANCH   1   2
ATOM      2  C   UNL     1       4.561   1.145   1.767  1.00  0.00     0.130 C 
ATOM      3  C   UNL     1       4.906   2.132   0.709  1.00  0.00     0.087 C 
ATOM      4  O   UNL     1       3.560   1.360   2.432  1.00  0.00    -0.300 OA
ENDBRANCH   1   2
BRANCH   1   5
ATOM      5  C   UNL     1       6.842   0.179   1.616  1.00  0.00     0.043 C 
BRANCH   5   6
ATOM      6  C   UNL     1       7.275  -0.741   0.550  1.00  0.00    -0.044 A 
ATOM      7  C   UNL     1       7.154  -0.404  -0.803  1.00  0.00     0.008 A 
ATOM      8  C   UNL     1       7.815  -1.963   0.881  1.00  0.00     0.054 A 
ATOM      9  C   UNL     1       7.578  -1.308  -1.761  1.00  0.00     0.051 A 
ATOM     10  C   UNL     1       8.243  -2.873  -0.091  1.00  0.00     0.166 A 
ATOM     11  C   UNL     1       8.123  -2.543  -1.422  1.00  0.00     0.165 A 
ATOM     12  O   UNL     1       8.803  -4.130  -0.018  1.00  0.00    -0.454 OA
ATOM     13  O   UNL     1       8.618  -3.615  -2.147  1.00  0.00    -0.454 OA
ATOM     14  C   UNL     1       9.144  -4.605  -1.296  1.00  0.00     0.468 C 
ENDBRANCH   5   6
ENDBRANCH   1   5
TORSDOF 3
ENDMDL
MODEL 4
REMARK VINA RESULT:      -7.0      1.258      1.476
REMARK SMILES CC(=O)CCc1ccc2c(c1)OCO2
REMARK SMILES IDX 4 1 2 2 1 3 3 4 5 5 6 6 7 7 11 8 8 9 10 10 9 11 12 12 14 13
REMARK SMILES IDX 13 14
REMARK H PARENT
REMARK Flexibility Score: inf
ROOT
ATOM      1  C   UNL     1       6.437   1.181   0.953  1.00  0.00     0.080 C 
ENDROOT
BRANCH   1   2
ATOM      2  C   UNL     1       5.692   0.339   1.930  1.00  0.00     0.130 C 
ATOM      3  C   UNL     1       6.282  -0.901   2.502  1.00  0.00     0.087 C 
ATOM      4  O   UNL     1       4.567   0.645   2.292  1.00  0.00    -0.300 OA
ENDBRANCH   1   2
BRANCH   1   5
ATOM      5  C   UNL     1       5.935   0.959  -0.460  1.00  0.00     0.043 C 
BRANCH   5   6
ATOM      6  C   UNL     1       6.860   0.121  -1.243  1.00  0.00    -0.044 A 
ATOM      7  C   UNL     1       7.526   0.619  -2.369  1.00  0.00     0.008 A 
ATOM      8  C   UNL     1       7.084  -1.183  -0.866  1.00  0.00     0.054 A 
ATOM      9  C   UNL     1       8.383  -0.214  -3.065  1.00  0.00     0.051 A 
ATOM     10  C   UNL     1       7.953  -2.021  -1.572  1.00  0.00     0.166 A 
ATOM     11  C   UNL     1       8.607  -1.532  -2.681  1.00  0.00     0.165 A 
ATOM     12  O   UNL     1       8.337  -3.334  -1.402  1.00  0.00    -0.454 OA
ATOM     13  O   UNL     1       9.389  -2.566  -3.173  1.00  0.00    -0.454 OA
ATOM     14  C   UNL     1       9.318  -3.698  -2.340  1.00  0.00     0.468 C 
ENDBRANCH   5   6
ENDBRANCH   1   5
TORSDOF 3
ENDMDL
MODEL 5
REMARK VINA RESULT:      -7.0      1.970      2.485
REMARK SMILES CC(=O)CCc1ccc2c(c1)OCO2
REMARK SMILES IDX 4 1 2 2 1 3 3 4 5 5 6 6 7 7 11 8 8 9 10 10 9 11 12 12 14 13
REMARK SMILES IDX 13 14
REMARK H PARENT
REMARK Flexibility Score: inf
ROOT
ATOM      1  C   UNL     1       6.829   0.949   1.354  1.00  0.00     0.080 C 
ENDROOT
BRANCH   1   2
ATOM      2  C   UNL     1       5.357   1.159   1.442  1.00  0.00     0.130 C 
ATOM      3  C   UNL     1       4.656   2.146   0.577  1.00  0.00     0.087 C 
ATOM      4  O   UNL     1       4.678   0.523   2.232  1.00  0.00    -0.300 OA
ENDBRANCH   1   2
BRANCH   1   5
ATOM      5  C   UNL     1       7.328   1.138  -0.065  1.00  0.00     0.043 C 
BRANCH   5   6
ATOM      6  C   UNL     1       7.674  -0.148  -0.698  1.00  0.00    -0.044 A 
ATOM      7  C   UNL     1       7.729  -0.288  -2.089  1.00  0.00     0.008 A 
ATOM      8  C   UNL     1       7.954  -1.242   0.089  1.00  0.00     0.054 A 
ATOM      9  C   UNL     1       8.060  -1.518  -2.627  1.00  0.00     0.051 A 
ATOM     10  C   UNL     1       8.289  -2.484  -0.460  1.00  0.00     0.166 A 
ATOM     11  C   UNL     1       8.342  -2.623  -1.829  1.00  0.00     0.165 A 
ATOM     12  O   UNL     1       8.605  -3.704   0.099  1.00  0.00    -0.454 OA
ATOM     13  O   UNL     1       8.694  -3.939  -2.084  1.00  0.00    -0.454 OA
ATOM     14  C   UNL     1       8.958  -4.636  -0.890  1.00  0.00     0.468 C 
ENDBRANCH   5   6
ENDBRANCH   1   5
TORSDOF 3
ENDMDL
