@<TRIPOS>MOLECULE
/home/cewinharhar/GITHUB/reincatalyze/data/processed/docking_pred/2023-May-22-2206_sub9_nm5_bs15_s42_ex16_mel10_mts10000_k50_ec02_g099_lra9e-4_lrc1e-3/49b3117837231080fe644fe44c00424f4b8d2b91_ligand_9.pdbqt
 14 15 0 0 0
SMALL
GASTEIGER

@<TRIPOS>ATOM
      1  C          6.8290    0.9490    1.3540 C.3     1  UNL1        0.0800
      2  C          5.3570    1.1590    1.4420 C.2     1  UNL1        0.1300
      3  C          4.6560    2.1460    0.5770 C.3     1  UNL1        0.0870
      4  O          4.6780    0.5230    2.2320 O.2     1  UNL1       -0.3000
      5  C          7.3280    1.1380   -0.0650 C.3     1  UNL1        0.0430
      6  C          7.6740   -0.1480   -0.6980 C.2     1  UNL1       -0.0440
      7  C          7.7290   -0.2880   -2.0890 C.2     1  UNL1        0.0080
      8  C          7.9540   -1.2420    0.0890 C.2     1  UNL1        0.0540
      9  C          8.0600   -1.5180   -2.6270 C.2     1  UNL1        0.0510
     10  C          8.2890   -2.4840   -0.4600 C.2     1  UNL1        0.1660
     11  C          8.3420   -2.6230   -1.8290 C.2     1  UNL1        0.1650
     12  O          8.6050   -3.7040    0.0990 O.2     1  UNL1       -0.4540
     13  O          8.6940   -3.9390   -2.0840 O.2     1  UNL1       -0.4540
     14  C          8.9580   -4.6360   -0.8900 C.3     1  UNL1        0.4680
@<TRIPOS>BOND
     1     9     7    1
     2     9    11    2
     3     7     6    2
     4    13    11    1
     5    13    14    1
     6    11    10    1
     7    14    12    1
     8     6     5    1
     9     6     8    1
    10    10     8    2
    11    10    12    1
    12     5     1    1
    13     3     2    1
    14     1     2    1
    15     2     4    2
