MODEL 1
REMARK VINA RESULT:      -7.7      0.000      0.000
REMARK SMILES CC(=O)CCc1ccc2c(c1)OCO2
REMARK SMILES IDX 4 1 2 2 1 3 3 4 5 5 6 6 7 7 11 8 8 9 10 10 9 11 12 12 14 13
REMARK SMILES IDX 13 14
REMARK H PARENT
REMARK Flexibility Score: inf
ROOT
ATOM      1  C   UNL     1       5.529   1.886   1.294  1.00  0.00     0.080 C 
ENDROOT
BRANCH   1   2
ATOM      2  C   UNL     1       5.088   0.662   2.021  1.00  0.00     0.130 C 
ATOM      3  C   UNL     1       5.976  -0.522   2.166  1.00  0.00     0.087 C 
ATOM      4  O   UNL     1       3.977   0.597   2.521  1.00  0.00    -0.300 OA
ENDBRANCH   1   2
BRANCH   1   5
ATOM      5  C   UNL     1       5.399   1.712  -0.206  1.00  0.00     0.043 C 
BRANCH   5   6
ATOM      6  C   UNL     1       6.565   1.016  -0.779  1.00  0.00    -0.044 A 
ATOM      7  C   UNL     1       7.872   1.453  -0.534  1.00  0.00     0.008 A 
ATOM      8  C   UNL     1       6.376  -0.092  -1.573  1.00  0.00     0.054 A 
ATOM      9  C   UNL     1       8.928   0.760  -1.098  1.00  0.00     0.051 A 
ATOM     10  C   UNL     1       7.447  -0.789  -2.140  1.00  0.00     0.166 A 
ATOM     11  C   UNL     1       8.733  -0.360  -1.901  1.00  0.00     0.165 A 
ATOM     12  O   UNL     1       7.519  -1.901  -2.953  1.00  0.00    -0.454 OA
ATOM     13  O   UNL     1       9.577  -1.226  -2.578  1.00  0.00    -0.454 OA
ATOM     14  C   UNL     1       8.854  -2.271  -3.183  1.00  0.00     0.468 C 
ENDBRANCH   5   6
ENDBRANCH   1   5
TORSDOF 3
ENDMDL
MODEL 2
REMARK VINA RESULT:      -7.5      1.912      2.350
REMARK SMILES CC(=O)CCc1ccc2c(c1)OCO2
REMARK SMILES IDX 4 1 2 2 1 3 3 4 5 5 6 6 7 7 11 8 8 9 10 10 9 11 12 12 14 13
REMARK SMILES IDX 13 14
REMARK H PARENT
REMARK Flexibility Score: inf
ROOT
ATOM      1  C   UNL     1       5.709   1.381  -0.234  1.00  0.00     0.080 C 
ENDROOT
BRANCH   1   2
ATOM      2  C   UNL     1       5.079   1.258   1.111  1.00  0.00     0.130 C 
ATOM      3  C   UNL     1       5.401   0.129   2.024  1.00  0.00     0.087 C 
ATOM      4  O   UNL     1       4.273   2.087   1.503  1.00  0.00    -0.300 OA
ENDBRANCH   1   2
BRANCH   1   5
ATOM      5  C   UNL     1       7.203   1.136  -0.165  1.00  0.00     0.043 C 
BRANCH   5   6
ATOM      6  C   UNL     1       7.577  -0.143  -0.794  1.00  0.00    -0.044 A 
ATOM      7  C   UNL     1       7.627  -0.290  -2.185  1.00  0.00     0.008 A 
ATOM      8  C   UNL     1       7.888  -1.226  -0.003  1.00  0.00     0.054 A 
ATOM      9  C   UNL     1       7.985  -1.514  -2.718  1.00  0.00     0.051 A 
ATOM     10  C   UNL     1       8.250  -2.462  -0.548  1.00  0.00     0.166 A 
ATOM     11  C   UNL     1       8.298  -2.608  -1.916  1.00  0.00     0.165 A 
ATOM     12  O   UNL     1       8.597  -3.672   0.016  1.00  0.00    -0.454 OA
ATOM     13  O   UNL     1       8.680  -3.916  -2.167  1.00  0.00    -0.454 OA
ATOM     14  C   UNL     1       8.968  -4.600  -0.971  1.00  0.00     0.468 C 
ENDBRANCH   5   6
ENDBRANCH   1   5
TORSDOF 3
ENDMDL
MODEL 3
REMARK VINA RESULT:      -7.2      2.051      2.608
REMARK SMILES CC(=O)CCc1ccc2c(c1)OCO2
REMARK SMILES IDX 4 1 2 2 1 3 3 4 5 5 6 6 7 7 11 8 8 9 10 10 9 11 12 12 14 13
REMARK SMILES IDX 13 14
REMARK H PARENT
REMARK Flexibility Score: inf
ROOT
ATOM      1  C   UNL     1       5.451  -0.030   1.996  1.00  0.00     0.080 C 
ENDROOT
BRANCH   1   2
ATOM      2  C   UNL     1       4.582   1.153   1.743  1.00  0.00     0.130 C 
ATOM      3  C   UNL     1       4.886   2.128   0.661  1.00  0.00     0.087 C 
ATOM      4  O   UNL     1       3.589   1.358   2.421  1.00  0.00    -0.300 OA
ENDBRANCH   1   2
BRANCH   1   5
ATOM      5  C   UNL     1       6.877   0.229   1.551  1.00  0.00     0.043 C 
BRANCH   5   6
ATOM      6  C   UNL     1       7.296  -0.705   0.491  1.00  0.00    -0.044 A 
ATOM      7  C   UNL     1       7.167  -0.382  -0.864  1.00  0.00     0.008 A 
ATOM      8  C   UNL     1       7.832  -1.926   0.831  1.00  0.00     0.054 A 
ATOM      9  C   UNL     1       7.579  -1.298  -1.815  1.00  0.00     0.051 A 
ATOM     10  C   UNL     1       8.248  -2.849  -0.134  1.00  0.00     0.166 A 
ATOM     11  C   UNL     1       8.119  -2.532  -1.468  1.00  0.00     0.165 A 
ATOM     12  O   UNL     1       8.802  -4.109  -0.052  1.00  0.00    -0.454 OA
ATOM     13  O   UNL     1       8.603  -3.615  -2.185  1.00  0.00    -0.454 OA
ATOM     14  C   UNL     1       9.130  -4.599  -1.327  1.00  0.00     0.468 C 
ENDBRANCH   5   6
ENDBRANCH   1   5
TORSDOF 3
ENDMDL
MODEL 4
REMARK VINA RESULT:      -7.1      1.243      1.453
REMARK SMILES CC(=O)CCc1ccc2c(c1)OCO2
REMARK SMILES IDX 4 1 2 2 1 3 3 4 5 5 6 6 7 7 11 8 8 9 10 10 9 11 12 12 14 13
REMARK SMILES IDX 13 14
REMARK H PARENT
REMARK Flexibility Score: inf
ROOT
ATOM      1  C   UNL     1       6.356   1.240   0.885  1.00  0.00     0.080 C 
ENDROOT
BRANCH   1   2
ATOM      2  C   UNL     1       5.667   0.413   1.915  1.00  0.00     0.130 C 
ATOM      3  C   UNL     1       6.308  -0.792   2.506  1.00  0.00     0.087 C 
ATOM      4  O   UNL     1       4.548   0.704   2.306  1.00  0.00    -0.300 OA
ENDBRANCH   1   2
BRANCH   1   5
ATOM      5  C   UNL     1       5.851   0.918  -0.507  1.00  0.00     0.043 C 
BRANCH   5   6
ATOM      6  C   UNL     1       6.815   0.099  -1.263  1.00  0.00    -0.044 A 
ATOM      7  C   UNL     1       7.534   0.623  -2.343  1.00  0.00     0.008 A 
ATOM      8  C   UNL     1       7.024  -1.213  -0.905  1.00  0.00     0.054 A 
ATOM      9  C   UNL     1       8.427  -0.192  -3.014  1.00  0.00     0.051 A 
ATOM     10  C   UNL     1       7.928  -2.034  -1.586  1.00  0.00     0.166 A 
ATOM     11  C   UNL     1       8.635  -1.519  -2.650  1.00  0.00     0.165 A 
ATOM     12  O   UNL     1       8.307  -3.350  -1.427  1.00  0.00    -0.454 OA
ATOM     13  O   UNL     1       9.442  -2.540  -3.126  1.00  0.00    -0.454 OA
ATOM     14  C   UNL     1       9.333  -3.691  -2.323  1.00  0.00     0.468 C 
ENDBRANCH   5   6
ENDBRANCH   1   5
TORSDOF 3
ENDMDL
MODEL 5
REMARK VINA RESULT:      -6.8      1.267      1.750
REMARK SMILES CC(=O)CCc1ccc2c(c1)OCO2
REMARK SMILES IDX 4 1 2 2 1 3 3 4 5 5 6 6 7 7 11 8 8 9 10 10 9 11 12 12 14 13
REMARK SMILES IDX 13 14
REMARK H PARENT
REMARK Flexibility Score: inf
ROOT
ATOM      1  C   UNL     1       5.328  -0.061   1.977  1.00  0.00     0.080 C 
ENDROOT
BRANCH   1   2
ATOM      2  C   UNL     1       4.442   1.121   1.788  1.00  0.00     0.130 C 
ATOM      3  C   UNL     1       4.723   2.150   0.752  1.00  0.00     0.087 C 
ATOM      4  O   UNL     1       3.453   1.280   2.485  1.00  0.00    -0.300 OA
ENDBRANCH   1   2
BRANCH   1   5
ATOM      5  C   UNL     1       6.791   0.331   1.907  1.00  0.00     0.043 C 
BRANCH   5   6
ATOM      6  C   UNL     1       7.392  -0.030   0.610  1.00  0.00    -0.044 A 
ATOM      7  C   UNL     1       7.883   0.944  -0.266  1.00  0.00     0.008 A 
ATOM      8  C   UNL     1       7.478  -1.354   0.244  1.00  0.00     0.054 A 
ATOM      9  C   UNL     1       8.437   0.546  -1.469  1.00  0.00     0.051 A 
ATOM     10  C   UNL     1       8.040  -1.751  -0.973  1.00  0.00     0.166 A 
ATOM     11  C   UNL     1       8.523  -0.793  -1.837  1.00  0.00     0.165 A 
ATOM     12  O   UNL     1       8.238  -2.984  -1.559  1.00  0.00    -0.454 OA
ATOM     13  O   UNL     1       9.014  -1.465  -2.946  1.00  0.00    -0.454 OA
ATOM     14  C   UNL     1       8.935  -2.859  -2.772  1.00  0.00     0.468 C 
ENDBRANCH   5   6
ENDBRANCH   1   5
TORSDOF 3
ENDMDL
