@<TRIPOS>MOLECULE
/home/cewinharhar/GITHUB/reincatalyze/data/processed/docking_pred/2023-May-22-2206_sub9_nm5_bs15_s42_ex16_mel10_mts10000_k50_ec02_g099_lra9e-4_lrc1e-3/4a3a178b6a4326eb13634b12f3ce9c4ec26f8538_ligand_9.pdbqt
 14 15 0 0 0
SMALL
GASTEIGER

@<TRIPOS>ATOM
      1  C          5.5290    1.8860    1.2940 C.3     1  UNL1        0.0800
      2  C          5.0880    0.6620    2.0210 C.2     1  UNL1        0.1300
      3  C          5.9760   -0.5220    2.1660 C.3     1  UNL1        0.0870
      4  O          3.9770    0.5970    2.5210 O.2     1  UNL1       -0.3000
      5  C          5.3990    1.7120   -0.2060 C.3     1  UNL1        0.0430
      6  C          6.5650    1.0160   -0.7790 C.2     1  UNL1       -0.0440
      7  C          7.8720    1.4530   -0.5340 C.2     1  UNL1        0.0080
      8  C          6.3760   -0.0920   -1.5730 C.2     1  UNL1        0.0540
      9  C          8.9280    0.7600   -1.0980 C.2     1  UNL1        0.0510
     10  C          7.4470   -0.7890   -2.1400 C.2     1  UNL1        0.1660
     11  C          8.7330   -0.3600   -1.9010 C.2     1  UNL1        0.1650
     12  O          7.5190   -1.9010   -2.9530 O.2     1  UNL1       -0.4540
     13  O          9.5770   -1.2260   -2.5780 O.2     1  UNL1       -0.4540
     14  C          8.8540   -2.2710   -3.1830 C.3     1  UNL1        0.4680
@<TRIPOS>BOND
     1    14    12    1
     2    14    13    1
     3    12    10    1
     4    13    11    1
     5    10    11    2
     6    10     8    1
     7    11     9    1
     8     8     6    2
     9     9     7    2
    10     6     7    1
    11     6     5    1
    12     5     1    1
    13     1     2    1
    14     2     3    1
    15     2     4    2
