@<TRIPOS>MOLECULE
/home/cewinharhar/GITHUB/reincatalyze/data/processed/docking_pred/2023-May-22-2206_sub9_nm5_bs15_s42_ex16_mel10_mts10000_k50_ec02_g099_lra9e-4_lrc1e-3/4a3a178b6a4326eb13634b12f3ce9c4ec26f8538_ligand_9.pdbqt
 14 15 0 0 0
SMALL
GASTEIGER

@<TRIPOS>ATOM
      1  C          5.7090    1.3810   -0.2340 C.3     1  UNL1        0.0800
      2  C          5.0790    1.2580    1.1110 C.2     1  UNL1        0.1300
      3  C          5.4010    0.1290    2.0240 C.3     1  UNL1        0.0870
      4  O          4.2730    2.0870    1.5030 O.2     1  UNL1       -0.3000
      5  C          7.2030    1.1360   -0.1650 C.3     1  UNL1        0.0430
      6  C          7.5770   -0.1430   -0.7940 C.2     1  UNL1       -0.0440
      7  C          7.6270   -0.2900   -2.1850 C.2     1  UNL1        0.0080
      8  C          7.8880   -1.2260   -0.0030 C.2     1  UNL1        0.0540
      9  C          7.9850   -1.5140   -2.7180 C.2     1  UNL1        0.0510
     10  C          8.2500   -2.4620   -0.5480 C.2     1  UNL1        0.1660
     11  C          8.2980   -2.6080   -1.9160 C.2     1  UNL1        0.1650
     12  O          8.5970   -3.6720    0.0160 O.2     1  UNL1       -0.4540
     13  O          8.6800   -3.9160   -2.1670 O.2     1  UNL1       -0.4540
     14  C          8.9680   -4.6000   -0.9710 C.3     1  UNL1        0.4680
@<TRIPOS>BOND
     1     9     7    1
     2     9    11    2
     3     7     6    2
     4    13    11    1
     5    13    14    1
     6    11    10    1
     7    14    12    1
     8     6     5    1
     9     6     8    1
    10    10     8    2
    11    10    12    1
    12     1     5    1
    13     1     2    1
    14     2     4    2
    15     2     3    1
