@<TRIPOS>MOLECULE
/home/cewinharhar/GITHUB/reincatalyze/data/processed/docking_pred/2023-May-22-2206_sub9_nm5_bs15_s42_ex16_mel10_mts10000_k50_ec02_g099_lra9e-4_lrc1e-3/4bd4f81152b1bdf0b1c74c36e0a7b56f2e48fda8_ligand_9.pdbqt
 14 15 0 0 0
SMALL
GASTEIGER

@<TRIPOS>ATOM
      1  C          6.8210    0.7190    0.9600 C.3     1  UNL1        0.0800
      2  C          5.4600    1.1080    1.4250 C.2     1  UNL1        0.1300
      3  C          4.6620    2.1470    0.7210 C.3     1  UNL1        0.0870
      4  O          4.9580    0.5810    2.4050 O.2     1  UNL1       -0.3000
      5  C          6.9170    0.7560   -0.5520 C.3     1  UNL1        0.0430
      6  C          7.4700   -0.4970   -1.0960 C.2     1  UNL1       -0.0440
      7  C          7.7330   -0.6510   -2.4620 C.2     1  UNL1        0.0080
      8  C          7.7410   -1.5470   -0.2480 C.2     1  UNL1        0.0540
      9  C          8.2530   -1.8500   -2.9140 C.2     1  UNL1        0.0510
     10  C          8.2670   -2.7570   -0.7100 C.2     1  UNL1        0.1660
     11  C          8.5250   -2.9100   -2.0550 C.2     1  UNL1        0.1650
     12  O          8.6170   -3.9320   -0.0790 O.2     1  UNL1       -0.4540
     13  O          9.0330   -4.1880   -2.2230 O.2     1  UNL1       -0.4540
     14  C          9.1930   -4.8380   -0.9840 C.3     1  UNL1        0.4680
@<TRIPOS>BOND
     1     9     7    1
     2     9    11    2
     3     7     6    2
     4    13    11    1
     5    13    14    1
     6    11    10    1
     7     6     5    1
     8     6     8    1
     9    14    12    1
    10    10     8    2
    11    10    12    1
    12     5     1    1
    13     3     2    1
    14     1     2    1
    15     2     4    2
