MODEL 1
REMARK VINA RESULT:      -7.7      0.000      0.000
REMARK SMILES CC(=O)CCc1ccc2c(c1)OCO2
REMARK SMILES IDX 4 1 2 2 1 3 3 4 5 5 6 6 7 7 11 8 8 9 10 10 9 11 12 12 14 13
REMARK SMILES IDX 13 14
REMARK H PARENT
REMARK Flexibility Score: inf
ROOT
ATOM      1  C   UNL     1       5.497   1.933   1.248  1.00  0.00     0.080 C 
ENDROOT
BRANCH   1   2
ATOM      2  C   UNL     1       5.065   0.719   1.994  1.00  0.00     0.130 C 
ATOM      3  C   UNL     1       5.960  -0.457   2.158  1.00  0.00     0.087 C 
ATOM      4  O   UNL     1       3.954   0.655   2.496  1.00  0.00    -0.300 OA
ENDBRANCH   1   2
BRANCH   1   5
ATOM      5  C   UNL     1       5.377   1.730  -0.250  1.00  0.00     0.043 C 
BRANCH   5   6
ATOM      6  C   UNL     1       6.549   1.029  -0.803  1.00  0.00    -0.044 A 
ATOM      7  C   UNL     1       7.854   1.461  -0.538  1.00  0.00     0.008 A 
ATOM      8  C   UNL     1       6.368  -0.081  -1.597  1.00  0.00     0.054 A 
ATOM      9  C   UNL     1       8.916   0.762  -1.083  1.00  0.00     0.051 A 
ATOM     10  C   UNL     1       7.445  -0.784  -2.146  1.00  0.00     0.166 A 
ATOM     11  C   UNL     1       8.729  -0.359  -1.887  1.00  0.00     0.165 A 
ATOM     12  O   UNL     1       7.526  -1.898  -2.954  1.00  0.00    -0.454 OA
ATOM     13  O   UNL     1       9.581  -1.230  -2.548  1.00  0.00    -0.454 OA
ATOM     14  C   UNL     1       8.863  -2.274  -3.163  1.00  0.00     0.468 C 
ENDBRANCH   5   6
ENDBRANCH   1   5
TORSDOF 3
ENDMDL
MODEL 2
REMARK VINA RESULT:      -7.4      1.812      2.253
REMARK SMILES CC(=O)CCc1ccc2c(c1)OCO2
REMARK SMILES IDX 4 1 2 2 1 3 3 4 5 5 6 6 7 7 11 8 8 9 10 10 9 11 12 12 14 13
REMARK SMILES IDX 13 14
REMARK H PARENT
REMARK Flexibility Score: inf
ROOT
ATOM      1  C   UNL     1       5.723   1.501  -0.241  1.00  0.00     0.080 C 
ENDROOT
BRANCH   1   2
ATOM      2  C   UNL     1       5.060   1.287   1.076  1.00  0.00     0.130 C 
ATOM      3  C   UNL     1       5.417   0.140   1.952  1.00  0.00     0.087 C 
ATOM      4  O   UNL     1       4.199   2.054   1.475  1.00  0.00    -0.300 OA
ENDBRANCH   1   2
BRANCH   1   5
ATOM      5  C   UNL     1       7.211   1.223  -0.160  1.00  0.00     0.043 C 
BRANCH   5   6
ATOM      6  C   UNL     1       7.570  -0.038  -0.832  1.00  0.00    -0.044 A 
ATOM      7  C   UNL     1       7.600  -0.143  -2.227  1.00  0.00     0.008 A 
ATOM      8  C   UNL     1       7.886  -1.146  -0.079  1.00  0.00     0.054 A 
ATOM      9  C   UNL     1       7.945  -1.353  -2.802  1.00  0.00     0.051 A 
ATOM     10  C   UNL     1       8.234  -2.367  -0.665  1.00  0.00     0.166 A 
ATOM     11  C   UNL     1       8.263  -2.471  -2.038  1.00  0.00     0.165 A 
ATOM     12  O   UNL     1       8.584  -3.594  -0.143  1.00  0.00    -0.454 OA
ATOM     13  O   UNL     1       8.635  -3.773  -2.333  1.00  0.00    -0.454 OA
ATOM     14  C   UNL     1       8.936  -4.494  -1.162  1.00  0.00     0.468 C 
ENDBRANCH   5   6
ENDBRANCH   1   5
TORSDOF 3
ENDMDL
MODEL 3
REMARK VINA RESULT:      -7.2      2.050      2.617
REMARK SMILES CC(=O)CCc1ccc2c(c1)OCO2
REMARK SMILES IDX 4 1 2 2 1 3 3 4 5 5 6 6 7 7 11 8 8 9 10 10 9 11 12 12 14 13
REMARK SMILES IDX 13 14
REMARK H PARENT
REMARK Flexibility Score: inf
ROOT
ATOM      1  C   UNL     1       5.432  -0.035   2.033  1.00  0.00     0.080 C 
ENDROOT
BRANCH   1   2
ATOM      2  C   UNL     1       4.562   1.144   1.767  1.00  0.00     0.130 C 
ATOM      3  C   UNL     1       4.888   2.131   0.702  1.00  0.00     0.087 C 
ATOM      4  O   UNL     1       3.549   1.336   2.420  1.00  0.00    -0.300 OA
ENDBRANCH   1   2
BRANCH   1   5
ATOM      5  C   UNL     1       6.860   0.225   1.597  1.00  0.00     0.043 C 
BRANCH   5   6
ATOM      6  C   UNL     1       7.285  -0.704   0.535  1.00  0.00    -0.044 A 
ATOM      7  C   UNL     1       7.169  -0.371  -0.820  1.00  0.00     0.008 A 
ATOM      8  C   UNL     1       7.813  -1.930   0.872  1.00  0.00     0.054 A 
ATOM      9  C   UNL     1       7.586  -1.283  -1.773  1.00  0.00     0.051 A 
ATOM     10  C   UNL     1       8.233  -2.848  -0.095  1.00  0.00     0.166 A 
ATOM     11  C   UNL     1       8.118  -2.522  -1.428  1.00  0.00     0.165 A 
ATOM     12  O   UNL     1       8.781  -4.110  -0.017  1.00  0.00    -0.454 OA
ATOM     13  O   UNL     1       8.604  -3.602  -2.148  1.00  0.00    -0.454 OA
ATOM     14  C   UNL     1       9.119  -4.594  -1.292  1.00  0.00     0.468 C 
ENDBRANCH   5   6
ENDBRANCH   1   5
TORSDOF 3
ENDMDL
MODEL 4
REMARK VINA RESULT:      -7.1      1.255      1.469
REMARK SMILES CC(=O)CCc1ccc2c(c1)OCO2
REMARK SMILES IDX 4 1 2 2 1 3 3 4 5 5 6 6 7 7 11 8 8 9 10 10 9 11 12 12 14 13
REMARK SMILES IDX 13 14
REMARK H PARENT
REMARK Flexibility Score: inf
ROOT
ATOM      1  C   UNL     1       6.375   1.239   0.905  1.00  0.00     0.080 C 
ENDROOT
BRANCH   1   2
ATOM      2  C   UNL     1       5.667   0.422   1.930  1.00  0.00     0.130 C 
ATOM      3  C   UNL     1       6.286  -0.792   2.525  1.00  0.00     0.087 C 
ATOM      4  O   UNL     1       4.549   0.728   2.312  1.00  0.00    -0.300 OA
ENDBRANCH   1   2
BRANCH   1   5
ATOM      5  C   UNL     1       5.862   0.939  -0.489  1.00  0.00     0.043 C 
BRANCH   5   6
ATOM      6  C   UNL     1       6.811   0.112  -1.255  1.00  0.00    -0.044 A 
ATOM      7  C   UNL     1       7.500   0.621  -2.362  1.00  0.00     0.008 A 
ATOM      8  C   UNL     1       7.036  -1.193  -0.880  1.00  0.00     0.054 A 
ATOM      9  C   UNL     1       8.380  -0.201  -3.042  1.00  0.00     0.051 A 
ATOM     10  C   UNL     1       7.927  -2.021  -1.570  1.00  0.00     0.166 A 
ATOM     11  C   UNL     1       8.604  -1.521  -2.660  1.00  0.00     0.165 A 
ATOM     12  O   UNL     1       8.317  -3.332  -1.399  1.00  0.00    -0.454 OA
ATOM     13  O   UNL     1       9.405  -2.546  -3.140  1.00  0.00    -0.454 OA
ATOM     14  C   UNL     1       9.322  -3.683  -2.315  1.00  0.00     0.468 C 
ENDBRANCH   5   6
ENDBRANCH   1   5
TORSDOF 3
ENDMDL
MODEL 5
REMARK VINA RESULT:      -6.9      1.963      2.594
REMARK SMILES CC(=O)CCc1ccc2c(c1)OCO2
REMARK SMILES IDX 4 1 2 2 1 3 3 4 5 5 6 6 7 7 11 8 8 9 10 10 9 11 12 12 14 13
REMARK SMILES IDX 13 14
REMARK H PARENT
REMARK Flexibility Score: inf
ROOT
ATOM      1  C   UNL     1       6.821   0.719   0.960  1.00  0.00     0.080 C 
ENDROOT
BRANCH   1   2
ATOM      2  C   UNL     1       5.460   1.108   1.425  1.00  0.00     0.130 C 
ATOM      3  C   UNL     1       4.662   2.147   0.721  1.00  0.00     0.087 C 
ATOM      4  O   UNL     1       4.958   0.581   2.405  1.00  0.00    -0.300 OA
ENDBRANCH   1   2
BRANCH   1   5
ATOM      5  C   UNL     1       6.917   0.756  -0.552  1.00  0.00     0.043 C 
BRANCH   5   6
ATOM      6  C   UNL     1       7.470  -0.497  -1.096  1.00  0.00    -0.044 A 
ATOM      7  C   UNL     1       7.733  -0.651  -2.462  1.00  0.00     0.008 A 
ATOM      8  C   UNL     1       7.741  -1.547  -0.248  1.00  0.00     0.054 A 
ATOM      9  C   UNL     1       8.253  -1.850  -2.914  1.00  0.00     0.051 A 
ATOM     10  C   UNL     1       8.267  -2.757  -0.710  1.00  0.00     0.166 A 
ATOM     11  C   UNL     1       8.525  -2.910  -2.055  1.00  0.00     0.165 A 
ATOM     12  O   UNL     1       8.617  -3.932  -0.079  1.00  0.00    -0.454 OA
ATOM     13  O   UNL     1       9.033  -4.188  -2.223  1.00  0.00    -0.454 OA
ATOM     14  C   UNL     1       9.193  -4.838  -0.984  1.00  0.00     0.468 C 
ENDBRANCH   5   6
ENDBRANCH   1   5
TORSDOF 3
ENDMDL
