@<TRIPOS>MOLECULE
/home/cewinharhar/GITHUB/reincatalyze/data/processed/docking_pred/2023-May-22-2206_sub9_nm5_bs15_s42_ex16_mel10_mts10000_k50_ec02_g099_lra9e-4_lrc1e-3/4bd4f81152b1bdf0b1c74c36e0a7b56f2e48fda8_ligand_9.pdbqt
 14 15 0 0 0
SMALL
GASTEIGER

@<TRIPOS>ATOM
      1  C          6.3750    1.2390    0.9050 C.3     1  UNL1        0.0800
      2  C          5.6670    0.4220    1.9300 C.2     1  UNL1        0.1300
      3  C          6.2860   -0.7920    2.5250 C.3     1  UNL1        0.0870
      4  O          4.5490    0.7280    2.3120 O.2     1  UNL1       -0.3000
      5  C          5.8620    0.9390   -0.4890 C.3     1  UNL1        0.0430
      6  C          6.8110    0.1120   -1.2550 C.2     1  UNL1       -0.0440
      7  C          7.5000    0.6210   -2.3620 C.2     1  UNL1        0.0080
      8  C          7.0360   -1.1930   -0.8800 C.2     1  UNL1        0.0540
      9  C          8.3800   -0.2010   -3.0420 C.2     1  UNL1        0.0510
     10  C          7.9270   -2.0210   -1.5700 C.2     1  UNL1        0.1660
     11  C          8.6040   -1.5210   -2.6600 C.2     1  UNL1        0.1650
     12  O          8.3170   -3.3320   -1.3990 O.2     1  UNL1       -0.4540
     13  O          9.4050   -2.5460   -3.1400 O.2     1  UNL1       -0.4540
     14  C          9.3220   -3.6830   -2.3150 C.3     1  UNL1        0.4680
@<TRIPOS>BOND
     1    13    11    1
     2    13    14    1
     3     9    11    2
     4     9     7    1
     5    11    10    1
     6     7     6    2
     7    14    12    1
     8    10    12    1
     9    10     8    2
    10     6     8    1
    11     6     5    1
    12     5     1    1
    13     1     2    1
    14     2     4    2
    15     2     3    1
