@<TRIPOS>MOLECULE
/home/cewinharhar/GITHUB/reincatalyze/data/processed/docking_pred/2023-May-22-2206_sub9_nm5_bs15_s42_ex16_mel10_mts10000_k50_ec02_g099_lra9e-4_lrc1e-3/4c3a486d5bbb1ad3c8ce5b6da142191fd088767a_ligand_9.pdbqt
 14 15 0 0 0
SMALL
GASTEIGER

@<TRIPOS>ATOM
      1  C          5.7460    1.2990   -0.3640 C.3     1  UNL1        0.0800
      2  C          5.1950    1.2610    1.0190 C.2     1  UNL1        0.1300
      3  C          5.5070    0.1460    1.9530 C.3     1  UNL1        0.0870
      4  O          4.4660    2.1500    1.4280 O.2     1  UNL1       -0.3000
      5  C          7.2470    1.0820   -0.3650 C.3     1  UNL1        0.0430
      6  C          7.6110   -0.2150   -0.9640 C.2     1  UNL1       -0.0440
      7  C          7.6350   -0.4010   -2.3510 C.2     1  UNL1        0.0080
      8  C          7.9390   -1.2740   -0.1490 C.2     1  UNL1        0.0540
      9  C          7.9850   -1.6400   -2.8550 C.2     1  UNL1        0.0510
     10  C          8.2930   -2.5250   -0.6640 C.2     1  UNL1        0.1660
     11  C          8.3160   -2.7090   -2.0280 C.2     1  UNL1        0.1650
     12  O          8.6540   -3.7170   -0.0720 O.2     1  UNL1       -0.4540
     13  O          8.6960   -4.0240   -2.2480 O.2     1  UNL1       -0.4540
     14  C          9.0080   -4.6730   -1.0380 C.3     1  UNL1        0.4680
@<TRIPOS>BOND
     1     9     7    1
     2     9    11    2
     3     7     6    2
     4    13    11    1
     5    13    14    1
     6    11    10    1
     7    14    12    1
     8     6     5    1
     9     6     8    1
    10    10     8    2
    11    10    12    1
    12     5     1    1
    13     1     2    1
    14     2     4    2
    15     2     3    1
