@<TRIPOS>MOLECULE
/home/cewinharhar/GITHUB/reincatalyze/data/processed/docking_pred/2023-May-22-2206_sub9_nm5_bs15_s42_ex16_mel10_mts10000_k50_ec02_g099_lra9e-4_lrc1e-3/4c3a486d5bbb1ad3c8ce5b6da142191fd088767a_ligand_9.pdbqt
 14 15 0 0 0
SMALL
GASTEIGER

@<TRIPOS>ATOM
      1  C          5.5470    1.9140    1.2750 C.3     1  UNL1        0.0800
      2  C          5.1140    0.6930    2.0110 C.2     1  UNL1        0.1300
      3  C          6.0190   -0.4740    2.1870 C.3     1  UNL1        0.0870
      4  O          3.9960    0.6170    2.4950 O.2     1  UNL1       -0.3000
      5  C          5.4170    1.7280   -0.2230 C.3     1  UNL1        0.0430
      6  C          6.5800    1.0240   -0.7900 C.2     1  UNL1       -0.0440
      7  C          7.8890    1.4520   -0.5410 C.2     1  UNL1        0.0080
      8  C          6.3870   -0.0850   -1.5830 C.2     1  UNL1        0.0540
      9  C          8.9420    0.7500   -1.0990 C.2     1  UNL1        0.0510
     10  C          7.4550   -0.7910   -2.1440 C.2     1  UNL1        0.1660
     11  C          8.7430   -0.3700   -1.9000 C.2     1  UNL1        0.1650
     12  O          7.5230   -1.9050   -2.9540 O.2     1  UNL1       -0.4540
     13  O          9.5850   -1.2430   -2.5720 O.2     1  UNL1       -0.4540
     14  C          8.8570   -2.2840   -3.1780 C.3     1  UNL1        0.4680
@<TRIPOS>BOND
     1    14    12    1
     2    14    13    1
     3    12    10    1
     4    13    11    1
     5    10    11    2
     6    10     8    1
     7    11     9    1
     8     8     6    2
     9     9     7    2
    10     6     7    1
    11     6     5    1
    12     5     1    1
    13     1     2    1
    14     2     3    1
    15     2     4    2
