MODEL 1
REMARK VINA RESULT:      -7.6      0.000      0.000
REMARK SMILES CC(=O)CCc1ccc2c(c1)OCO2
REMARK SMILES IDX 4 1 2 2 1 3 3 4 5 5 6 6 7 7 11 8 8 9 10 10 9 11 12 12 14 13
REMARK SMILES IDX 13 14
REMARK H PARENT
REMARK Flexibility Score: inf
ROOT
ATOM      1  C   UNL     1       5.520   1.915   1.258  1.00  0.00     0.080 C 
ENDROOT
BRANCH   1   2
ATOM      2  C   UNL     1       5.073   0.706   2.004  1.00  0.00     0.130 C 
ATOM      3  C   UNL     1       5.953  -0.483   2.164  1.00  0.00     0.087 C 
ATOM      4  O   UNL     1       3.963   0.655   2.508  1.00  0.00    -0.300 OA
ENDBRANCH   1   2
BRANCH   1   5
ATOM      5  C   UNL     1       5.393   1.717  -0.239  1.00  0.00     0.043 C 
BRANCH   5   6
ATOM      6  C   UNL     1       6.563   1.019  -0.800  1.00  0.00    -0.044 A 
ATOM      7  C   UNL     1       7.868   1.458  -0.550  1.00  0.00     0.008 A 
ATOM      8  C   UNL     1       6.380  -0.095  -1.588  1.00  0.00     0.054 A 
ATOM      9  C   UNL     1       8.928   0.762  -1.102  1.00  0.00     0.051 A 
ATOM     10  C   UNL     1       7.455  -0.795  -2.143  1.00  0.00     0.166 A 
ATOM     11  C   UNL     1       8.740  -0.363  -1.898  1.00  0.00     0.165 A 
ATOM     12  O   UNL     1       7.534  -1.912  -2.948  1.00  0.00    -0.454 OA
ATOM     13  O   UNL     1       9.589  -1.233  -2.564  1.00  0.00    -0.454 OA
ATOM     14  C   UNL     1       8.871  -2.283  -3.167  1.00  0.00     0.468 C 
ENDBRANCH   5   6
ENDBRANCH   1   5
TORSDOF 3
ENDMDL
MODEL 2
REMARK VINA RESULT:      -7.4      1.945      2.397
REMARK SMILES CC(=O)CCc1ccc2c(c1)OCO2
REMARK SMILES IDX 4 1 2 2 1 3 3 4 5 5 6 6 7 7 11 8 8 9 10 10 9 11 12 12 14 13
REMARK SMILES IDX 13 14
REMARK H PARENT
REMARK Flexibility Score: inf
ROOT
ATOM      1  C   UNL     1       5.734   1.342  -0.259  1.00  0.00     0.080 C 
ENDROOT
BRANCH   1   2
ATOM      2  C   UNL     1       5.128   1.253   1.098  1.00  0.00     0.130 C 
ATOM      3  C   UNL     1       5.354   0.076   1.979  1.00  0.00     0.087 C 
ATOM      4  O   UNL     1       4.421   2.150   1.529  1.00  0.00    -0.300 OA
ENDBRANCH   1   2
BRANCH   1   5
ATOM      5  C   UNL     1       7.230   1.100  -0.211  1.00  0.00     0.043 C 
BRANCH   5   6
ATOM      6  C   UNL     1       7.593  -0.195  -0.813  1.00  0.00    -0.044 A 
ATOM      7  C   UNL     1       7.638  -0.371  -2.201  1.00  0.00     0.008 A 
ATOM      8  C   UNL     1       7.901  -1.263  -0.001  1.00  0.00     0.054 A 
ATOM      9  C   UNL     1       7.987  -1.609  -2.709  1.00  0.00     0.051 A 
ATOM     10  C   UNL     1       8.253  -2.512  -0.520  1.00  0.00     0.166 A 
ATOM     11  C   UNL     1       8.296  -2.687  -1.885  1.00  0.00     0.165 A 
ATOM     12  O   UNL     1       8.596  -3.711   0.068  1.00  0.00    -0.454 OA
ATOM     13  O   UNL     1       8.670  -4.003  -2.109  1.00  0.00    -0.454 OA
ATOM     14  C   UNL     1       8.957  -4.663  -0.900  1.00  0.00     0.468 C 
ENDBRANCH   5   6
ENDBRANCH   1   5
TORSDOF 3
ENDMDL
MODEL 3
REMARK VINA RESULT:      -7.2      2.050      2.615
REMARK SMILES CC(=O)CCc1ccc2c(c1)OCO2
REMARK SMILES IDX 4 1 2 2 1 3 3 4 5 5 6 6 7 7 11 8 8 9 10 10 9 11 12 12 14 13
REMARK SMILES IDX 13 14
REMARK H PARENT
REMARK Flexibility Score: inf
ROOT
ATOM      1  C   UNL     1       5.450  -0.045   1.992  1.00  0.00     0.080 C 
ENDROOT
BRANCH   1   2
ATOM      2  C   UNL     1       4.588   1.145   1.748  1.00  0.00     0.130 C 
ATOM      3  C   UNL     1       4.886   2.114   0.660  1.00  0.00     0.087 C 
ATOM      4  O   UNL     1       3.605   1.360   2.439  1.00  0.00    -0.300 OA
ENDBRANCH   1   2
BRANCH   1   5
ATOM      5  C   UNL     1       6.878   0.209   1.551  1.00  0.00     0.043 C 
BRANCH   5   6
ATOM      6  C   UNL     1       7.297  -0.725   0.491  1.00  0.00    -0.044 A 
ATOM      7  C   UNL     1       7.163  -0.404  -0.864  1.00  0.00     0.008 A 
ATOM      8  C   UNL     1       7.836  -1.945   0.831  1.00  0.00     0.054 A 
ATOM      9  C   UNL     1       7.575  -1.320  -1.815  1.00  0.00     0.051 A 
ATOM     10  C   UNL     1       8.251  -2.868  -0.133  1.00  0.00     0.166 A 
ATOM     11  C   UNL     1       8.119  -2.553  -1.468  1.00  0.00     0.165 A 
ATOM     12  O   UNL     1       8.808  -4.126  -0.052  1.00  0.00    -0.454 OA
ATOM     13  O   UNL     1       8.604  -3.635  -2.185  1.00  0.00    -0.454 OA
ATOM     14  C   UNL     1       9.134  -4.617  -1.327  1.00  0.00     0.468 C 
ENDBRANCH   5   6
ENDBRANCH   1   5
TORSDOF 3
ENDMDL
MODEL 4
REMARK VINA RESULT:      -7.1      1.258      1.472
REMARK SMILES CC(=O)CCc1ccc2c(c1)OCO2
REMARK SMILES IDX 4 1 2 2 1 3 3 4 5 5 6 6 7 7 11 8 8 9 10 10 9 11 12 12 14 13
REMARK SMILES IDX 13 14
REMARK H PARENT
REMARK Flexibility Score: inf
ROOT
ATOM      1  C   UNL     1       6.412   1.194   0.938  1.00  0.00     0.080 C 
ENDROOT
BRANCH   1   2
ATOM      2  C   UNL     1       5.678   0.357   1.928  1.00  0.00     0.130 C 
ATOM      3  C   UNL     1       6.272  -0.883   2.495  1.00  0.00     0.087 C 
ATOM      4  O   UNL     1       4.559   0.668   2.304  1.00  0.00    -0.300 OA
ENDBRANCH   1   2
BRANCH   1   5
ATOM      5  C   UNL     1       5.907   0.951  -0.470  1.00  0.00     0.043 C 
BRANCH   5   6
ATOM      6  C   UNL     1       6.837   0.113  -1.247  1.00  0.00    -0.044 A 
ATOM      7  C   UNL     1       7.514   0.612  -2.366  1.00  0.00     0.008 A 
ATOM      8  C   UNL     1       7.055  -1.193  -0.871  1.00  0.00     0.054 A 
ATOM      9  C   UNL     1       8.376  -0.221  -3.056  1.00  0.00     0.051 A 
ATOM     10  C   UNL     1       7.928  -2.031  -1.572  1.00  0.00     0.166 A 
ATOM     11  C   UNL     1       8.593  -1.541  -2.673  1.00  0.00     0.165 A 
ATOM     12  O   UNL     1       8.308  -3.345  -1.402  1.00  0.00    -0.454 OA
ATOM     13  O   UNL     1       9.377  -2.575  -3.161  1.00  0.00    -0.454 OA
ATOM     14  C   UNL     1       9.296  -3.709  -2.331  1.00  0.00     0.468 C 
ENDBRANCH   5   6
ENDBRANCH   1   5
TORSDOF 3
ENDMDL
MODEL 5
REMARK VINA RESULT:      -6.8      1.186      5.188
REMARK SMILES CC(=O)CCc1ccc2c(c1)OCO2
REMARK SMILES IDX 4 1 2 2 1 3 3 4 5 5 6 6 7 7 11 8 8 9 10 10 9 11 12 12 14 13
REMARK SMILES IDX 13 14
REMARK H PARENT
REMARK Flexibility Score: inf
ROOT
ATOM      1  C   UNL     1       8.359   0.194  -2.628  1.00  0.00     0.080 C 
ENDROOT
BRANCH   1   2
ATOM      2  C   UNL     1       8.070  -1.262  -2.756  1.00  0.00     0.130 C 
ATOM      3  C   UNL     1       9.146  -2.248  -3.040  1.00  0.00     0.087 C 
ATOM      4  O   UNL     1       6.934  -1.689  -2.631  1.00  0.00    -0.300 OA
ENDBRANCH   1   2
BRANCH   1   5
ATOM      5  C   UNL     1       8.878   0.533  -1.244  1.00  0.00     0.043 C 
BRANCH   5   6
ATOM      6  C   UNL     1       7.827   0.400  -0.219  1.00  0.00    -0.044 A 
ATOM      7  C   UNL     1       7.906  -0.566   0.791  1.00  0.00     0.008 A 
ATOM      8  C   UNL     1       6.740   1.243  -0.244  1.00  0.00     0.054 A 
ATOM      9  C   UNL     1       6.891  -0.643   1.726  1.00  0.00     0.051 A 
ATOM     10  C   UNL     1       5.716   1.161   0.705  1.00  0.00     0.166 A 
ATOM     11  C   UNL     1       5.792   0.210   1.698  1.00  0.00     0.165 A 
ATOM     12  O   UNL     1       4.549   1.872   0.892  1.00  0.00    -0.454 OA
ATOM     13  O   UNL     1       4.660   0.359   2.483  1.00  0.00    -0.454 OA
ATOM     14  C   UNL     1       3.890   1.459   2.062  1.00  0.00     0.468 C 
ENDBRANCH   5   6
ENDBRANCH   1   5
TORSDOF 3
ENDMDL
