@<TRIPOS>MOLECULE
/home/cewinharhar/GITHUB/reincatalyze/data/processed/docking_pred/2023-May-22-2206_sub9_nm5_bs15_s42_ex16_mel10_mts10000_k50_ec02_g099_lra9e-4_lrc1e-3/4c41b041102a8d5d821093d1e21668bd2b50a839_ligand_9.pdbqt
 14 15 0 0 0
SMALL
GASTEIGER

@<TRIPOS>ATOM
      1  C          8.3590    0.1940   -2.6280 C.3     1  UNL1        0.0800
      2  C          8.0700   -1.2620   -2.7560 C.2     1  UNL1        0.1300
      3  C          9.1460   -2.2480   -3.0400 C.3     1  UNL1        0.0870
      4  O          6.9340   -1.6890   -2.6310 O.2     1  UNL1       -0.3000
      5  C          8.8780    0.5330   -1.2440 C.3     1  UNL1        0.0430
      6  C          7.8270    0.4000   -0.2190 C.2     1  UNL1       -0.0440
      7  C          7.9060   -0.5660    0.7910 C.2     1  UNL1        0.0080
      8  C          6.7400    1.2430   -0.2440 C.2     1  UNL1        0.0540
      9  C          6.8910   -0.6430    1.7260 C.2     1  UNL1        0.0510
     10  C          5.7160    1.1610    0.7050 C.2     1  UNL1        0.1660
     11  C          5.7920    0.2100    1.6980 C.2     1  UNL1        0.1650
     12  O          4.5490    1.8720    0.8920 O.2     1  UNL1       -0.4540
     13  O          4.6600    0.3590    2.4830 O.2     1  UNL1       -0.4540
     14  C          3.8900    1.4590    2.0620 C.3     1  UNL1        0.4680
@<TRIPOS>BOND
     1     3     2    1
     2     2     4    2
     3     2     1    1
     4     1     5    1
     5     5     6    1
     6     8     6    2
     7     8    10    1
     8     6     7    1
     9    10    12    1
    10    10    11    2
    11     7     9    2
    12    12    14    1
    13    11     9    1
    14    11    13    1
    15    14    13    1
