@<TRIPOS>MOLECULE
/home/cewinharhar/GITHUB/reincatalyze/data/processed/docking_pred/2023-May-22-2206_sub9_nm5_bs15_s42_ex16_mel10_mts10000_k50_ec02_g099_lra9e-4_lrc1e-3/4d620996829bdf69d2437cdb6940cc233521eaf3_ligand_9.pdbqt
 14 15 0 0 0
SMALL
GASTEIGER

@<TRIPOS>ATOM
      1  C          6.3870    1.1750    0.9460 C.3     1  UNL1        0.0800
      2  C          5.6470    0.3620    1.9510 C.2     1  UNL1        0.1300
      3  C          6.2350   -0.8670    2.5480 C.3     1  UNL1        0.0870
      4  O          4.5280    0.6840    2.3160 O.2     1  UNL1       -0.3000
      5  C          5.8810    0.9080   -0.4580 C.3     1  UNL1        0.0430
      6  C          6.8230    0.0780   -1.2300 C.2     1  UNL1       -0.0440
      7  C          7.4970    0.5820   -2.3490 C.2     1  UNL1        0.0080
      8  C          7.0560   -1.2240   -0.8490 C.2     1  UNL1        0.0540
      9  C          8.3700   -0.2430   -3.0340 C.2     1  UNL1        0.0510
     10  C          7.9400   -2.0530   -1.5450 C.2     1  UNL1        0.1660
     11  C          8.6020   -1.5590   -2.6470 C.2     1  UNL1        0.1650
     12  O          8.3350   -3.3630   -1.3700 O.2     1  UNL1       -0.4540
     13  O          9.4000   -2.5850   -3.1290 O.2     1  UNL1       -0.4540
     14  C          9.3300   -3.7170   -2.2960 C.3     1  UNL1        0.4680
@<TRIPOS>BOND
     1    13    11    1
     2    13    14    1
     3     9    11    2
     4     9     7    1
     5    11    10    1
     6     7     6    2
     7    14    12    1
     8    10    12    1
     9    10     8    2
    10     6     8    1
    11     6     5    1
    12     5     1    1
    13     1     2    1
    14     2     4    2
    15     2     3    1
