@<TRIPOS>MOLECULE
/home/cewinharhar/GITHUB/reincatalyze/data/processed/docking_pred/2023-May-22-2206_sub9_nm5_bs15_s42_ex16_mel10_mts10000_k50_ec02_g099_lra9e-4_lrc1e-3/4f8338f1f65f27d68c3e57a6b5041c9c59ec4c55_ligand_9.pdbqt
 14 15 0 0 0
SMALL
GASTEIGER

@<TRIPOS>ATOM
      1  C          5.6970    1.3840   -0.2520 C.3     1  UNL1        0.0800
      2  C          5.0160    1.2370    1.0640 C.2     1  UNL1        0.1300
      3  C          5.2760    0.0730    1.9530 C.3     1  UNL1        0.0870
      4  O          4.2180    2.0750    1.4540 O.2     1  UNL1       -0.3000
      5  C          7.1850    1.1220   -0.1340 C.3     1  UNL1        0.0430
      6  C          7.5670   -0.1540   -0.7660 C.2     1  UNL1       -0.0440
      7  C          7.6360   -0.2910   -2.1570 C.2     1  UNL1        0.0080
      8  C          7.8680   -1.2420    0.0220 C.2     1  UNL1        0.0540
      9  C          8.0010   -1.5130   -2.6930 C.2     1  UNL1        0.0510
     10  C          8.2370   -2.4750   -0.5260 C.2     1  UNL1        0.1660
     11  C          8.3040   -2.6110   -1.8940 C.2     1  UNL1        0.1650
     12  O          8.5770   -3.6870    0.0350 O.2     1  UNL1       -0.4540
     13  O          8.6890   -3.9180   -2.1480 O.2     1  UNL1       -0.4540
     14  C          8.9610   -4.6090   -0.9530 C.3     1  UNL1        0.4680
@<TRIPOS>BOND
     1     9     7    1
     2     9    11    2
     3     7     6    2
     4    13    11    1
     5    13    14    1
     6    11    10    1
     7    14    12    1
     8     6     5    1
     9     6     8    1
    10    10     8    2
    11    10    12    1
    12     1     5    1
    13     1     2    1
    14     2     4    2
    15     2     3    1
