@<TRIPOS>MOLECULE
/home/cewinharhar/GITHUB/reincatalyze/data/processed/docking_pred/2023-May-22-2206_sub9_nm5_bs15_s42_ex16_mel10_mts10000_k50_ec02_g099_lra9e-4_lrc1e-3/4fd116288ae20ad94bf91d23a53b6bc9c92e4cae_ligand_9.pdbqt
 14 15 0 0 0
SMALL
GASTEIGER

@<TRIPOS>ATOM
      1  C          6.3760    1.2300    0.8710 C.3     1  UNL1        0.0800
      2  C          5.6680    0.4260    1.9050 C.2     1  UNL1        0.1300
      3  C          6.2780   -0.7940    2.4990 C.3     1  UNL1        0.0870
      4  O          4.5570    0.7460    2.2970 O.2     1  UNL1       -0.3000
      5  C          5.8660    0.9110   -0.5200 C.3     1  UNL1        0.0430
      6  C          6.8260    0.0880   -1.2780 C.2     1  UNL1       -0.0440
      7  C          7.5350    0.6070   -2.3680 C.2     1  UNL1        0.0080
      8  C          7.0390   -1.2220   -0.9140 C.2     1  UNL1        0.0540
      9  C          8.4240   -0.2120   -3.0410 C.2     1  UNL1        0.0510
     10  C          7.9390   -2.0450   -1.5970 C.2     1  UNL1        0.1660
     11  C          8.6360   -1.5360   -2.6700 C.2     1  UNL1        0.1650
     12  O          8.3210   -3.3590   -1.4330 O.2     1  UNL1       -0.4540
     13  O          9.4420   -2.5590   -3.1460 O.2     1  UNL1       -0.4540
     14  C          9.3400   -3.7050   -2.3350 C.3     1  UNL1        0.4680
@<TRIPOS>BOND
     1    13    11    1
     2    13    14    1
     3     9    11    2
     4     9     7    1
     5    11    10    1
     6     7     6    2
     7    14    12    1
     8    10    12    1
     9    10     8    2
    10     6     8    1
    11     6     5    1
    12     5     1    1
    13     1     2    1
    14     2     4    2
    15     2     3    1
