@<TRIPOS>MOLECULE
/home/cewinharhar/GITHUB/reincatalyze/data/processed/docking_pred/2023-May-22-2206_sub9_nm5_bs15_s42_ex16_mel10_mts10000_k50_ec02_g099_lra9e-4_lrc1e-3/5131ba4422f83928eab452067adeb3f7f7723c60_ligand_9.pdbqt
 14 15 0 0 0
SMALL
GASTEIGER

@<TRIPOS>ATOM
      1  C          5.6650    1.4500   -0.2840 C.3     1  UNL1        0.0800
      2  C          5.0800    1.2760    1.0740 C.2     1  UNL1        0.1300
      3  C          5.4650    0.1380    1.9510 C.3     1  UNL1        0.0870
      4  O          4.2600    2.0680    1.5100 O.2     1  UNL1       -0.3000
      5  C          7.1670    1.2420   -0.2670 C.3     1  UNL1        0.0430
      6  C          7.5490   -0.0350   -0.8970 C.2     1  UNL1       -0.0440
      7  C          7.6210   -0.1740   -2.2870 C.2     1  UNL1        0.0080
      8  C          7.8460   -1.1230   -0.1070 C.2     1  UNL1        0.0540
      9  C          7.9860   -1.3960   -2.8220 C.2     1  UNL1        0.0510
     10  C          8.2150   -2.3560   -0.6530 C.2     1  UNL1        0.1660
     11  C          8.2850   -2.4940   -2.0210 C.2     1  UNL1        0.1650
     12  O          8.5530   -3.5690   -0.0900 O.2     1  UNL1       -0.4540
     13  O          8.6700   -3.8010   -2.2730 O.2     1  UNL1       -0.4540
     14  C          8.9380   -4.4920   -1.0760 C.3     1  UNL1        0.4680
@<TRIPOS>BOND
     1     9     7    1
     2     9    11    2
     3     7     6    2
     4    13    11    1
     5    13    14    1
     6    11    10    1
     7    14    12    1
     8     6     5    1
     9     6     8    1
    10    10     8    2
    11    10    12    1
    12     1     5    1
    13     1     2    1
    14     2     4    2
    15     2     3    1
