@<TRIPOS>MOLECULE
/home/cewinharhar/GITHUB/reincatalyze/data/processed/docking_pred/2023-May-22-2206_sub9_nm5_bs15_s42_ex16_mel10_mts10000_k50_ec02_g099_lra9e-4_lrc1e-3/51335195432d6c3c52ef841bfe8bb9323d602809_ligand_9.pdbqt
 14 15 0 0 0
SMALL
GASTEIGER

@<TRIPOS>ATOM
      1  C          5.7620    1.3910   -0.3500 C.3     1  UNL1        0.0800
      2  C          5.1770    1.3040    1.0170 C.2     1  UNL1        0.1300
      3  C          5.5210    0.1930    1.9450 C.3     1  UNL1        0.0870
      4  O          4.3940    2.1500    1.4180 O.2     1  UNL1       -0.3000
      5  C          7.2560    1.1360   -0.3270 C.3     1  UNL1        0.0430
      6  C          7.5990   -0.1600   -0.9390 C.2     1  UNL1       -0.0440
      7  C          7.6090   -0.3350   -2.3270 C.2     1  UNL1        0.0080
      8  C          7.9220   -1.2300   -0.1350 C.2     1  UNL1        0.0540
      9  C          7.9400   -1.5740   -2.8450 C.2     1  UNL1        0.0510
     10  C          8.2560   -2.4800   -0.6630 C.2     1  UNL1        0.1660
     11  C          8.2650   -2.6540   -2.0290 C.2     1  UNL1        0.1650
     12  O          8.6080   -3.6810   -0.0850 O.2     1  UNL1       -0.4540
     13  O          8.6270   -3.9710   -2.2640 O.2     1  UNL1       -0.4540
     14  C          8.9410   -4.6330   -1.0620 C.3     1  UNL1        0.4680
@<TRIPOS>BOND
     1     9     7    1
     2     9    11    2
     3     7     6    2
     4    13    11    1
     5    13    14    1
     6    11    10    1
     7    14    12    1
     8     6     5    1
     9     6     8    1
    10    10     8    2
    11    10    12    1
    12     1     5    1
    13     1     2    1
    14     2     4    2
    15     2     3    1
