@<TRIPOS>MOLECULE
/home/cewinharhar/GITHUB/reincatalyze/data/processed/docking_pred/2023-May-22-2206_sub9_nm5_bs15_s42_ex16_mel10_mts10000_k50_ec02_g099_lra9e-4_lrc1e-3/51cf10a7bcbc20e2348aab739992049d1dff2046_ligand_9.pdbqt
 14 15 0 0 0
SMALL
GASTEIGER

@<TRIPOS>ATOM
      1  C          5.5260    1.9210    1.2650 C.3     1  UNL1        0.0800
      2  C          5.0970    0.7010    2.0040 C.2     1  UNL1        0.1300
      3  C          6.0020   -0.4670    2.1770 C.3     1  UNL1        0.0870
      4  O          3.9810    0.6240    2.4910 O.2     1  UNL1       -0.3000
      5  C          5.4000    1.7300   -0.2330 C.3     1  UNL1        0.0430
      6  C          6.5660    1.0230   -0.7940 C.2     1  UNL1       -0.0440
      7  C          7.8740    1.4530   -0.5430 C.2     1  UNL1        0.0080
      8  C          6.3750   -0.0880   -1.5830 C.2     1  UNL1        0.0540
      9  C          8.9290    0.7500   -1.0950 C.2     1  UNL1        0.0510
     10  C          7.4450   -0.7960   -2.1390 C.2     1  UNL1        0.1660
     11  C          8.7330   -0.3730   -1.8930 C.2     1  UNL1        0.1650
     12  O          7.5160   -1.9130   -2.9440 O.2     1  UNL1       -0.4540
     13  O          9.5760   -1.2490   -2.5580 O.2     1  UNL1       -0.4540
     14  C          8.8510   -2.2930   -3.1630 C.3     1  UNL1        0.4680
@<TRIPOS>BOND
     1    14    12    1
     2    14    13    1
     3    12    10    1
     4    13    11    1
     5    10    11    2
     6    10     8    1
     7    11     9    1
     8     8     6    2
     9     9     7    2
    10     6     7    1
    11     6     5    1
    12     5     1    1
    13     1     2    1
    14     2     3    1
    15     2     4    2
