MODEL 1
REMARK VINA RESULT:      -7.6      0.000      0.000
REMARK SMILES CC(=O)CCc1ccc2c(c1)OCO2
REMARK SMILES IDX 4 1 2 2 1 3 3 4 5 5 6 6 7 7 11 8 8 9 10 10 9 11 12 12 14 13
REMARK SMILES IDX 13 14
REMARK H PARENT
REMARK Flexibility Score: inf
ROOT
ATOM      1  C   UNL     1       5.526   1.921   1.265  1.00  0.00     0.080 C 
ENDROOT
BRANCH   1   2
ATOM      2  C   UNL     1       5.097   0.701   2.004  1.00  0.00     0.130 C 
ATOM      3  C   UNL     1       6.002  -0.467   2.177  1.00  0.00     0.087 C 
ATOM      4  O   UNL     1       3.981   0.624   2.491  1.00  0.00    -0.300 OA
ENDBRANCH   1   2
BRANCH   1   5
ATOM      5  C   UNL     1       5.400   1.730  -0.233  1.00  0.00     0.043 C 
BRANCH   5   6
ATOM      6  C   UNL     1       6.566   1.023  -0.794  1.00  0.00    -0.044 A 
ATOM      7  C   UNL     1       7.874   1.453  -0.543  1.00  0.00     0.008 A 
ATOM      8  C   UNL     1       6.375  -0.088  -1.583  1.00  0.00     0.054 A 
ATOM      9  C   UNL     1       8.929   0.750  -1.095  1.00  0.00     0.051 A 
ATOM     10  C   UNL     1       7.445  -0.796  -2.139  1.00  0.00     0.166 A 
ATOM     11  C   UNL     1       8.733  -0.373  -1.893  1.00  0.00     0.165 A 
ATOM     12  O   UNL     1       7.516  -1.913  -2.944  1.00  0.00    -0.454 OA
ATOM     13  O   UNL     1       9.576  -1.249  -2.558  1.00  0.00    -0.454 OA
ATOM     14  C   UNL     1       8.851  -2.293  -3.163  1.00  0.00     0.468 C 
ENDBRANCH   5   6
ENDBRANCH   1   5
TORSDOF 3
ENDMDL
MODEL 2
REMARK VINA RESULT:      -7.5      1.916      2.373
REMARK SMILES CC(=O)CCc1ccc2c(c1)OCO2
REMARK SMILES IDX 4 1 2 2 1 3 3 4 5 5 6 6 7 7 11 8 8 9 10 10 9 11 12 12 14 13
REMARK SMILES IDX 13 14
REMARK H PARENT
REMARK Flexibility Score: inf
ROOT
ATOM      1  C   UNL     1       5.697   1.261  -0.305  1.00  0.00     0.080 C 
ENDROOT
BRANCH   1   2
ATOM      2  C   UNL     1       5.163   1.227   1.085  1.00  0.00     0.130 C 
ATOM      3  C   UNL     1       5.419   0.077   1.993  1.00  0.00     0.087 C 
ATOM      4  O   UNL     1       4.493   2.150   1.521  1.00  0.00    -0.300 OA
ENDBRANCH   1   2
BRANCH   1   5
ATOM      5  C   UNL     1       7.204   1.099  -0.319  1.00  0.00     0.043 C 
BRANCH   5   6
ATOM      6  C   UNL     1       7.610  -0.189  -0.908  1.00  0.00    -0.044 A 
ATOM      7  C   UNL     1       7.737  -0.355  -2.292  1.00  0.00     0.008 A 
ATOM      8  C   UNL     1       7.875  -1.262  -0.087  1.00  0.00     0.054 A 
ATOM      9  C   UNL     1       8.122  -1.587  -2.788  1.00  0.00     0.051 A 
ATOM     10  C   UNL     1       8.265  -2.505  -0.594  1.00  0.00     0.166 A 
ATOM     11  C   UNL     1       8.389  -2.669  -1.955  1.00  0.00     0.165 A 
ATOM     12  O   UNL     1       8.580  -3.707   0.005  1.00  0.00    -0.454 OA
ATOM     13  O   UNL     1       8.782  -3.982  -2.167  1.00  0.00    -0.454 OA
ATOM     14  C   UNL     1       9.003  -4.649  -0.947  1.00  0.00     0.468 C 
ENDBRANCH   5   6
ENDBRANCH   1   5
TORSDOF 3
ENDMDL
MODEL 3
REMARK VINA RESULT:      -7.2      2.049      2.632
REMARK SMILES CC(=O)CCc1ccc2c(c1)OCO2
REMARK SMILES IDX 4 1 2 2 1 3 3 4 5 5 6 6 7 7 11 8 8 9 10 10 9 11 12 12 14 13
REMARK SMILES IDX 13 14
REMARK H PARENT
REMARK Flexibility Score: inf
ROOT
ATOM      1  C   UNL     1       5.373  -0.091   2.019  1.00  0.00     0.080 C 
ENDROOT
BRANCH   1   2
ATOM      2  C   UNL     1       4.542   1.120   1.773  1.00  0.00     0.130 C 
ATOM      3  C   UNL     1       4.895   2.108   0.718  1.00  0.00     0.087 C 
ATOM      4  O   UNL     1       3.541   1.339   2.435  1.00  0.00    -0.300 OA
ENDBRANCH   1   2
BRANCH   1   5
ATOM      5  C   UNL     1       6.820   0.147   1.638  1.00  0.00     0.043 C 
BRANCH   5   6
ATOM      6  C   UNL     1       7.260  -0.764   0.566  1.00  0.00    -0.044 A 
ATOM      7  C   UNL     1       7.146  -0.415  -0.785  1.00  0.00     0.008 A 
ATOM      8  C   UNL     1       7.799  -1.988   0.889  1.00  0.00     0.054 A 
ATOM      9  C   UNL     1       7.576  -1.309  -1.747  1.00  0.00     0.051 A 
ATOM     10  C   UNL     1       8.233  -2.889  -0.088  1.00  0.00     0.166 A 
ATOM     11  C   UNL     1       8.120  -2.547  -1.417  1.00  0.00     0.165 A 
ATOM     12  O   UNL     1       8.794  -4.147  -0.024  1.00  0.00    -0.454 OA
ATOM     13  O   UNL     1       8.621  -3.612  -2.149  1.00  0.00    -0.454 OA
ATOM     14  C   UNL     1       9.142  -4.610  -1.304  1.00  0.00     0.468 C 
ENDBRANCH   5   6
ENDBRANCH   1   5
TORSDOF 3
ENDMDL
MODEL 4
REMARK VINA RESULT:      -7.1      1.250      1.459
REMARK SMILES CC(=O)CCc1ccc2c(c1)OCO2
REMARK SMILES IDX 4 1 2 2 1 3 3 4 5 5 6 6 7 7 11 8 8 9 10 10 9 11 12 12 14 13
REMARK SMILES IDX 13 14
REMARK H PARENT
REMARK Flexibility Score: inf
ROOT
ATOM      1  C   UNL     1       6.377   1.191   0.932  1.00  0.00     0.080 C 
ENDROOT
BRANCH   1   2
ATOM      2  C   UNL     1       5.658   0.370   1.946  1.00  0.00     0.130 C 
ATOM      3  C   UNL     1       6.262  -0.858   2.527  1.00  0.00     0.087 C 
ATOM      4  O   UNL     1       4.543   0.685   2.330  1.00  0.00    -0.300 OA
ENDBRANCH   1   2
BRANCH   1   5
ATOM      5  C   UNL     1       5.864   0.913  -0.467  1.00  0.00     0.043 C 
BRANCH   5   6
ATOM      6  C   UNL     1       6.812   0.096  -1.244  1.00  0.00    -0.044 A 
ATOM      7  C   UNL     1       7.491   0.616  -2.352  1.00  0.00     0.008 A 
ATOM      8  C   UNL     1       7.046  -1.211  -0.880  1.00  0.00     0.054 A 
ATOM      9  C   UNL     1       8.370  -0.198  -3.043  1.00  0.00     0.051 A 
ATOM     10  C   UNL     1       7.936  -2.029  -1.582  1.00  0.00     0.166 A 
ATOM     11  C   UNL     1       8.603  -1.518  -2.673  1.00  0.00     0.165 A 
ATOM     12  O   UNL     1       8.333  -3.340  -1.421  1.00  0.00    -0.454 OA
ATOM     13  O   UNL     1       9.406  -2.536  -3.164  1.00  0.00    -0.454 OA
ATOM     14  C   UNL     1       9.334  -3.680  -2.347  1.00  0.00     0.468 C 
ENDBRANCH   5   6
ENDBRANCH   1   5
TORSDOF 3
ENDMDL
MODEL 5
REMARK VINA RESULT:      -7.1      1.958      2.527
REMARK SMILES CC(=O)CCc1ccc2c(c1)OCO2
REMARK SMILES IDX 4 1 2 2 1 3 3 4 5 5 6 6 7 7 11 8 8 9 10 10 9 11 12 12 14 13
REMARK SMILES IDX 13 14
REMARK H PARENT
REMARK Flexibility Score: inf
ROOT
ATOM      1  C   UNL     1       6.887   0.902   1.200  1.00  0.00     0.080 C 
ENDROOT
BRANCH   1   2
ATOM      2  C   UNL     1       5.426   1.158   1.343  1.00  0.00     0.130 C 
ATOM      3  C   UNL     1       4.719   2.144   0.484  1.00  0.00     0.087 C 
ATOM      4  O   UNL     1       4.764   0.562   2.177  1.00  0.00    -0.300 OA
ENDBRANCH   1   2
BRANCH   1   5
ATOM      5  C   UNL     1       7.335   1.060  -0.239  1.00  0.00     0.043 C 
BRANCH   5   6
ATOM      6  C   UNL     1       7.696  -0.234  -0.844  1.00  0.00    -0.044 A 
ATOM      7  C   UNL     1       7.806  -0.390  -2.231  1.00  0.00     0.008 A 
ATOM      8  C   UNL     1       7.937  -1.322  -0.035  1.00  0.00     0.054 A 
ATOM      9  C   UNL     1       8.149  -1.629  -2.741  1.00  0.00     0.051 A 
ATOM     10  C   UNL     1       8.284  -2.572  -0.557  1.00  0.00     0.166 A 
ATOM     11  C   UNL     1       8.391  -2.726  -1.921  1.00  0.00     0.165 A 
ATOM     12  O   UNL     1       8.568  -3.788   0.028  1.00  0.00    -0.454 OA
ATOM     13  O   UNL     1       8.743  -4.048  -2.148  1.00  0.00    -0.454 OA
ATOM     14  C   UNL     1       8.954  -4.733  -0.937  1.00  0.00     0.468 C 
ENDBRANCH   5   6
ENDBRANCH   1   5
TORSDOF 3
ENDMDL
