@<TRIPOS>MOLECULE
/home/cewinharhar/GITHUB/reincatalyze/data/processed/docking_pred/2023-May-22-2206_sub9_nm5_bs15_s42_ex16_mel10_mts10000_k50_ec02_g099_lra9e-4_lrc1e-3/53c3fbcdd7c01d09a3e8b21e27d629f70ce21da9_ligand_9.pdbqt
 14 15 0 0 0
SMALL
GASTEIGER

@<TRIPOS>ATOM
      1  C          5.7740    1.4470   -0.1930 C.3     1  UNL1        0.0800
      2  C          5.0660    1.2750    1.1060 C.2     1  UNL1        0.1300
      3  C          5.3340    0.1120    1.9940 C.3     1  UNL1        0.0870
      4  O          4.2380    2.0890    1.4810 O.2     1  UNL1       -0.3000
      5  C          7.2510    1.1370   -0.0600 C.3     1  UNL1        0.0430
      6  C          7.6040   -0.1350   -0.7160 C.2     1  UNL1       -0.0440
      7  C          7.6390   -0.2570   -2.1090 C.2     1  UNL1        0.0080
      8  C          7.9110   -1.2360    0.0520 C.2     1  UNL1        0.0540
      9  C          7.9780   -1.4750   -2.6690 C.2     1  UNL1        0.0510
     10  C          8.2530   -2.4660   -0.5190 C.2     1  UNL1        0.1660
     11  C          8.2870   -2.5870   -1.8900 C.2     1  UNL1        0.1650
     12  O          8.5930   -3.6890    0.0190 O.2     1  UNL1       -0.4540
     13  O          8.6510   -3.8940   -2.1690 O.2     1  UNL1       -0.4540
     14  C          8.9430   -4.6030   -0.9880 C.3     1  UNL1        0.4680
@<TRIPOS>BOND
     1     9     7    1
     2     9    11    2
     3    13    11    1
     4    13    14    1
     5     7     6    2
     6    11    10    1
     7    14    12    1
     8     6     5    1
     9     6     8    1
    10    10    12    1
    11    10     8    2
    12     1     5    1
    13     1     2    1
    14     2     4    2
    15     2     3    1
