@<TRIPOS>MOLECULE
/home/cewinharhar/GITHUB/reincatalyze/data/processed/docking_pred/2023-May-22-2206_sub9_nm5_bs15_s42_ex16_mel10_mts10000_k50_ec02_g099_lra9e-4_lrc1e-3/53c3fbcdd7c01d09a3e8b21e27d629f70ce21da9_ligand_9.pdbqt
 14 15 0 0 0
SMALL
GASTEIGER

@<TRIPOS>ATOM
      1  C          5.4910   -0.0360    1.9490 C.3     1  UNL1        0.0800
      2  C          4.6540    1.1610    1.6560 C.2     1  UNL1        0.1300
      3  C          5.0260    2.1330    0.5940 C.3     1  UNL1        0.0870
      4  O          3.6310    1.3790    2.2850 O.2     1  UNL1       -0.3000
      5  C          6.9320    0.1850    1.5320 C.3     1  UNL1        0.0430
      6  C          7.3450   -0.7570    0.4750 C.2     1  UNL1       -0.0440
      7  C          7.2170   -0.4380   -0.8810 C.2     1  UNL1        0.0080
      8  C          7.8730   -1.9800    0.8200 C.2     1  UNL1        0.0540
      9  C          7.6230   -1.3610   -1.8290 C.2     1  UNL1        0.0510
     10  C          8.2820   -2.9090   -0.1410 C.2     1  UNL1        0.1660
     11  C          8.1560   -2.5970   -1.4760 C.2     1  UNL1        0.1650
     12  O          8.8280   -4.1720   -0.0550 O.2     1  UNL1       -0.4540
     13  O          8.6330   -3.6850   -2.1900 O.2     1  UNL1       -0.4540
     14  C          9.1530   -4.6690   -1.3280 C.3     1  UNL1        0.4680
@<TRIPOS>BOND
     1    13    11    1
     2    13    14    1
     3     9    11    2
     4     9     7    1
     5    11    10    1
     6    14    12    1
     7     7     6    2
     8    10    12    1
     9    10     8    2
    10     6     8    1
    11     6     5    1
    12     3     2    1
    13     5     1    1
    14     2     1    1
    15     2     4    2
