@<TRIPOS>MOLECULE
/home/cewinharhar/GITHUB/reincatalyze/data/processed/docking_pred/2023-May-22-2206_sub9_nm5_bs15_s42_ex16_mel10_mts10000_k50_ec02_g099_lra9e-4_lrc1e-3/53c3fbcdd7c01d09a3e8b21e27d629f70ce21da9_ligand_9.pdbqt
 14 15 0 0 0
SMALL
GASTEIGER

@<TRIPOS>ATOM
      1  C          6.6880    0.4760    1.0780 C.3     1  UNL1        0.0800
      2  C          5.3610    1.0470    1.4420 C.2     1  UNL1        0.1300
      3  C          4.7440    2.1480    0.6560 C.3     1  UNL1        0.0870
      4  O          4.7390    0.6250    2.4030 O.2     1  UNL1       -0.3000
      5  C          6.9610    0.6190   -0.4060 C.3     1  UNL1        0.0430
      6  C          7.5130   -0.6200   -0.9820 C.2     1  UNL1       -0.0440
      7  C          7.7540   -0.7460   -2.3550 C.2     1  UNL1        0.0080
      8  C          7.8040   -1.6840   -0.1600 C.2     1  UNL1        0.0540
      9  C          8.2740   -1.9320   -2.8390 C.2     1  UNL1        0.0510
     10  C          8.3300   -2.8810   -0.6540 C.2     1  UNL1        0.1660
     11  C          8.5670   -3.0070   -2.0050 C.2     1  UNL1        0.1650
     12  O          8.6970   -4.0660   -0.0510 O.2     1  UNL1       -0.4540
     13  O          9.0800   -4.2780   -2.2060 O.2     1  UNL1       -0.4540
     14  C          9.2650   -4.9510   -0.9830 C.3     1  UNL1        0.4680
@<TRIPOS>BOND
     1     9     7    1
     2     9    11    2
     3     7     6    2
     4    13    11    1
     5    13    14    1
     6    11    10    1
     7    14    12    1
     8     6     5    1
     9     6     8    1
    10    10     8    2
    11    10    12    1
    12     5     1    1
    13     3     2    1
    14     1     2    1
    15     2     4    2
