@<TRIPOS>MOLECULE
/home/cewinharhar/GITHUB/reincatalyze/data/processed/docking_pred/2023-May-22-2206_sub9_nm5_bs15_s42_ex16_mel10_mts10000_k50_ec02_g099_lra9e-4_lrc1e-3/54a2e3ceee1b2a6ac8591f20fd198e2f201bb612_ligand_9.pdbqt
 14 15 0 0 0
SMALL
GASTEIGER

@<TRIPOS>ATOM
      1  C          5.4460   -0.0530    2.0050 C.3     1  UNL1        0.0800
      2  C          4.6010    1.1490    1.7590 C.2     1  UNL1        0.1300
      3  C          4.9410    2.1400    0.7030 C.3     1  UNL1        0.0870
      4  O          3.5990    1.3570    2.4240 O.2     1  UNL1       -0.3000
      5  C          6.8810    0.1870    1.5780 C.3     1  UNL1        0.0430
      6  C          7.3000   -0.7480    0.5190 C.2     1  UNL1       -0.0440
      7  C          7.1530   -0.4330   -0.8370 C.2     1  UNL1        0.0080
      8  C          7.8520   -1.9620    0.8590 C.2     1  UNL1        0.0540
      9  C          7.5640   -1.3490   -1.7870 C.2     1  UNL1        0.0510
     10  C          8.2670   -2.8850   -0.1060 C.2     1  UNL1        0.1660
     11  C          8.1220   -2.5760   -1.4400 C.2     1  UNL1        0.1650
     12  O          8.8360   -4.1380   -0.0240 O.2     1  UNL1       -0.4540
     13  O          8.6100   -3.6570   -2.1570 O.2     1  UNL1       -0.4540
     14  C          9.1560   -4.6310   -1.3000 C.3     1  UNL1        0.4680
@<TRIPOS>BOND
     1    13    11    1
     2    13    14    1
     3     9    11    2
     4     9     7    1
     5    11    10    1
     6    14    12    1
     7     7     6    2
     8    10    12    1
     9    10     8    2
    10     6     8    1
    11     6     5    1
    12     3     2    1
    13     5     1    1
    14     2     1    1
    15     2     4    2
