MODEL 1
REMARK VINA RESULT:      -7.6      0.000      0.000
REMARK SMILES CC(=O)CCc1ccc2c(c1)OCO2
REMARK SMILES IDX 4 1 2 2 1 3 3 4 5 5 6 6 7 7 11 8 8 9 10 10 9 11 12 12 14 13
REMARK SMILES IDX 13 14
REMARK H PARENT
REMARK Flexibility Score: inf
ROOT
ATOM      1  C   UNL     1       5.564   1.901   1.294  1.00  0.00     0.080 C 
ENDROOT
BRANCH   1   2
ATOM      2  C   UNL     1       5.115   0.684   2.025  1.00  0.00     0.130 C 
ATOM      3  C   UNL     1       6.004  -0.497   2.196  1.00  0.00     0.087 C 
ATOM      4  O   UNL     1       3.996   0.620   2.508  1.00  0.00    -0.300 OA
ENDBRANCH   1   2
BRANCH   1   5
ATOM      5  C   UNL     1       5.427   1.724  -0.206  1.00  0.00     0.043 C 
BRANCH   5   6
ATOM      6  C   UNL     1       6.589   1.023  -0.781  1.00  0.00    -0.044 A 
ATOM      7  C   UNL     1       7.898   1.456  -0.545  1.00  0.00     0.008 A 
ATOM      8  C   UNL     1       6.393  -0.088  -1.569  1.00  0.00     0.054 A 
ATOM      9  C   UNL     1       8.949   0.758  -1.110  1.00  0.00     0.051 A 
ATOM     10  C   UNL     1       7.458  -0.792  -2.138  1.00  0.00     0.166 A 
ATOM     11  C   UNL     1       8.747  -0.365  -1.907  1.00  0.00     0.165 A 
ATOM     12  O   UNL     1       7.523  -1.907  -2.946  1.00  0.00    -0.454 OA
ATOM     13  O   UNL     1       9.586  -1.237  -2.584  1.00  0.00    -0.454 OA
ATOM     14  C   UNL     1       8.856  -2.283  -3.181  1.00  0.00     0.468 C 
ENDBRANCH   5   6
ENDBRANCH   1   5
TORSDOF 3
ENDMDL
MODEL 2
REMARK VINA RESULT:      -7.5      1.941      2.406
REMARK SMILES CC(=O)CCc1ccc2c(c1)OCO2
REMARK SMILES IDX 4 1 2 2 1 3 3 4 5 5 6 6 7 7 11 8 8 9 10 10 9 11 12 12 14 13
REMARK SMILES IDX 13 14
REMARK H PARENT
REMARK Flexibility Score: inf
ROOT
ATOM      1  C   UNL     1       5.780   1.361  -0.333  1.00  0.00     0.080 C 
ENDROOT
BRANCH   1   2
ATOM      2  C   UNL     1       5.160   1.275   1.018  1.00  0.00     0.130 C 
ATOM      3  C   UNL     1       5.426   0.130   1.928  1.00  0.00     0.087 C 
ATOM      4  O   UNL     1       4.409   2.150   1.419  1.00  0.00    -0.300 OA
ENDBRANCH   1   2
BRANCH   1   5
ATOM      5  C   UNL     1       7.274   1.112  -0.269  1.00  0.00     0.043 C 
BRANCH   5   6
ATOM      6  C   UNL     1       7.638  -0.187  -0.863  1.00  0.00    -0.044 A 
ATOM      7  C   UNL     1       7.705  -0.366  -2.249  1.00  0.00     0.008 A 
ATOM      8  C   UNL     1       7.922  -1.256  -0.044  1.00  0.00     0.054 A 
ATOM      9  C   UNL     1       8.053  -1.608  -2.749  1.00  0.00     0.051 A 
ATOM     10  C   UNL     1       8.273  -2.509  -0.554  1.00  0.00     0.166 A 
ATOM     11  C   UNL     1       8.339  -2.687  -1.918  1.00  0.00     0.165 A 
ATOM     12  O   UNL     1       8.595  -3.710   0.042  1.00  0.00    -0.454 OA
ATOM     13  O   UNL     1       8.705  -4.006  -2.133  1.00  0.00    -0.454 OA
ATOM     14  C   UNL     1       8.966  -4.666  -0.917  1.00  0.00     0.468 C 
ENDBRANCH   5   6
ENDBRANCH   1   5
TORSDOF 3
ENDMDL
MODEL 3
REMARK VINA RESULT:      -7.2      2.068      2.639
REMARK SMILES CC(=O)CCc1ccc2c(c1)OCO2
REMARK SMILES IDX 4 1 2 2 1 3 3 4 5 5 6 6 7 7 11 8 8 9 10 10 9 11 12 12 14 13
REMARK SMILES IDX 13 14
REMARK H PARENT
REMARK Flexibility Score: inf
ROOT
ATOM      1  C   UNL     1       5.446  -0.053   2.005  1.00  0.00     0.080 C 
ENDROOT
BRANCH   1   2
ATOM      2  C   UNL     1       4.601   1.149   1.759  1.00  0.00     0.130 C 
ATOM      3  C   UNL     1       4.941   2.140   0.703  1.00  0.00     0.087 C 
ATOM      4  O   UNL     1       3.599   1.357   2.424  1.00  0.00    -0.300 OA
ENDBRANCH   1   2
BRANCH   1   5
ATOM      5  C   UNL     1       6.881   0.187   1.578  1.00  0.00     0.043 C 
BRANCH   5   6
ATOM      6  C   UNL     1       7.300  -0.748   0.519  1.00  0.00    -0.044 A 
ATOM      7  C   UNL     1       7.153  -0.433  -0.837  1.00  0.00     0.008 A 
ATOM      8  C   UNL     1       7.852  -1.962   0.859  1.00  0.00     0.054 A 
ATOM      9  C   UNL     1       7.564  -1.349  -1.787  1.00  0.00     0.051 A 
ATOM     10  C   UNL     1       8.267  -2.885  -0.106  1.00  0.00     0.166 A 
ATOM     11  C   UNL     1       8.122  -2.576  -1.440  1.00  0.00     0.165 A 
ATOM     12  O   UNL     1       8.836  -4.138  -0.024  1.00  0.00    -0.454 OA
ATOM     13  O   UNL     1       8.610  -3.657  -2.157  1.00  0.00    -0.454 OA
ATOM     14  C   UNL     1       9.156  -4.631  -1.300  1.00  0.00     0.468 C 
ENDBRANCH   5   6
ENDBRANCH   1   5
TORSDOF 3
ENDMDL
MODEL 4
REMARK VINA RESULT:      -7.1      1.239      1.434
REMARK SMILES CC(=O)CCc1ccc2c(c1)OCO2
REMARK SMILES IDX 4 1 2 2 1 3 3 4 5 5 6 6 7 7 11 8 8 9 10 10 9 11 12 12 14 13
REMARK SMILES IDX 13 14
REMARK H PARENT
REMARK Flexibility Score: inf
ROOT
ATOM      1  C   UNL     1       6.369   1.225   0.947  1.00  0.00     0.080 C 
ENDROOT
BRANCH   1   2
ATOM      2  C   UNL     1       5.652   0.374   1.937  1.00  0.00     0.130 C 
ATOM      3  C   UNL     1       6.272  -0.853   2.506  1.00  0.00     0.087 C 
ATOM      4  O   UNL     1       4.526   0.660   2.311  1.00  0.00    -0.300 OA
ENDBRANCH   1   2
BRANCH   1   5
ATOM      5  C   UNL     1       5.868   0.972  -0.461  1.00  0.00     0.043 C 
BRANCH   5   6
ATOM      6  C   UNL     1       6.808   0.141  -1.234  1.00  0.00    -0.044 A 
ATOM      7  C   UNL     1       7.498   0.649  -2.341  1.00  0.00     0.008 A 
ATOM      8  C   UNL     1       7.023  -1.168  -0.866  1.00  0.00     0.054 A 
ATOM      9  C   UNL     1       8.368  -0.178  -3.027  1.00  0.00     0.051 A 
ATOM     10  C   UNL     1       7.904  -2.000  -1.563  1.00  0.00     0.166 A 
ATOM     11  C   UNL     1       8.582  -1.501  -2.653  1.00  0.00     0.165 A 
ATOM     12  O   UNL     1       8.283  -3.316  -1.399  1.00  0.00    -0.454 OA
ATOM     13  O   UNL     1       9.372  -2.530  -3.140  1.00  0.00    -0.454 OA
ATOM     14  C   UNL     1       9.282  -3.671  -2.320  1.00  0.00     0.468 C 
ENDBRANCH   5   6
ENDBRANCH   1   5
TORSDOF 3
ENDMDL
MODEL 5
REMARK VINA RESULT:      -7.0      1.944      2.490
REMARK SMILES CC(=O)CCc1ccc2c(c1)OCO2
REMARK SMILES IDX 4 1 2 2 1 3 3 4 5 5 6 6 7 7 11 8 8 9 10 10 9 11 12 12 14 13
REMARK SMILES IDX 13 14
REMARK H PARENT
REMARK Flexibility Score: inf
ROOT
ATOM      1  C   UNL     1       6.822   0.879   1.313  1.00  0.00     0.080 C 
ENDROOT
BRANCH   1   2
ATOM      2  C   UNL     1       5.369   1.153   1.487  1.00  0.00     0.130 C 
ATOM      3  C   UNL     1       4.656   2.149   0.643  1.00  0.00     0.087 C 
ATOM      4  O   UNL     1       4.716   0.564   2.333  1.00  0.00    -0.300 OA
ENDBRANCH   1   2
BRANCH   1   5
ATOM      5  C   UNL     1       7.251   1.071  -0.128  1.00  0.00     0.043 C 
BRANCH   5   6
ATOM      6  C   UNL     1       7.606  -0.209  -0.767  1.00  0.00    -0.044 A 
ATOM      7  C   UNL     1       7.619  -0.354  -2.159  1.00  0.00     0.008 A 
ATOM      8  C   UNL     1       7.937  -1.293   0.013  1.00  0.00     0.054 A 
ATOM      9  C   UNL     1       7.961  -1.579  -2.703  1.00  0.00     0.051 A 
ATOM     10  C   UNL     1       8.284  -2.529  -0.541  1.00  0.00     0.166 A 
ATOM     11  C   UNL     1       8.295  -2.673  -1.911  1.00  0.00     0.165 A 
ATOM     12  O   UNL     1       8.646  -3.739   0.012  1.00  0.00    -0.454 OA
ATOM     13  O   UNL     1       8.669  -3.982  -2.173  1.00  0.00    -0.454 OA
ATOM     14  C   UNL     1       8.989  -4.666  -0.985  1.00  0.00     0.468 C 
ENDBRANCH   5   6
ENDBRANCH   1   5
TORSDOF 3
ENDMDL
