@<TRIPOS>MOLECULE
/home/cewinharhar/GITHUB/reincatalyze/data/processed/docking_pred/2023-May-22-2206_sub9_nm5_bs15_s42_ex16_mel10_mts10000_k50_ec02_g099_lra9e-4_lrc1e-3/551c5941f3bf749be32b1159c48b101be233bdbe_ligand_9.pdbqt
 14 15 0 0 0
SMALL
GASTEIGER

@<TRIPOS>ATOM
      1  C          6.3730    1.2030    0.9480 C.3     1  UNL1        0.0800
      2  C          5.6470    0.3740    1.9500 C.2     1  UNL1        0.1300
      3  C          6.2540   -0.8490    2.5390 C.3     1  UNL1        0.0870
      4  O          4.5230    0.6780    2.3180 O.2     1  UNL1       -0.3000
      5  C          5.8680    0.9380   -0.4560 C.3     1  UNL1        0.0430
      6  C          6.8130    0.1120   -1.2300 C.2     1  UNL1       -0.0440
      7  C          7.4890    0.6210   -2.3440 C.2     1  UNL1        0.0080
      8  C          7.0440   -1.1920   -0.8540 C.2     1  UNL1        0.0540
      9  C          8.3650   -0.2010   -3.0310 C.2     1  UNL1        0.0510
     10  C          7.9300   -2.0180   -1.5510 C.2     1  UNL1        0.1660
     11  C          8.5960   -1.5190   -2.6490 C.2     1  UNL1        0.1650
     12  O          8.3250   -3.3280   -1.3810 O.2     1  UNL1       -0.4540
     13  O          9.3940   -2.5430   -3.1340 O.2     1  UNL1       -0.4540
     14  C          9.3220   -3.6790   -2.3060 C.3     1  UNL1        0.4680
@<TRIPOS>BOND
     1    13    11    1
     2    13    14    1
     3     9    11    2
     4     9     7    1
     5    11    10    1
     6     7     6    2
     7    14    12    1
     8    10    12    1
     9    10     8    2
    10     6     8    1
    11     6     5    1
    12     5     1    1
    13     1     2    1
    14     2     4    2
    15     2     3    1
