MODEL 1
REMARK VINA RESULT:      -7.6      0.000      0.000
REMARK SMILES CC(=O)CCc1ccc2c(c1)OCO2
REMARK SMILES IDX 4 1 2 2 1 3 3 4 5 5 6 6 7 7 11 8 8 9 10 10 9 11 12 12 14 13
REMARK SMILES IDX 13 14
REMARK H PARENT
REMARK Flexibility Score: inf
ROOT
ATOM      1  C   UNL     1       5.550   1.915   1.268  1.00  0.00     0.080 C 
ENDROOT
BRANCH   1   2
ATOM      2  C   UNL     1       5.111   0.702   2.014  1.00  0.00     0.130 C 
ATOM      3  C   UNL     1       6.009  -0.470   2.196  1.00  0.00     0.087 C 
ATOM      4  O   UNL     1       3.994   0.636   2.501  1.00  0.00    -0.300 OA
ENDBRANCH   1   2
BRANCH   1   5
ATOM      5  C   UNL     1       5.415   1.719  -0.229  1.00  0.00     0.043 C 
BRANCH   5   6
ATOM      6  C   UNL     1       6.581   1.018  -0.795  1.00  0.00    -0.044 A 
ATOM      7  C   UNL     1       7.889   1.451  -0.547  1.00  0.00     0.008 A 
ATOM      8  C   UNL     1       6.392  -0.092  -1.587  1.00  0.00     0.054 A 
ATOM      9  C   UNL     1       8.944   0.754  -1.105  1.00  0.00     0.051 A 
ATOM     10  C   UNL     1       7.462  -0.794  -2.149  1.00  0.00     0.166 A 
ATOM     11  C   UNL     1       8.749  -0.368  -1.906  1.00  0.00     0.165 A 
ATOM     12  O   UNL     1       7.534  -1.908  -2.958  1.00  0.00    -0.454 OA
ATOM     13  O   UNL     1       9.593  -1.238  -2.577  1.00  0.00    -0.454 OA
ATOM     14  C   UNL     1       8.869  -2.283  -3.182  1.00  0.00     0.468 C 
ENDBRANCH   5   6
ENDBRANCH   1   5
TORSDOF 3
ENDMDL
MODEL 2
REMARK VINA RESULT:      -7.4      1.884      2.363
REMARK SMILES CC(=O)CCc1ccc2c(c1)OCO2
REMARK SMILES IDX 4 1 2 2 1 3 3 4 5 5 6 6 7 7 11 8 8 9 10 10 9 11 12 12 14 13
REMARK SMILES IDX 13 14
REMARK H PARENT
REMARK Flexibility Score: inf
ROOT
ATOM      1  C   UNL     1       5.798   1.427  -0.338  1.00  0.00     0.080 C 
ENDROOT
BRANCH   1   2
ATOM      2  C   UNL     1       5.189   1.296   1.014  1.00  0.00     0.130 C 
ATOM      3  C   UNL     1       5.476   0.129   1.890  1.00  0.00     0.087 C 
ATOM      4  O   UNL     1       4.431   2.150   1.446  1.00  0.00    -0.300 OA
ENDBRANCH   1   2
BRANCH   1   5
ATOM      5  C   UNL     1       7.291   1.164  -0.298  1.00  0.00     0.043 C 
BRANCH   5   6
ATOM      6  C   UNL     1       7.634  -0.132  -0.910  1.00  0.00    -0.044 A 
ATOM      7  C   UNL     1       7.634  -0.310  -2.298  1.00  0.00     0.008 A 
ATOM      8  C   UNL     1       7.968  -1.198  -0.107  1.00  0.00     0.054 A 
ATOM      9  C   UNL     1       7.965  -1.548  -2.816  1.00  0.00     0.051 A 
ATOM     10  C   UNL     1       8.303  -2.449  -0.635  1.00  0.00     0.166 A 
ATOM     11  C   UNL     1       8.301  -2.625  -2.001  1.00  0.00     0.165 A 
ATOM     12  O   UNL     1       8.664  -3.647  -0.057  1.00  0.00    -0.454 OA
ATOM     13  O   UNL     1       8.667  -3.941  -2.236  1.00  0.00    -0.454 OA
ATOM     14  C   UNL     1       8.994  -4.600  -1.035  1.00  0.00     0.468 C 
ENDBRANCH   5   6
ENDBRANCH   1   5
TORSDOF 3
ENDMDL
MODEL 3
REMARK VINA RESULT:      -7.2      2.086      2.627
REMARK SMILES CC(=O)CCc1ccc2c(c1)OCO2
REMARK SMILES IDX 4 1 2 2 1 3 3 4 5 5 6 6 7 7 11 8 8 9 10 10 9 11 12 12 14 13
REMARK SMILES IDX 13 14
REMARK H PARENT
REMARK Flexibility Score: inf
ROOT
ATOM      1  C   UNL     1       5.526  -0.025   1.935  1.00  0.00     0.080 C 
ENDROOT
BRANCH   1   2
ATOM      2  C   UNL     1       4.667   1.157   1.645  1.00  0.00     0.130 C 
ATOM      3  C   UNL     1       4.986   2.101   0.541  1.00  0.00     0.087 C 
ATOM      4  O   UNL     1       3.670   1.386   2.310  1.00  0.00    -0.300 OA
ENDBRANCH   1   2
BRANCH   1   5
ATOM      5  C   UNL     1       6.958   0.214   1.499  1.00  0.00     0.043 C 
BRANCH   5   6
ATOM      6  C   UNL     1       7.375  -0.734   0.450  1.00  0.00    -0.044 A 
ATOM      7  C   UNL     1       7.290  -0.408  -0.908  1.00  0.00     0.008 A 
ATOM      8  C   UNL     1       7.863  -1.971   0.804  1.00  0.00     0.054 A 
ATOM      9  C   UNL     1       7.697  -1.337  -1.848  1.00  0.00     0.051 A 
ATOM     10  C   UNL     1       8.274  -2.907  -0.150  1.00  0.00     0.166 A 
ATOM     11  C   UNL     1       8.190  -2.588  -1.487  1.00  0.00     0.165 A 
ATOM     12  O   UNL     1       8.786  -4.183  -0.054  1.00  0.00    -0.454 OA
ATOM     13  O   UNL     1       8.658  -3.686  -2.191  1.00  0.00    -0.454 OA
ATOM     14  C   UNL     1       9.131  -4.685  -1.320  1.00  0.00     0.468 C 
ENDBRANCH   5   6
ENDBRANCH   1   5
TORSDOF 3
ENDMDL
MODEL 4
REMARK VINA RESULT:      -7.1      1.251      1.452
REMARK SMILES CC(=O)CCc1ccc2c(c1)OCO2
REMARK SMILES IDX 4 1 2 2 1 3 3 4 5 5 6 6 7 7 11 8 8 9 10 10 9 11 12 12 14 13
REMARK SMILES IDX 13 14
REMARK H PARENT
REMARK Flexibility Score: inf
ROOT
ATOM      1  C   UNL     1       6.373   1.203   0.948  1.00  0.00     0.080 C 
ENDROOT
BRANCH   1   2
ATOM      2  C   UNL     1       5.647   0.374   1.950  1.00  0.00     0.130 C 
ATOM      3  C   UNL     1       6.254  -0.849   2.539  1.00  0.00     0.087 C 
ATOM      4  O   UNL     1       4.523   0.678   2.318  1.00  0.00    -0.300 OA
ENDBRANCH   1   2
BRANCH   1   5
ATOM      5  C   UNL     1       5.868   0.938  -0.456  1.00  0.00     0.043 C 
BRANCH   5   6
ATOM      6  C   UNL     1       6.813   0.112  -1.230  1.00  0.00    -0.044 A 
ATOM      7  C   UNL     1       7.489   0.621  -2.344  1.00  0.00     0.008 A 
ATOM      8  C   UNL     1       7.044  -1.192  -0.854  1.00  0.00     0.054 A 
ATOM      9  C   UNL     1       8.365  -0.201  -3.031  1.00  0.00     0.051 A 
ATOM     10  C   UNL     1       7.930  -2.018  -1.551  1.00  0.00     0.166 A 
ATOM     11  C   UNL     1       8.596  -1.519  -2.649  1.00  0.00     0.165 A 
ATOM     12  O   UNL     1       8.325  -3.328  -1.381  1.00  0.00    -0.454 OA
ATOM     13  O   UNL     1       9.394  -2.543  -3.134  1.00  0.00    -0.454 OA
ATOM     14  C   UNL     1       9.322  -3.679  -2.306  1.00  0.00     0.468 C 
ENDBRANCH   5   6
ENDBRANCH   1   5
TORSDOF 3
ENDMDL
MODEL 5
REMARK VINA RESULT:      -6.8      1.261      1.751
REMARK SMILES CC(=O)CCc1ccc2c(c1)OCO2
REMARK SMILES IDX 4 1 2 2 1 3 3 4 5 5 6 6 7 7 11 8 8 9 10 10 9 11 12 12 14 13
REMARK SMILES IDX 13 14
REMARK H PARENT
REMARK Flexibility Score: inf
ROOT
ATOM      1  C   UNL     1       5.318  -0.069   1.973  1.00  0.00     0.080 C 
ENDROOT
BRANCH   1   2
ATOM      2  C   UNL     1       4.438   1.118   1.786  1.00  0.00     0.130 C 
ATOM      3  C   UNL     1       4.727   2.150   0.755  1.00  0.00     0.087 C 
ATOM      4  O   UNL     1       3.447   1.279   2.480  1.00  0.00    -0.300 OA
ENDBRANCH   1   2
BRANCH   1   5
ATOM      5  C   UNL     1       6.783   0.317   1.910  1.00  0.00     0.043 C 
BRANCH   5   6
ATOM      6  C   UNL     1       7.386  -0.037   0.613  1.00  0.00    -0.044 A 
ATOM      7  C   UNL     1       7.877   0.943  -0.258  1.00  0.00     0.008 A 
ATOM      8  C   UNL     1       7.475  -1.358   0.239  1.00  0.00     0.054 A 
ATOM      9  C   UNL     1       8.433   0.552  -1.463  1.00  0.00     0.051 A 
ATOM     10  C   UNL     1       8.039  -1.749  -0.979  1.00  0.00     0.166 A 
ATOM     11  C   UNL     1       8.522  -0.785  -1.837  1.00  0.00     0.165 A 
ATOM     12  O   UNL     1       8.240  -2.978  -1.571  1.00  0.00    -0.454 OA
ATOM     13  O   UNL     1       9.015  -1.450  -2.949  1.00  0.00    -0.454 OA
ATOM     14  C   UNL     1       8.939  -2.846  -2.782  1.00  0.00     0.468 C 
ENDBRANCH   5   6
ENDBRANCH   1   5
TORSDOF 3
ENDMDL
