@<TRIPOS>MOLECULE
/home/cewinharhar/GITHUB/reincatalyze/data/processed/docking_pred/2023-May-22-2206_sub9_nm5_bs15_s42_ex16_mel10_mts10000_k50_ec02_g099_lra9e-4_lrc1e-3/551c5941f3bf749be32b1159c48b101be233bdbe_ligand_9.pdbqt
 14 15 0 0 0
SMALL
GASTEIGER

@<TRIPOS>ATOM
      1  C          5.7980    1.4270   -0.3380 C.3     1  UNL1        0.0800
      2  C          5.1890    1.2960    1.0140 C.2     1  UNL1        0.1300
      3  C          5.4760    0.1290    1.8900 C.3     1  UNL1        0.0870
      4  O          4.4310    2.1500    1.4460 O.2     1  UNL1       -0.3000
      5  C          7.2910    1.1640   -0.2980 C.3     1  UNL1        0.0430
      6  C          7.6340   -0.1320   -0.9100 C.2     1  UNL1       -0.0440
      7  C          7.6340   -0.3100   -2.2980 C.2     1  UNL1        0.0080
      8  C          7.9680   -1.1980   -0.1070 C.2     1  UNL1        0.0540
      9  C          7.9650   -1.5480   -2.8160 C.2     1  UNL1        0.0510
     10  C          8.3030   -2.4490   -0.6350 C.2     1  UNL1        0.1660
     11  C          8.3010   -2.6250   -2.0010 C.2     1  UNL1        0.1650
     12  O          8.6640   -3.6470   -0.0570 O.2     1  UNL1       -0.4540
     13  O          8.6670   -3.9410   -2.2360 O.2     1  UNL1       -0.4540
     14  C          8.9940   -4.6000   -1.0350 C.3     1  UNL1        0.4680
@<TRIPOS>BOND
     1     9     7    1
     2     9    11    2
     3     7     6    2
     4    13    11    1
     5    13    14    1
     6    11    10    1
     7    14    12    1
     8     6     5    1
     9     6     8    1
    10    10     8    2
    11    10    12    1
    12     1     5    1
    13     1     2    1
    14     2     4    2
    15     2     3    1
