@<TRIPOS>MOLECULE
/home/cewinharhar/GITHUB/reincatalyze/data/processed/docking_pred/2023-May-22-2206_sub9_nm5_bs15_s42_ex16_mel10_mts10000_k50_ec02_g099_lra9e-4_lrc1e-3/551c5941f3bf749be32b1159c48b101be233bdbe_ligand_9.pdbqt
 14 15 0 0 0
SMALL
GASTEIGER

@<TRIPOS>ATOM
      1  C          5.3180   -0.0690    1.9730 C.3     1  UNL1        0.0800
      2  C          4.4380    1.1180    1.7860 C.2     1  UNL1        0.1300
      3  C          4.7270    2.1500    0.7550 C.3     1  UNL1        0.0870
      4  O          3.4470    1.2790    2.4800 O.2     1  UNL1       -0.3000
      5  C          6.7830    0.3170    1.9100 C.3     1  UNL1        0.0430
      6  C          7.3860   -0.0370    0.6130 C.2     1  UNL1       -0.0440
      7  C          7.8770    0.9430   -0.2580 C.2     1  UNL1        0.0080
      8  C          7.4750   -1.3580    0.2390 C.2     1  UNL1        0.0540
      9  C          8.4330    0.5520   -1.4630 C.2     1  UNL1        0.0510
     10  C          8.0390   -1.7490   -0.9790 C.2     1  UNL1        0.1660
     11  C          8.5220   -0.7850   -1.8370 C.2     1  UNL1        0.1650
     12  O          8.2400   -2.9780   -1.5710 O.2     1  UNL1       -0.4540
     13  O          9.0150   -1.4500   -2.9490 O.2     1  UNL1       -0.4540
     14  C          8.9390   -2.8460   -2.7820 C.3     1  UNL1        0.4680
@<TRIPOS>BOND
     1    13    14    1
     2    13    11    1
     3    14    12    1
     4    11     9    2
     5    11    10    1
     6    12    10    1
     7     9     7    1
     8    10     8    2
     9     7     6    2
    10     8     6    1
    11     6     5    1
    12     3     2    1
    13     2     1    1
    14     2     4    2
    15     5     1    1
