@<TRIPOS>MOLECULE
/home/cewinharhar/GITHUB/reincatalyze/data/processed/docking_pred/2023-May-22-2206_sub9_nm5_bs15_s42_ex16_mel10_mts10000_k50_ec02_g099_lra9e-4_lrc1e-3/551e6d8a024554ec32308953f7464105b503c37a_ligand_9.pdbqt
 14 15 0 0 0
SMALL
GASTEIGER

@<TRIPOS>ATOM
      1  C          6.3790    1.1760    0.9720 C.3     1  UNL1        0.0800
      2  C          5.6550    0.3380    1.9690 C.2     1  UNL1        0.1300
      3  C          6.2620   -0.8920    2.5430 C.3     1  UNL1        0.0870
      4  O          4.5340    0.6400    2.3450 O.2     1  UNL1       -0.3000
      5  C          5.8710    0.9220   -0.4330 C.3     1  UNL1        0.0430
      6  C          6.8170    0.1070   -1.2170 C.2     1  UNL1       -0.0440
      7  C          7.4990    0.6340   -2.3190 C.2     1  UNL1        0.0080
      8  C          7.0440   -1.2040   -0.8630 C.2     1  UNL1        0.0540
      9  C          8.3760   -0.1780   -3.0160 C.2     1  UNL1        0.0510
     10  C          7.9320   -2.0200   -1.5710 C.2     1  UNL1        0.1660
     11  C          8.6030   -1.5030   -2.6560 C.2     1  UNL1        0.1650
     12  O          8.3230   -3.3330   -1.4210 O.2     1  UNL1       -0.4540
     13  O          9.4010   -2.5190   -3.1560 O.2     1  UNL1       -0.4540
     14  C          9.3230   -3.6700   -2.3480 C.3     1  UNL1        0.4680
@<TRIPOS>BOND
     1    13    11    1
     2    13    14    1
     3     9    11    2
     4     9     7    1
     5    11    10    1
     6    14    12    1
     7     7     6    2
     8    10    12    1
     9    10     8    2
    10     6     8    1
    11     6     5    1
    12     5     1    1
    13     1     2    1
    14     2     4    2
    15     2     3    1
