@<TRIPOS>MOLECULE
/home/cewinharhar/GITHUB/reincatalyze/data/processed/docking_pred/2023-May-22-2206_sub9_nm5_bs15_s42_ex16_mel10_mts10000_k50_ec02_g099_lra9e-4_lrc1e-3/551e6d8a024554ec32308953f7464105b503c37a_ligand_9.pdbqt
 14 15 0 0 0
SMALL
GASTEIGER

@<TRIPOS>ATOM
      1  C          5.6050   -0.0540    1.9980 C.3     1  UNL1        0.0800
      2  C          4.7040    1.0960    1.7040 C.2     1  UNL1        0.1300
      3  C          5.0250    2.0880    0.6440 C.3     1  UNL1        0.0870
      4  O          3.6690    1.2570    2.3300 O.2     1  UNL1       -0.3000
      5  C          7.0100    0.2060    1.4940 C.3     1  UNL1        0.0430
      6  C          7.4010   -0.7550    0.4470 C.2     1  UNL1       -0.0440
      7  C          7.2640   -0.4540   -0.9130 C.2     1  UNL1        0.0080
      8  C          7.9170   -1.9800    0.8040 C.2     1  UNL1        0.0540
      9  C          7.6480   -1.3950   -1.8500 C.2     1  UNL1        0.0510
     10  C          8.3050   -2.9280   -0.1480 C.2     1  UNL1        0.1660
     11  C          8.1690   -2.6330   -1.4860 C.2     1  UNL1        0.1650
     12  O          8.8360   -4.1960   -0.0490 O.2     1  UNL1       -0.4540
     13  O          8.6250   -3.7380   -2.1880 O.2     1  UNL1       -0.4540
     14  C          9.1420   -4.7160   -1.3170 C.3     1  UNL1        0.4680
@<TRIPOS>BOND
     1    13    11    1
     2    13    14    1
     3     9    11    2
     4     9     7    1
     5    11    10    1
     6    14    12    1
     7     7     6    2
     8    10    12    1
     9    10     8    2
    10     6     8    1
    11     6     5    1
    12     3     2    1
    13     5     1    1
    14     2     1    1
    15     2     4    2
