@<TRIPOS>MOLECULE
/home/cewinharhar/GITHUB/reincatalyze/data/processed/docking_pred/2023-May-22-2206_sub9_nm5_bs15_s42_ex16_mel10_mts10000_k50_ec02_g099_lra9e-4_lrc1e-3/55f9a48c22e019202c812c896c561d7470c53219_ligand_9.pdbqt
 14 15 0 0 0
SMALL
GASTEIGER

@<TRIPOS>ATOM
      1  C          5.7390    1.3270   -0.3180 C.3     1  UNL1        0.0800
      2  C          5.1120    1.2790    1.0330 C.2     1  UNL1        0.1300
      3  C          5.4020    0.1770    1.9890 C.3     1  UNL1        0.0870
      4  O          4.3370    2.1490    1.3950 O.2     1  UNL1       -0.3000
      5  C          7.2300    1.0620   -0.2430 C.3     1  UNL1        0.0430
      6  C          7.5870   -0.2280   -0.8590 C.2     1  UNL1       -0.0440
      7  C          7.6180   -0.3930   -2.2490 C.2     1  UNL1        0.0080
      8  C          7.9020   -1.3030   -0.0590 C.2     1  UNL1        0.0540
      9  C          7.9610   -1.6270   -2.7700 C.2     1  UNL1        0.0510
     10  C          8.2490   -2.5480   -0.5910 C.2     1  UNL1        0.1660
     11  C          8.2780   -2.7110   -1.9580 C.2     1  UNL1        0.1650
     12  O          8.5970   -3.7520   -0.0160 O.2     1  UNL1       -0.4540
     13  O          8.6490   -4.0260   -2.1970 O.2     1  UNL1       -0.4540
     14  C          8.9480   -4.6950   -0.9950 C.3     1  UNL1        0.4680
@<TRIPOS>BOND
     1     9     7    1
     2     9    11    2
     3     7     6    2
     4    13    11    1
     5    13    14    1
     6    11    10    1
     7    14    12    1
     8     6     5    1
     9     6     8    1
    10    10     8    2
    11    10    12    1
    12     1     5    1
    13     1     2    1
    14     2     4    2
    15     2     3    1
