@<TRIPOS>MOLECULE
/home/cewinharhar/GITHUB/reincatalyze/data/processed/docking_pred/2023-May-22-2206_sub9_nm5_bs15_s42_ex16_mel10_mts10000_k50_ec02_g099_lra9e-4_lrc1e-3/55f9a48c22e019202c812c896c561d7470c53219_ligand_9.pdbqt
 14 15 0 0 0
SMALL
GASTEIGER

@<TRIPOS>ATOM
      1  C          6.3760    1.1810    0.9230 C.3     1  UNL1        0.0800
      2  C          5.6590    0.3730    1.9490 C.2     1  UNL1        0.1300
      3  C          6.2550   -0.8620    2.5270 C.3     1  UNL1        0.0870
      4  O          4.5540    0.7030    2.3470 O.2     1  UNL1       -0.3000
      5  C          5.8600    0.8830   -0.4700 C.3     1  UNL1        0.0430
      6  C          6.8150    0.0720   -1.2460 C.2     1  UNL1       -0.0440
      7  C          7.5010    0.5990   -2.3460 C.2     1  UNL1        0.0080
      8  C          7.0480   -1.2360   -0.8860 C.2     1  UNL1        0.0540
      9  C          8.3860   -0.2100   -3.0350 C.2     1  UNL1        0.0510
     10  C          7.9450   -2.0490   -1.5860 C.2     1  UNL1        0.1660
     11  C          8.6190   -1.5320   -2.6690 C.2     1  UNL1        0.1650
     12  O          8.3430   -3.3600   -1.4290 O.2     1  UNL1       -0.4540
     13  O          9.4270   -2.5460   -3.1600 O.2     1  UNL1       -0.4540
     14  C          9.3510   -3.6940   -2.3490 C.3     1  UNL1        0.4680
@<TRIPOS>BOND
     1    13    11    1
     2    13    14    1
     3     9    11    2
     4     9     7    1
     5    11    10    1
     6    14    12    1
     7     7     6    2
     8    10    12    1
     9    10     8    2
    10     6     8    1
    11     6     5    1
    12     5     1    1
    13     1     2    1
    14     2     4    2
    15     2     3    1
