@<TRIPOS>MOLECULE
/home/cewinharhar/GITHUB/reincatalyze/data/processed/docking_pred/2023-May-22-2206_sub9_nm5_bs15_s42_ex16_mel10_mts10000_k50_ec02_g099_lra9e-4_lrc1e-3/5759e6da6e71543b8e342be99e945ab2cbfd6c83_ligand_9.pdbqt
 14 15 0 0 0
SMALL
GASTEIGER

@<TRIPOS>ATOM
      1  C          6.8830    0.9420    1.3600 C.3     1  UNL1        0.0800
      2  C          5.4110    1.1580    1.4500 C.2     1  UNL1        0.1300
      3  C          4.7140    2.1490    0.5890 C.3     1  UNL1        0.0870
      4  O          4.7320    0.5220    2.2390 O.2     1  UNL1       -0.3000
      5  C          7.3800    1.1270   -0.0600 C.3     1  UNL1        0.0430
      6  C          7.6870   -0.1630   -0.7040 C.2     1  UNL1       -0.0440
      7  C          7.6910   -0.3040   -2.0960 C.2     1  UNL1        0.0080
      8  C          7.9800   -1.2600    0.0730 C.2     1  UNL1        0.0540
      9  C          7.9870   -1.5390   -2.6440 C.2     1  UNL1        0.0510
     10  C          8.2790   -2.5060   -0.4860 C.2     1  UNL1        0.1660
     11  C          8.2820   -2.6470   -1.8560 C.2     1  UNL1        0.1650
     12  O          8.5980   -3.7300    0.0630 O.2     1  UNL1       -0.4540
     13  O          8.6070   -3.9670   -2.1230 O.2     1  UNL1       -0.4540
     14  C          8.9040   -4.6670   -0.9380 C.3     1  UNL1        0.4680
@<TRIPOS>BOND
     1     9     7    1
     2     9    11    2
     3    13    11    1
     4    13    14    1
     5     7     6    2
     6    11    10    1
     7    14    12    1
     8     6     5    1
     9     6     8    1
    10    10    12    1
    11    10     8    2
    12     5     1    1
    13     3     2    1
    14     1     2    1
    15     2     4    2
