@<TRIPOS>MOLECULE
/home/cewinharhar/GITHUB/reincatalyze/data/processed/docking_pred/2023-May-22-2206_sub9_nm5_bs15_s42_ex16_mel10_mts10000_k50_ec02_g099_lra9e-4_lrc1e-3/57f45ec83c8c38489066d898ddae0638f0802b8b_ligand_9.pdbqt
 14 15 0 0 0
SMALL
GASTEIGER

@<TRIPOS>ATOM
      1  C          5.5730    1.8450    1.3200 C.3     1  UNL1        0.0800
      2  C          5.1130    0.6260    2.0420 C.2     1  UNL1        0.1300
      3  C          5.9890   -0.5650    2.2000 C.3     1  UNL1        0.0870
      4  O          3.9940    0.5700    2.5270 O.2     1  UNL1       -0.3000
      5  C          5.4310    1.6840   -0.1800 C.3     1  UNL1        0.0430
      6  C          6.5900    0.9900   -0.7680 C.2     1  UNL1       -0.0440
      7  C          7.8990    1.4380   -0.5530 C.2     1  UNL1        0.0080
      8  C          6.3940   -0.1290   -1.5460 C.2     1  UNL1        0.0540
      9  C          8.9480    0.7450   -1.1300 C.2     1  UNL1        0.0510
     10  C          7.4580   -0.8250   -2.1260 C.2     1  UNL1        0.1660
     11  C          8.7460   -0.3840   -1.9160 C.2     1  UNL1        0.1650
     12  O          7.5220   -1.9460   -2.9270 O.2     1  UNL1       -0.4540
     13  O          9.5830   -1.2530   -2.6000 O.2     1  UNL1       -0.4540
     14  C          8.8550   -2.3090   -3.1790 C.3     1  UNL1        0.4680
@<TRIPOS>BOND
     1    14    12    1
     2    14    13    1
     3    12    10    1
     4    13    11    1
     5    10    11    2
     6    10     8    1
     7    11     9    1
     8     8     6    2
     9     9     7    2
    10     6     7    1
    11     6     5    1
    12     5     1    1
    13     1     2    1
    14     2     3    1
    15     2     4    2
