@<TRIPOS>MOLECULE
/home/cewinharhar/GITHUB/reincatalyze/data/processed/docking_pred/2023-May-22-2206_sub9_nm5_bs15_s42_ex16_mel10_mts10000_k50_ec02_g099_lra9e-4_lrc1e-3/59d8efee26bc15572bc8cf3b0279eede3143e347_ligand_9.pdbqt
 14 15 0 0 0
SMALL
GASTEIGER

@<TRIPOS>ATOM
      1  C          5.4960    1.9220    1.2680 C.3     1  UNL1        0.0800
      2  C          5.0040    0.7150    1.9890 C.2     1  UNL1        0.1300
      3  C          5.8250   -0.5220    2.0900 C.3     1  UNL1        0.0870
      4  O          3.9060    0.7060    2.5200 O.2     1  UNL1       -0.3000
      5  C          5.3830    1.7510   -0.2340 C.3     1  UNL1        0.0430
      6  C          6.5500    1.0480   -0.7940 C.2     1  UNL1       -0.0440
      7  C          7.8570    1.4780   -0.5370 C.2     1  UNL1        0.0080
      8  C          6.3630   -0.0610   -1.5880 C.2     1  UNL1        0.0540
      9  C          8.9150    0.7770   -1.0890 C.2     1  UNL1        0.0510
     10  C          7.4350   -0.7660   -2.1430 C.2     1  UNL1        0.1660
     11  C          8.7220   -0.3430   -1.8910 C.2     1  UNL1        0.1650
     12  O          7.5100   -1.8790   -2.9520 O.2     1  UNL1       -0.4540
     13  O          9.5680   -1.2150   -2.5580 O.2     1  UNL1       -0.4540
     14  C          8.8450   -2.2580   -3.1680 C.3     1  UNL1        0.4680
@<TRIPOS>BOND
     1    14    12    1
     2    14    13    1
     3    12    10    1
     4    13    11    1
     5    10    11    2
     6    10     8    1
     7    11     9    1
     8     8     6    2
     9     9     7    2
    10     6     7    1
    11     6     5    1
    12     5     1    1
    13     1     2    1
    14     2     3    1
    15     2     4    2
