@<TRIPOS>MOLECULE
/home/cewinharhar/GITHUB/reincatalyze/data/processed/docking_pred/2023-May-22-2206_sub9_nm5_bs15_s42_ex16_mel10_mts10000_k50_ec02_g099_lra9e-4_lrc1e-3/5b0b3c1ad7e51cc604e9d3ba3e9be04905eaec91_ligand_9.pdbqt
 14 15 0 0 0
SMALL
GASTEIGER

@<TRIPOS>ATOM
      1  C          5.5140    0.0380    1.9920 C.3     1  UNL1        0.0800
      2  C          4.6050    1.1810    1.7010 C.2     1  UNL1        0.1300
      3  C          4.8710    2.1250    0.5830 C.3     1  UNL1        0.0870
      4  O          3.6070    1.3760    2.3760 O.2     1  UNL1       -0.3000
      5  C          6.9200    0.3130    1.4970 C.3     1  UNL1        0.0430
      6  C          7.3300   -0.6470    0.4570 C.2     1  UNL1       -0.0440
      7  C          7.2170   -0.3450   -0.9050 C.2     1  UNL1        0.0080
      8  C          7.8410   -1.8720    0.8220 C.2     1  UNL1        0.0540
      9  C          7.6190   -1.2850   -1.8360 C.2     1  UNL1        0.0510
     10  C          8.2470   -2.8180   -0.1240 C.2     1  UNL1        0.1660
     11  C          8.1350   -2.5230   -1.4640 C.2     1  UNL1        0.1650
     12  O          8.7780   -4.0870   -0.0160 O.2     1  UNL1       -0.4540
     13  O          8.6040   -3.6260   -2.1590 O.2     1  UNL1       -0.4540
     14  C          9.1060   -4.6040   -1.2800 C.3     1  UNL1        0.4680
@<TRIPOS>BOND
     1    13    11    1
     2    13    14    1
     3     9    11    2
     4     9     7    1
     5    11    10    1
     6    14    12    1
     7     7     6    2
     8    10    12    1
     9    10     8    2
    10     6     8    1
    11     6     5    1
    12     3     2    1
    13     5     1    1
    14     2     1    1
    15     2     4    2
