MODEL 1
REMARK VINA RESULT:      -7.5      0.000      0.000
REMARK SMILES CC(=O)CCc1ccc2c(c1)OCO2
REMARK SMILES IDX 4 1 2 2 1 3 3 4 5 5 6 6 7 7 11 8 8 9 10 10 9 11 12 12 14 13
REMARK SMILES IDX 13 14
REMARK H PARENT
REMARK Flexibility Score: inf
ROOT
ATOM      1  C   UNL     1       5.538   1.917   1.215  1.00  0.00     0.080 C 
ENDROOT
BRANCH   1   2
ATOM      2  C   UNL     1       5.054   0.712   1.943  1.00  0.00     0.130 C 
ATOM      3  C   UNL     1       5.937  -0.459   2.190  1.00  0.00     0.087 C 
ATOM      4  O   UNL     1       3.909   0.651   2.361  1.00  0.00    -0.300 OA
ENDBRANCH   1   2
BRANCH   1   5
ATOM      5  C   UNL     1       5.430   1.734  -0.286  1.00  0.00     0.043 C 
BRANCH   5   6
ATOM      6  C   UNL     1       6.594   1.013  -0.833  1.00  0.00    -0.044 A 
ATOM      7  C   UNL     1       7.903   1.450  -0.600  1.00  0.00     0.008 A 
ATOM      8  C   UNL     1       6.400  -0.119  -1.591  1.00  0.00     0.054 A 
ATOM      9  C   UNL     1       8.955   0.733  -1.139  1.00  0.00     0.051 A 
ATOM     10  C   UNL     1       7.467  -0.841  -2.133  1.00  0.00     0.166 A 
ATOM     11  C   UNL     1       8.756  -0.411  -1.905  1.00  0.00     0.165 A 
ATOM     12  O   UNL     1       7.535  -1.979  -2.909  1.00  0.00    -0.454 OA
ATOM     13  O   UNL     1       9.596  -1.304  -2.552  1.00  0.00    -0.454 OA
ATOM     14  C   UNL     1       8.868  -2.364  -3.124  1.00  0.00     0.468 C 
ENDBRANCH   5   6
ENDBRANCH   1   5
TORSDOF 3
ENDMDL
MODEL 2
REMARK VINA RESULT:      -7.4      1.835      2.324
REMARK SMILES CC(=O)CCc1ccc2c(c1)OCO2
REMARK SMILES IDX 4 1 2 2 1 3 3 4 5 5 6 6 7 7 11 8 8 9 10 10 9 11 12 12 14 13
REMARK SMILES IDX 13 14
REMARK H PARENT
REMARK Flexibility Score: inf
ROOT
ATOM      1  C   UNL     1       5.762   1.391  -0.350  1.00  0.00     0.080 C 
ENDROOT
BRANCH   1   2
ATOM      2  C   UNL     1       5.177   1.304   1.017  1.00  0.00     0.130 C 
ATOM      3  C   UNL     1       5.521   0.193   1.945  1.00  0.00     0.087 C 
ATOM      4  O   UNL     1       4.394   2.150   1.418  1.00  0.00    -0.300 OA
ENDBRANCH   1   2
BRANCH   1   5
ATOM      5  C   UNL     1       7.256   1.136  -0.327  1.00  0.00     0.043 C 
BRANCH   5   6
ATOM      6  C   UNL     1       7.599  -0.160  -0.939  1.00  0.00    -0.044 A 
ATOM      7  C   UNL     1       7.609  -0.335  -2.327  1.00  0.00     0.008 A 
ATOM      8  C   UNL     1       7.922  -1.230  -0.135  1.00  0.00     0.054 A 
ATOM      9  C   UNL     1       7.940  -1.574  -2.845  1.00  0.00     0.051 A 
ATOM     10  C   UNL     1       8.256  -2.480  -0.663  1.00  0.00     0.166 A 
ATOM     11  C   UNL     1       8.265  -2.654  -2.029  1.00  0.00     0.165 A 
ATOM     12  O   UNL     1       8.608  -3.681  -0.085  1.00  0.00    -0.454 OA
ATOM     13  O   UNL     1       8.627  -3.971  -2.264  1.00  0.00    -0.454 OA
ATOM     14  C   UNL     1       8.941  -4.633  -1.062  1.00  0.00     0.468 C 
ENDBRANCH   5   6
ENDBRANCH   1   5
TORSDOF 3
ENDMDL
MODEL 3
REMARK VINA RESULT:      -7.1      2.047      2.591
REMARK SMILES CC(=O)CCc1ccc2c(c1)OCO2
REMARK SMILES IDX 4 1 2 2 1 3 3 4 5 5 6 6 7 7 11 8 8 9 10 10 9 11 12 12 14 13
REMARK SMILES IDX 13 14
REMARK H PARENT
REMARK Flexibility Score: inf
ROOT
ATOM      1  C   UNL     1       5.518   0.012   1.953  1.00  0.00     0.080 C 
ENDROOT
BRANCH   1   2
ATOM      2  C   UNL     1       4.642   1.178   1.649  1.00  0.00     0.130 C 
ATOM      3  C   UNL     1       4.964   2.132   0.555  1.00  0.00     0.087 C 
ATOM      4  O   UNL     1       3.628   1.385   2.296  1.00  0.00    -0.300 OA
ENDBRANCH   1   2
BRANCH   1   5
ATOM      5  C   UNL     1       6.940   0.257   1.491  1.00  0.00     0.043 C 
BRANCH   5   6
ATOM      6  C   UNL     1       7.349  -0.702   0.449  1.00  0.00    -0.044 A 
ATOM      7  C   UNL     1       7.241  -0.396  -0.912  1.00  0.00     0.008 A 
ATOM      8  C   UNL     1       7.854  -1.930   0.812  1.00  0.00     0.054 A 
ATOM      9  C   UNL     1       7.641  -1.335  -1.845  1.00  0.00     0.051 A 
ATOM     10  C   UNL     1       8.258  -2.876  -0.135  1.00  0.00     0.166 A 
ATOM     11  C   UNL     1       8.150  -2.576  -1.475  1.00  0.00     0.165 A 
ATOM     12  O   UNL     1       8.783  -4.147  -0.029  1.00  0.00    -0.454 OA
ATOM     13  O   UNL     1       8.617  -3.680  -2.171  1.00  0.00    -0.454 OA
ATOM     14  C   UNL     1       9.112  -4.663  -1.293  1.00  0.00     0.468 C 
ENDBRANCH   5   6
ENDBRANCH   1   5
TORSDOF 3
ENDMDL
MODEL 4
REMARK VINA RESULT:      -7.1      1.247      1.436
REMARK SMILES CC(=O)CCc1ccc2c(c1)OCO2
REMARK SMILES IDX 4 1 2 2 1 3 3 4 5 5 6 6 7 7 11 8 8 9 10 10 9 11 12 12 14 13
REMARK SMILES IDX 13 14
REMARK H PARENT
REMARK Flexibility Score: inf
ROOT
ATOM      1  C   UNL     1       6.389   1.190   0.949  1.00  0.00     0.080 C 
ENDROOT
BRANCH   1   2
ATOM      2  C   UNL     1       5.648   0.374   1.952  1.00  0.00     0.130 C 
ATOM      3  C   UNL     1       6.238  -0.855   2.548  1.00  0.00     0.087 C 
ATOM      4  O   UNL     1       4.528   0.694   2.315  1.00  0.00    -0.300 OA
ENDBRANCH   1   2
BRANCH   1   5
ATOM      5  C   UNL     1       5.880   0.931  -0.455  1.00  0.00     0.043 C 
BRANCH   5   6
ATOM      6  C   UNL     1       6.817   0.101  -1.232  1.00  0.00    -0.044 A 
ATOM      7  C   UNL     1       7.479   0.602  -2.359  1.00  0.00     0.008 A 
ATOM      8  C   UNL     1       7.057  -1.199  -0.848  1.00  0.00     0.054 A 
ATOM      9  C   UNL     1       8.348  -0.224  -3.049  1.00  0.00     0.051 A 
ATOM     10  C   UNL     1       7.937  -2.029  -1.548  1.00  0.00     0.166 A 
ATOM     11  C   UNL     1       8.588  -1.537  -2.658  1.00  0.00     0.165 A 
ATOM     12  O   UNL     1       8.338  -3.336  -1.371  1.00  0.00    -0.454 OA
ATOM     13  O   UNL     1       9.383  -2.563  -3.143  1.00  0.00    -0.454 OA
ATOM     14  C   UNL     1       9.325  -3.692  -2.305  1.00  0.00     0.468 C 
ENDBRANCH   5   6
ENDBRANCH   1   5
TORSDOF 3
ENDMDL
MODEL 5
REMARK VINA RESULT:      -6.7      1.234      1.724
REMARK SMILES CC(=O)CCc1ccc2c(c1)OCO2
REMARK SMILES IDX 4 1 2 2 1 3 3 4 5 5 6 6 7 7 11 8 8 9 10 10 9 11 12 12 14 13
REMARK SMILES IDX 13 14
REMARK H PARENT
REMARK Flexibility Score: inf
ROOT
ATOM      1  C   UNL     1       5.349  -0.054   1.930  1.00  0.00     0.080 C 
ENDROOT
BRANCH   1   2
ATOM      2  C   UNL     1       4.441   1.114   1.757  1.00  0.00     0.130 C 
ATOM      3  C   UNL     1       4.690   2.150   0.720  1.00  0.00     0.087 C 
ATOM      4  O   UNL     1       3.459   1.255   2.469  1.00  0.00    -0.300 OA
ENDBRANCH   1   2
BRANCH   1   5
ATOM      5  C   UNL     1       6.804   0.363   1.849  1.00  0.00     0.043 C 
BRANCH   5   6
ATOM      6  C   UNL     1       7.411  -0.016   0.560  1.00  0.00    -0.044 A 
ATOM      7  C   UNL     1       7.921   0.945  -0.320  1.00  0.00     0.008 A 
ATOM      8  C   UNL     1       7.484  -1.344   0.205  1.00  0.00     0.054 A 
ATOM      9  C   UNL     1       8.480   0.530  -1.516  1.00  0.00     0.051 A 
ATOM     10  C   UNL     1       8.050  -1.758  -1.004  1.00  0.00     0.166 A 
ATOM     11  C   UNL     1       8.552  -0.814  -1.872  1.00  0.00     0.165 A 
ATOM     12  O   UNL     1       8.237  -2.998  -1.578  1.00  0.00    -0.454 OA
ATOM     13  O   UNL     1       9.043  -1.500  -2.971  1.00  0.00    -0.454 OA
ATOM     14  C   UNL     1       8.946  -2.892  -2.786  1.00  0.00     0.468 C 
ENDBRANCH   5   6
ENDBRANCH   1   5
TORSDOF 3
ENDMDL
