@<TRIPOS>MOLECULE
/home/cewinharhar/GITHUB/reincatalyze/data/processed/docking_pred/2023-May-22-2206_sub9_nm5_bs15_s42_ex16_mel10_mts10000_k50_ec02_g099_lra9e-4_lrc1e-3/5bc5327b13dc485bffd01fc094e1dd3343f9f0d0_ligand_9.pdbqt
 14 15 0 0 0
SMALL
GASTEIGER

@<TRIPOS>ATOM
      1  C          6.3820    1.2000    0.9510 C.3     1  UNL1        0.0800
      2  C          5.6520    0.3720    1.9510 C.2     1  UNL1        0.1300
      3  C          6.2540   -0.8540    2.5390 C.3     1  UNL1        0.0870
      4  O          4.5290    0.6790    2.3190 O.2     1  UNL1       -0.3000
      5  C          5.8760    0.9390   -0.4540 C.3     1  UNL1        0.0430
      6  C          6.8180    0.1110   -1.2290 C.2     1  UNL1       -0.0440
      7  C          7.4920    0.6170   -2.3460 C.2     1  UNL1        0.0080
      8  C          7.0490   -1.1930   -0.8520 C.2     1  UNL1        0.0540
      9  C          8.3640   -0.2060   -3.0340 C.2     1  UNL1        0.0510
     10  C          7.9330   -2.0210   -1.5500 C.2     1  UNL1        0.1660
     11  C          8.5950   -1.5240   -2.6500 C.2     1  UNL1        0.1650
     12  O          8.3270   -3.3310   -1.3790 O.2     1  UNL1       -0.4540
     13  O          9.3920   -2.5490   -3.1360 O.2     1  UNL1       -0.4540
     14  C          9.3210   -3.6840   -2.3060 C.3     1  UNL1        0.4680
@<TRIPOS>BOND
     1    13    11    1
     2    13    14    1
     3     9    11    2
     4     9     7    1
     5    11    10    1
     6     7     6    2
     7    14    12    1
     8    10    12    1
     9    10     8    2
    10     6     8    1
    11     6     5    1
    12     5     1    1
    13     1     2    1
    14     2     4    2
    15     2     3    1
