MODEL 1
REMARK VINA RESULT:      -7.6      0.000      0.000
REMARK SMILES CC(=O)CCc1ccc2c(c1)OCO2
REMARK SMILES IDX 4 1 2 2 1 3 3 4 5 5 6 6 7 7 11 8 8 9 10 10 9 11 12 12 14 13
REMARK SMILES IDX 13 14
REMARK H PARENT
REMARK Flexibility Score: inf
ROOT
ATOM      1  C   UNL     1       5.548   1.913   1.278  1.00  0.00     0.080 C 
ENDROOT
BRANCH   1   2
ATOM      2  C   UNL     1       5.092   0.699   2.012  1.00  0.00     0.130 C 
ATOM      3  C   UNL     1       5.973  -0.488   2.179  1.00  0.00     0.087 C 
ATOM      4  O   UNL     1       3.975   0.644   2.499  1.00  0.00    -0.300 OA
ENDBRANCH   1   2
BRANCH   1   5
ATOM      5  C   UNL     1       5.416   1.731  -0.221  1.00  0.00     0.043 C 
BRANCH   5   6
ATOM      6  C   UNL     1       6.580   1.030  -0.791  1.00  0.00    -0.044 A 
ATOM      7  C   UNL     1       7.888   1.466  -0.552  1.00  0.00     0.008 A 
ATOM      8  C   UNL     1       6.387  -0.084  -1.577  1.00  0.00     0.054 A 
ATOM      9  C   UNL     1       8.941   0.767  -1.113  1.00  0.00     0.051 A 
ATOM     10  C   UNL     1       7.456  -0.788  -2.141  1.00  0.00     0.166 A 
ATOM     11  C   UNL     1       8.743  -0.358  -1.907  1.00  0.00     0.165 A 
ATOM     12  O   UNL     1       7.525  -1.905  -2.945  1.00  0.00    -0.454 OA
ATOM     13  O   UNL     1       9.585  -1.231  -2.579  1.00  0.00    -0.454 OA
ATOM     14  C   UNL     1       8.859  -2.279  -3.175  1.00  0.00     0.468 C 
ENDBRANCH   5   6
ENDBRANCH   1   5
TORSDOF 3
ENDMDL
MODEL 2
REMARK VINA RESULT:      -7.3      1.909      2.360
REMARK SMILES CC(=O)CCc1ccc2c(c1)OCO2
REMARK SMILES IDX 4 1 2 2 1 3 3 4 5 5 6 6 7 7 11 8 8 9 10 10 9 11 12 12 14 13
REMARK SMILES IDX 13 14
REMARK H PARENT
REMARK Flexibility Score: inf
ROOT
ATOM      1  C   UNL     1       5.790   1.431  -0.262  1.00  0.00     0.080 C 
ENDROOT
BRANCH   1   2
ATOM      2  C   UNL     1       5.060   1.294   1.029  1.00  0.00     0.130 C 
ATOM      3  C   UNL     1       5.260   0.119   1.919  1.00  0.00     0.087 C 
ATOM      4  O   UNL     1       4.270   2.149   1.396  1.00  0.00    -0.300 OA
ENDBRANCH   1   2
BRANCH   1   5
ATOM      5  C   UNL     1       7.261   1.104  -0.100  1.00  0.00     0.043 C 
BRANCH   5   6
ATOM      6  C   UNL     1       7.615  -0.165  -0.760  1.00  0.00    -0.044 A 
ATOM      7  C   UNL     1       7.620  -0.289  -2.154  1.00  0.00     0.008 A 
ATOM      8  C   UNL     1       7.954  -1.260   0.002  1.00  0.00     0.054 A 
ATOM      9  C   UNL     1       7.962  -1.504  -2.718  1.00  0.00     0.051 A 
ATOM     10  C   UNL     1       8.299  -2.486  -0.573  1.00  0.00     0.166 A 
ATOM     11  C   UNL     1       8.303  -2.609  -1.945  1.00  0.00     0.165 A 
ATOM     12  O   UNL     1       8.667  -3.703  -0.040  1.00  0.00    -0.454 OA
ATOM     13  O   UNL     1       8.678  -3.913  -2.229  1.00  0.00    -0.454 OA
ATOM     14  C   UNL     1       9.006  -4.615  -1.054  1.00  0.00     0.468 C 
ENDBRANCH   5   6
ENDBRANCH   1   5
TORSDOF 3
ENDMDL
MODEL 3
REMARK VINA RESULT:      -7.1      2.070      2.627
REMARK SMILES CC(=O)CCc1ccc2c(c1)OCO2
REMARK SMILES IDX 4 1 2 2 1 3 3 4 5 5 6 6 7 7 11 8 8 9 10 10 9 11 12 12 14 13
REMARK SMILES IDX 13 14
REMARK H PARENT
REMARK Flexibility Score: inf
ROOT
ATOM      1  C   UNL     1       5.462  -0.061   1.965  1.00  0.00     0.080 C 
ENDROOT
BRANCH   1   2
ATOM      2  C   UNL     1       4.601   1.127   1.713  1.00  0.00     0.130 C 
ATOM      3  C   UNL     1       4.883   2.076   0.603  1.00  0.00     0.087 C 
ATOM      4  O   UNL     1       3.631   1.358   2.417  1.00  0.00    -0.300 OA
ENDBRANCH   1   2
BRANCH   1   5
ATOM      5  C   UNL     1       6.892   0.194   1.530  1.00  0.00     0.043 C 
BRANCH   5   6
ATOM      6  C   UNL     1       7.318  -0.743   0.475  1.00  0.00    -0.044 A 
ATOM      7  C   UNL     1       7.199  -0.422  -0.882  1.00  0.00     0.008 A 
ATOM      8  C   UNL     1       7.850  -1.964   0.821  1.00  0.00     0.054 A 
ATOM      9  C   UNL     1       7.616  -1.341  -1.828  1.00  0.00     0.051 A 
ATOM     10  C   UNL     1       8.271  -2.889  -0.139  1.00  0.00     0.166 A 
ATOM     11  C   UNL     1       8.153  -2.575  -1.474  1.00  0.00     0.165 A 
ATOM     12  O   UNL     1       8.824  -4.149  -0.051  1.00  0.00    -0.454 OA
ATOM     13  O   UNL     1       8.641  -3.659  -2.186  1.00  0.00    -0.454 OA
ATOM     14  C   UNL     1       9.160  -4.642  -1.322  1.00  0.00     0.468 C 
ENDBRANCH   5   6
ENDBRANCH   1   5
TORSDOF 3
ENDMDL
MODEL 4
REMARK VINA RESULT:      -7.0      1.251      1.457
REMARK SMILES CC(=O)CCc1ccc2c(c1)OCO2
REMARK SMILES IDX 4 1 2 2 1 3 3 4 5 5 6 6 7 7 11 8 8 9 10 10 9 11 12 12 14 13
REMARK SMILES IDX 13 14
REMARK H PARENT
REMARK Flexibility Score: inf
ROOT
ATOM      1  C   UNL     1       6.363   1.212   0.924  1.00  0.00     0.080 C 
ENDROOT
BRANCH   1   2
ATOM      2  C   UNL     1       5.667   0.377   1.943  1.00  0.00     0.130 C 
ATOM      3  C   UNL     1       6.277  -0.868   2.481  1.00  0.00     0.087 C 
ATOM      4  O   UNL     1       4.568   0.694   2.367  1.00  0.00    -0.300 OA
ENDBRANCH   1   2
BRANCH   1   5
ATOM      5  C   UNL     1       5.844   0.925  -0.471  1.00  0.00     0.043 C 
BRANCH   5   6
ATOM      6  C   UNL     1       6.790   0.105  -1.249  1.00  0.00    -0.044 A 
ATOM      7  C   UNL     1       7.463   0.620  -2.362  1.00  0.00     0.008 A 
ATOM      8  C   UNL     1       7.027  -1.200  -0.878  1.00  0.00     0.054 A 
ATOM      9  C   UNL     1       8.340  -0.196  -3.053  1.00  0.00     0.051 A 
ATOM     10  C   UNL     1       7.915  -2.021  -1.579  1.00  0.00     0.166 A 
ATOM     11  C   UNL     1       8.577  -1.515  -2.676  1.00  0.00     0.165 A 
ATOM     12  O   UNL     1       8.315  -3.330  -1.414  1.00  0.00    -0.454 OA
ATOM     13  O   UNL     1       9.378  -2.534  -3.166  1.00  0.00    -0.454 OA
ATOM     14  C   UNL     1       9.311  -3.674  -2.342  1.00  0.00     0.468 C 
ENDBRANCH   5   6
ENDBRANCH   1   5
TORSDOF 3
ENDMDL
MODEL 5
REMARK VINA RESULT:      -6.7      1.186      5.167
REMARK SMILES CC(=O)CCc1ccc2c(c1)OCO2
REMARK SMILES IDX 4 1 2 2 1 3 3 4 5 5 6 6 7 7 11 8 8 9 10 10 9 11 12 12 14 13
REMARK SMILES IDX 13 14
REMARK H PARENT
REMARK Flexibility Score: inf
ROOT
ATOM      1  C   UNL     1       8.326   0.193  -2.675  1.00  0.00     0.080 C 
ENDROOT
BRANCH   1   2
ATOM      2  C   UNL     1       8.040  -1.266  -2.758  1.00  0.00     0.130 C 
ATOM      3  C   UNL     1       9.115  -2.260  -3.019  1.00  0.00     0.087 C 
ATOM      4  O   UNL     1       6.905  -1.691  -2.613  1.00  0.00    -0.300 OA
ENDBRANCH   1   2
BRANCH   1   5
ATOM      5  C   UNL     1       8.854   0.574  -1.306  1.00  0.00     0.043 C 
BRANCH   5   6
ATOM      6  C   UNL     1       7.823   0.426  -0.263  1.00  0.00    -0.044 A 
ATOM      7  C   UNL     1       7.934  -0.536   0.747  1.00  0.00     0.008 A 
ATOM      8  C   UNL     1       6.721   1.252  -0.271  1.00  0.00     0.054 A 
ATOM      9  C   UNL     1       6.935  -0.627   1.700  1.00  0.00     0.051 A 
ATOM     10  C   UNL     1       5.715   1.156   0.695  1.00  0.00     0.166 A 
ATOM     11  C   UNL     1       5.823   0.208   1.688  1.00  0.00     0.165 A 
ATOM     12  O   UNL     1       4.540   1.848   0.900  1.00  0.00    -0.454 OA
ATOM     13  O   UNL     1       4.701   0.340   2.491  1.00  0.00    -0.454 OA
ATOM     14  C   UNL     1       3.907   1.428   2.081  1.00  0.00     0.468 C 
ENDBRANCH   5   6
ENDBRANCH   1   5
TORSDOF 3
ENDMDL
