@<TRIPOS>MOLECULE
/home/cewinharhar/GITHUB/reincatalyze/data/processed/docking_pred/2023-May-22-2206_sub9_nm5_bs15_s42_ex16_mel10_mts10000_k50_ec02_g099_lra9e-4_lrc1e-3/5c54d156b22251270ecdcbd3d684e6dc7dd5ede7_ligand_9.pdbqt
 14 15 0 0 0
SMALL
GASTEIGER

@<TRIPOS>ATOM
      1  C          5.4530   -0.0400    2.0200 C.3     1  UNL1        0.0800
      2  C          4.5740    1.1320    1.7510 C.2     1  UNL1        0.1300
      3  C          4.8930    2.1180    0.6840 C.3     1  UNL1        0.0870
      4  O          3.5600    1.3180    2.4040 O.2     1  UNL1       -0.3000
      5  C          6.8760    0.2240    1.5700 C.3     1  UNL1        0.0430
      6  C          7.2960   -0.7110    0.5100 C.2     1  UNL1       -0.0440
      7  C          7.1670   -0.3870   -0.8450 C.2     1  UNL1        0.0080
      8  C          7.8320   -1.9320    0.8500 C.2     1  UNL1        0.0540
      9  C          7.5800   -1.3030   -1.7960 C.2     1  UNL1        0.0510
     10  C          8.2480   -2.8540   -0.1140 C.2     1  UNL1        0.1660
     11  C          8.1200   -2.5380   -1.4480 C.2     1  UNL1        0.1650
     12  O          8.8020   -4.1140   -0.0320 O.2     1  UNL1       -0.4540
     13  O          8.6050   -3.6200   -2.1650 O.2     1  UNL1       -0.4540
     14  C          9.1310   -4.6040   -1.3070 C.3     1  UNL1        0.4680
@<TRIPOS>BOND
     1    13    11    1
     2    13    14    1
     3     9    11    2
     4     9     7    1
     5    11    10    1
     6    14    12    1
     7     7     6    2
     8    10    12    1
     9    10     8    2
    10     6     8    1
    11     6     5    1
    12     3     2    1
    13     5     1    1
    14     2     1    1
    15     2     4    2
