@<TRIPOS>MOLECULE
/home/cewinharhar/GITHUB/reincatalyze/data/processed/docking_pred/2023-May-22-2206_sub9_nm5_bs15_s42_ex16_mel10_mts10000_k50_ec02_g099_lra9e-4_lrc1e-3/5c54d156b22251270ecdcbd3d684e6dc7dd5ede7_ligand_9.pdbqt
 14 15 0 0 0
SMALL
GASTEIGER

@<TRIPOS>ATOM
      1  C          6.8630    0.9240    1.3080 C.3     1  UNL1        0.0800
      2  C          5.4030    1.1480    1.4970 C.2     1  UNL1        0.1300
      3  C          4.6560    2.1500    0.6900 C.3     1  UNL1        0.0870
      4  O          4.7730    0.5110    2.3260 O.2     1  UNL1       -0.3000
      5  C          7.2620    1.0910   -0.1450 C.3     1  UNL1        0.0430
      6  C          7.5820   -0.2010   -0.7770 C.2     1  UNL1       -0.0440
      7  C          7.5240   -0.3730   -2.1650 C.2     1  UNL1        0.0080
      8  C          7.9500   -1.2710    0.0070 C.2     1  UNL1        0.0540
      9  C          7.8360   -1.6090   -2.7010 C.2     1  UNL1        0.0510
     10  C          8.2650   -2.5180   -0.5400 C.2     1  UNL1        0.1660
     11  C          8.2070   -2.6890   -1.9060 C.2     1  UNL1        0.1650
     12  O          8.6510   -3.7190    0.0170 O.2     1  UNL1       -0.4540
     13  O          8.5640   -4.0040   -2.1610 O.2     1  UNL1       -0.4540
     14  C          8.9410   -4.6670   -0.9780 C.3     1  UNL1        0.4680
@<TRIPOS>BOND
     1     9     7    1
     2     9    11    2
     3     7     6    2
     4    13    11    1
     5    13    14    1
     6    11    10    1
     7    14    12    1
     8     6     5    1
     9     6     8    1
    10    10     8    2
    11    10    12    1
    12     5     1    1
    13     3     2    1
    14     1     2    1
    15     2     4    2
