@<TRIPOS>MOLECULE
/home/cewinharhar/GITHUB/reincatalyze/data/processed/docking_pred/2023-May-22-2206_sub9_nm5_bs15_s42_ex16_mel10_mts10000_k50_ec02_g099_lra9e-4_lrc1e-3/5d85cf370efb80bf055e3e75471b8f0e73f124ff_ligand_9.pdbqt
 14 15 0 0 0
SMALL
GASTEIGER

@<TRIPOS>ATOM
      1  C          5.4770    1.9370    1.2420 C.3     1  UNL1        0.0800
      2  C          4.9810    0.7420    1.9800 C.2     1  UNL1        0.1300
      3  C          5.7830   -0.5080    2.0700 C.3     1  UNL1        0.0870
      4  O          3.8940    0.7550    2.5350 O.2     1  UNL1       -0.3000
      5  C          5.3660    1.7440   -0.2580 C.3     1  UNL1        0.0430
      6  C          6.5400    1.0430   -0.8070 C.2     1  UNL1       -0.0440
      7  C          7.8440    1.4750   -0.5380 C.2     1  UNL1        0.0080
      8  C          6.3620   -0.0660   -1.6020 C.2     1  UNL1        0.0540
      9  C          8.9080    0.7770   -1.0800 C.2     1  UNL1        0.0510
     10  C          7.4410   -0.7690   -2.1470 C.2     1  UNL1        0.1660
     11  C          8.7240   -0.3430   -1.8840 C.2     1  UNL1        0.1650
     12  O          7.5250   -1.8820   -2.9560 O.2     1  UNL1       -0.4540
     13  O          9.5780   -1.2140   -2.5430 O.2     1  UNL1       -0.4540
     14  C          8.8630   -2.2580   -3.1600 C.3     1  UNL1        0.4680
@<TRIPOS>BOND
     1    14    12    1
     2    14    13    1
     3    12    10    1
     4    13    11    1
     5    10    11    2
     6    10     8    1
     7    11     9    1
     8     8     6    2
     9     9     7    2
    10     6     7    1
    11     6     5    1
    12     5     1    1
    13     1     2    1
    14     2     3    1
    15     2     4    2
