MODEL 1
REMARK VINA RESULT:      -7.5      0.000      0.000
REMARK SMILES CC(=O)CCc1ccc2c(c1)OCO2
REMARK SMILES IDX 4 1 2 2 1 3 3 4 5 5 6 6 7 7 11 8 8 9 10 10 9 11 12 12 14 13
REMARK SMILES IDX 13 14
REMARK H PARENT
REMARK Flexibility Score: inf
ROOT
ATOM      1  C   UNL     1       5.579  -0.203   2.050  1.00  0.00     0.080 C 
ENDROOT
BRANCH   1   2
ATOM      2  C   UNL     1       5.339   0.991   1.192  1.00  0.00     0.130 C 
ATOM      3  C   UNL     1       6.063   1.187  -0.092  1.00  0.00     0.087 C 
ATOM      4  O   UNL     1       4.536   1.848   1.522  1.00  0.00    -0.300 OA
ENDBRANCH   1   2
BRANCH   1   5
ATOM      5  C   UNL     1       6.496  -1.197   1.366  1.00  0.00     0.043 C 
BRANCH   5   6
ATOM      6  C   UNL     1       7.638  -1.566   2.222  1.00  0.00    -0.044 A 
ATOM      7  C   UNL     1       7.683  -1.215   3.576  1.00  0.00     0.008 A 
ATOM      8  C   UNL     1       8.690  -2.274   1.688  1.00  0.00     0.054 A 
ATOM      9  C   UNL     1       8.780  -1.589   4.330  1.00  0.00     0.051 A 
ATOM     10  C   UNL     1       9.797  -2.650   2.454  1.00  0.00     0.166 A 
ATOM     11  C   UNL     1       9.842  -2.304   3.787  1.00  0.00     0.165 A 
ATOM     12  O   UNL     1      10.952  -3.344   2.161  1.00  0.00    -0.454 OA
ATOM     13  O   UNL     1      11.035  -2.799   4.289  1.00  0.00    -0.454 OA
ATOM     14  C   UNL     1      11.727  -3.544   3.315  1.00  0.00     0.468 C 
ENDBRANCH   5   6
ENDBRANCH   1   5
TORSDOF 3
ENDMDL
MODEL 2
REMARK VINA RESULT:      -7.3      3.901      4.906
REMARK SMILES CC(=O)CCc1ccc2c(c1)OCO2
REMARK SMILES IDX 4 1 2 2 1 3 3 4 5 5 6 6 7 7 11 8 8 9 10 10 9 11 12 12 14 13
REMARK SMILES IDX 13 14
REMARK H PARENT
REMARK Flexibility Score: inf
ROOT
ATOM      1  C   UNL     1       5.477   1.937   1.242  1.00  0.00     0.080 C 
ENDROOT
BRANCH   1   2
ATOM      2  C   UNL     1       4.981   0.742   1.980  1.00  0.00     0.130 C 
ATOM      3  C   UNL     1       5.783  -0.508   2.070  1.00  0.00     0.087 C 
ATOM      4  O   UNL     1       3.894   0.755   2.535  1.00  0.00    -0.300 OA
ENDBRANCH   1   2
BRANCH   1   5
ATOM      5  C   UNL     1       5.366   1.744  -0.258  1.00  0.00     0.043 C 
BRANCH   5   6
ATOM      6  C   UNL     1       6.540   1.043  -0.807  1.00  0.00    -0.044 A 
ATOM      7  C   UNL     1       7.844   1.475  -0.538  1.00  0.00     0.008 A 
ATOM      8  C   UNL     1       6.362  -0.066  -1.602  1.00  0.00     0.054 A 
ATOM      9  C   UNL     1       8.908   0.777  -1.080  1.00  0.00     0.051 A 
ATOM     10  C   UNL     1       7.441  -0.769  -2.147  1.00  0.00     0.166 A 
ATOM     11  C   UNL     1       8.724  -0.343  -1.884  1.00  0.00     0.165 A 
ATOM     12  O   UNL     1       7.525  -1.882  -2.956  1.00  0.00    -0.454 OA
ATOM     13  O   UNL     1       9.578  -1.214  -2.543  1.00  0.00    -0.454 OA
ATOM     14  C   UNL     1       8.863  -2.258  -3.160  1.00  0.00     0.468 C 
ENDBRANCH   5   6
ENDBRANCH   1   5
TORSDOF 3
ENDMDL
MODEL 3
REMARK VINA RESULT:      -7.3      0.930      1.040
REMARK SMILES CC(=O)CCc1ccc2c(c1)OCO2
REMARK SMILES IDX 4 1 2 2 1 3 3 4 5 5 6 6 7 7 11 8 8 9 10 10 9 11 12 12 14 13
REMARK SMILES IDX 13 14
REMARK H PARENT
REMARK Flexibility Score: inf
ROOT
ATOM      1  C   UNL     1       6.205  -0.813   2.487  1.00  0.00     0.080 C 
ENDROOT
BRANCH   1   2
ATOM      2  C   UNL     1       5.409   0.277   1.857  1.00  0.00     0.130 C 
ATOM      3  C   UNL     1       5.779   0.850   0.536  1.00  0.00     0.087 C 
ATOM      4  O   UNL     1       4.423   0.734   2.412  1.00  0.00    -0.300 OA
ENDBRANCH   1   2
BRANCH   1   5
ATOM      5  C   UNL     1       7.549  -0.977   1.806  1.00  0.00     0.043 C 
BRANCH   5   6
ATOM      6  C   UNL     1       8.565  -1.519   2.726  1.00  0.00    -0.044 A 
ATOM      7  C   UNL     1       8.462  -1.355   4.112  1.00  0.00     0.008 A 
ATOM      8  C   UNL     1       9.645  -2.207   2.221  1.00  0.00     0.054 A 
ATOM      9  C   UNL     1       9.445  -1.886   4.926  1.00  0.00     0.051 A 
ATOM     10  C   UNL     1      10.637  -2.742   3.048  1.00  0.00     0.166 A 
ATOM     11  C   UNL     1      10.536  -2.580   4.412  1.00  0.00     0.165 A 
ATOM     12  O   UNL     1      11.790  -3.454   2.793  1.00  0.00    -0.454 OA
ATOM     13  O   UNL     1      11.640  -3.204   4.972  1.00  0.00    -0.454 OA
ATOM     14  C   UNL     1      12.413  -3.849   3.988  1.00  0.00     0.468 C 
ENDBRANCH   5   6
ENDBRANCH   1   5
TORSDOF 3
ENDMDL
MODEL 4
REMARK VINA RESULT:      -7.1      0.988      1.961
REMARK SMILES CC(=O)CCc1ccc2c(c1)OCO2
REMARK SMILES IDX 4 1 2 2 1 3 3 4 5 5 6 6 7 7 11 8 8 9 10 10 9 11 12 12 14 13
REMARK SMILES IDX 13 14
REMARK H PARENT
REMARK Flexibility Score: inf
ROOT
ATOM      1  C   UNL     1       5.469  -0.074   1.953  1.00  0.00     0.080 C 
ENDROOT
BRANCH   1   2
ATOM      2  C   UNL     1       5.358   1.082   1.020  1.00  0.00     0.130 C 
ATOM      3  C   UNL     1       6.003   1.068  -0.320  1.00  0.00     0.087 C 
ATOM      4  O   UNL     1       4.730   2.081   1.332  1.00  0.00    -0.300 OA
ENDBRANCH   1   2
BRANCH   1   5
ATOM      5  C   UNL     1       6.214  -1.228   1.313  1.00  0.00     0.043 C 
BRANCH   5   6
ATOM      6  C   UNL     1       7.436  -1.572   2.062  1.00  0.00    -0.044 A 
ATOM      7  C   UNL     1       8.497  -2.258   1.458  1.00  0.00     0.008 A 
ATOM      8  C   UNL     1       7.550  -1.212   3.385  1.00  0.00     0.054 A 
ATOM      9  C   UNL     1       9.620  -2.552   2.210  1.00  0.00     0.051 A 
ATOM     10  C   UNL     1       8.687  -1.511   4.141  1.00  0.00     0.166 A 
ATOM     11  C   UNL     1       9.731  -2.187   3.548  1.00  0.00     0.165 A 
ATOM     12  O   UNL     1       9.035  -1.267   5.452  1.00  0.00    -0.454 OA
ATOM     13  O   UNL     1      10.708  -2.344   4.518  1.00  0.00    -0.454 OA
ATOM     14  C   UNL     1      10.347  -1.696   5.714  1.00  0.00     0.468 C 
ENDBRANCH   5   6
ENDBRANCH   1   5
TORSDOF 3
ENDMDL
MODEL 5
REMARK VINA RESULT:      -7.1      3.138      4.284
REMARK SMILES CC(=O)CCc1ccc2c(c1)OCO2
REMARK SMILES IDX 4 1 2 2 1 3 3 4 5 5 6 6 7 7 11 8 8 9 10 10 9 11 12 12 14 13
REMARK SMILES IDX 13 14
REMARK H PARENT
REMARK Flexibility Score: inf
ROOT
ATOM      1  C   UNL     1       5.728   1.305  -0.313  1.00  0.00     0.080 C 
ENDROOT
BRANCH   1   2
ATOM      2  C   UNL     1       5.117   1.262   1.044  1.00  0.00     0.130 C 
ATOM      3  C   UNL     1       5.388   0.144   1.988  1.00  0.00     0.087 C 
ATOM      4  O   UNL     1       4.369   2.149   1.423  1.00  0.00    -0.300 OA
ENDBRANCH   1   2
BRANCH   1   5
ATOM      5  C   UNL     1       7.225   1.074  -0.250  1.00  0.00     0.043 C 
BRANCH   5   6
ATOM      6  C   UNL     1       7.606  -0.212  -0.859  1.00  0.00    -0.044 A 
ATOM      7  C   UNL     1       7.696  -0.368  -2.247  1.00  0.00     0.008 A 
ATOM      8  C   UNL     1       7.886  -1.293  -0.054  1.00  0.00     0.054 A 
ATOM      9  C   UNL     1       8.059  -1.599  -2.763  1.00  0.00     0.051 A 
ATOM     10  C   UNL     1       8.253  -2.535  -0.580  1.00  0.00     0.166 A 
ATOM     11  C   UNL     1       8.340  -2.689  -1.945  1.00  0.00     0.165 A 
ATOM     12  O   UNL     1       8.575  -3.743   0.001  1.00  0.00    -0.454 OA
ATOM     13  O   UNL     1       8.718  -4.002  -2.177  1.00  0.00    -0.454 OA
ATOM     14  C   UNL     1       8.966  -4.681  -0.969  1.00  0.00     0.468 C 
ENDBRANCH   5   6
ENDBRANCH   1   5
TORSDOF 3
ENDMDL
