@<TRIPOS>MOLECULE
/home/cewinharhar/GITHUB/reincatalyze/data/processed/docking_pred/2023-May-22-2206_sub9_nm5_bs15_s42_ex16_mel10_mts10000_k50_ec02_g099_lra9e-4_lrc1e-3/5d85cf370efb80bf055e3e75471b8f0e73f124ff_ligand_9.pdbqt
 14 15 0 0 0
SMALL
GASTEIGER

@<TRIPOS>ATOM
      1  C          6.2050   -0.8130    2.4870 C.3     1  UNL1        0.0800
      2  C          5.4090    0.2770    1.8570 C.2     1  UNL1        0.1300
      3  C          5.7790    0.8500    0.5360 C.3     1  UNL1        0.0870
      4  O          4.4230    0.7340    2.4120 O.2     1  UNL1       -0.3000
      5  C          7.5490   -0.9770    1.8060 C.3     1  UNL1        0.0430
      6  C          8.5650   -1.5190    2.7260 C.2     1  UNL1       -0.0440
      7  C          8.4620   -1.3550    4.1120 C.2     1  UNL1        0.0080
      8  C          9.6450   -2.2070    2.2210 C.2     1  UNL1        0.0540
      9  C          9.4450   -1.8860    4.9260 C.2     1  UNL1        0.0510
     10  C         10.6370   -2.7420    3.0480 C.2     1  UNL1        0.1660
     11  C         10.5360   -2.5800    4.4120 C.2     1  UNL1        0.1650
     12  O         11.7900   -3.4540    2.7930 O.2     1  UNL1       -0.4540
     13  O         11.6400   -3.2040    4.9720 O.2     1  UNL1       -0.4540
     14  C         12.4130   -3.8490    3.9880 C.3     1  UNL1        0.4680
@<TRIPOS>BOND
     1     3     2    1
     2     5     1    1
     3     5     6    1
     4     2     4    2
     5     2     1    1
     6     8     6    2
     7     8    10    1
     8     6     7    1
     9    12    10    1
    10    12    14    1
    11    10    11    2
    12    14    13    1
    13     7     9    2
    14    11     9    1
    15    11    13    1
