@<TRIPOS>MOLECULE
/home/cewinharhar/GITHUB/reincatalyze/data/processed/docking_pred/2023-May-22-2206_sub9_nm5_bs15_s42_ex16_mel10_mts10000_k50_ec02_g099_lra9e-4_lrc1e-3/5d85cf370efb80bf055e3e75471b8f0e73f124ff_ligand_9.pdbqt
 14 15 0 0 0
SMALL
GASTEIGER

@<TRIPOS>ATOM
      1  C          5.5790   -0.2030    2.0500 C.3     1  UNL1        0.0800
      2  C          5.3390    0.9910    1.1920 C.2     1  UNL1        0.1300
      3  C          6.0630    1.1870   -0.0920 C.3     1  UNL1        0.0870
      4  O          4.5360    1.8480    1.5220 O.2     1  UNL1       -0.3000
      5  C          6.4960   -1.1970    1.3660 C.3     1  UNL1        0.0430
      6  C          7.6380   -1.5660    2.2220 C.2     1  UNL1       -0.0440
      7  C          7.6830   -1.2150    3.5760 C.2     1  UNL1        0.0080
      8  C          8.6900   -2.2740    1.6880 C.2     1  UNL1        0.0540
      9  C          8.7800   -1.5890    4.3300 C.2     1  UNL1        0.0510
     10  C          9.7970   -2.6500    2.4540 C.2     1  UNL1        0.1660
     11  C          9.8420   -2.3040    3.7870 C.2     1  UNL1        0.1650
     12  O         10.9520   -3.3440    2.1610 O.2     1  UNL1       -0.4540
     13  O         11.0350   -2.7990    4.2890 O.2     1  UNL1       -0.4540
     14  C         11.7270   -3.5440    3.3150 C.3     1  UNL1        0.4680
@<TRIPOS>BOND
     1     3     2    1
     2     2     4    2
     3     2     1    1
     4     5     1    1
     5     5     6    1
     6     8     6    2
     7     8    10    1
     8    12    10    1
     9    12    14    1
    10     6     7    1
    11    10    11    2
    12    14    13    1
    13     7     9    2
    14    11    13    1
    15    11     9    1
