@<TRIPOS>MOLECULE
/home/cewinharhar/GITHUB/reincatalyze/data/processed/docking_pred/2023-May-22-2206_sub9_nm5_bs15_s42_ex16_mel10_mts10000_k50_ec02_g099_lra9e-4_lrc1e-3/5f00cdda1ab61f28c1ea6d7129614616e9231d70_ligand_9.pdbqt
 14 15 0 0 0
SMALL
GASTEIGER

@<TRIPOS>ATOM
      1  C          6.3830    1.2020    0.9460 C.3     1  UNL1        0.0800
      2  C          5.6510    0.3730    1.9430 C.2     1  UNL1        0.1300
      3  C          6.2520   -0.8550    2.5300 C.3     1  UNL1        0.0870
      4  O          4.5280    0.6800    2.3100 O.2     1  UNL1       -0.3000
      5  C          5.8800    0.9440   -0.4600 C.3     1  UNL1        0.0430
      6  C          6.8220    0.1140   -1.2340 C.2     1  UNL1       -0.0440
      7  C          7.4980    0.6200   -2.3500 C.2     1  UNL1        0.0080
      8  C          7.0500   -1.1900   -0.8570 C.2     1  UNL1        0.0540
      9  C          8.3710   -0.2050   -3.0360 C.2     1  UNL1        0.0510
     10  C          7.9340   -2.0190   -1.5540 C.2     1  UNL1        0.1660
     11  C          8.5990   -1.5230   -2.6530 C.2     1  UNL1        0.1650
     12  O          8.3250   -3.3300   -1.3820 O.2     1  UNL1       -0.4540
     13  O          9.3940   -2.5490   -3.1370 O.2     1  UNL1       -0.4540
     14  C          9.3200   -3.6840   -2.3080 C.3     1  UNL1        0.4680
@<TRIPOS>BOND
     1    13    11    1
     2    13    14    1
     3     9    11    2
     4     9     7    1
     5    11    10    1
     6     7     6    2
     7    14    12    1
     8    10    12    1
     9    10     8    2
    10     6     8    1
    11     6     5    1
    12     5     1    1
    13     1     2    1
    14     2     4    2
    15     2     3    1
