@<TRIPOS>MOLECULE
/home/cewinharhar/GITHUB/reincatalyze/data/processed/docking_pred/2023-May-22-2206_sub9_nm5_bs15_s42_ex16_mel10_mts10000_k50_ec02_g099_lra9e-4_lrc1e-3/5f00cdda1ab61f28c1ea6d7129614616e9231d70_ligand_9.pdbqt
 14 15 0 0 0
SMALL
GASTEIGER

@<TRIPOS>ATOM
      1  C          5.5860    0.0400    1.9470 C.3     1  UNL1        0.0800
      2  C          4.6810    1.1790    1.6290 C.2     1  UNL1        0.1300
      3  C          4.9690    2.1160    0.5090 C.3     1  UNL1        0.0870
      4  O          3.6710    1.3790    2.2830 O.2     1  UNL1       -0.3000
      5  C          6.9930    0.2980    1.4450 C.3     1  UNL1        0.0430
      6  C          7.3930   -0.6780    0.4150 C.2     1  UNL1       -0.0440
      7  C          7.2900   -0.3880   -0.9500 C.2     1  UNL1        0.0080
      8  C          7.8840   -1.9070    0.7940 C.2     1  UNL1        0.0540
      9  C          7.6820   -1.3420   -1.8710 C.2     1  UNL1        0.0510
     10  C          8.2800   -2.8680   -0.1400 C.2     1  UNL1        0.1660
     11  C          8.1770   -2.5840   -1.4840 C.2     1  UNL1        0.1650
     12  O          8.7910   -4.1430   -0.0190 O.2     1  UNL1       -0.4540
     13  O          8.6330   -3.7010   -2.1660 O.2     1  UNL1       -0.4540
     14  C          9.1170   -4.6780   -1.2760 C.3     1  UNL1        0.4680
@<TRIPOS>BOND
     1    13    11    1
     2    13    14    1
     3     9    11    2
     4     9     7    1
     5    11    10    1
     6    14    12    1
     7     7     6    2
     8    10    12    1
     9    10     8    2
    10     6     8    1
    11     6     5    1
    12     3     2    1
    13     5     1    1
    14     2     1    1
    15     2     4    2
