@<TRIPOS>MOLECULE
/home/cewinharhar/GITHUB/reincatalyze/data/processed/docking_pred/2023-May-22-2206_sub9_nm5_bs15_s42_ex16_mel10_mts10000_k50_ec02_g099_lra9e-4_lrc1e-3/5f7ce1df4e505eeb6c5bd28a98530cf3f623dbf2_ligand_9.pdbqt
 14 15 0 0 0
SMALL
GASTEIGER

@<TRIPOS>ATOM
      1  C          5.7570    1.2940   -0.3140 C.3     1  UNL1        0.0800
      2  C          5.2160    1.2040    1.0710 C.2     1  UNL1        0.1300
      3  C          5.3580   -0.0320    1.8860 C.3     1  UNL1        0.0870
      4  O          4.6350    2.1500    1.5790 O.2     1  UNL1       -0.3000
      5  C          7.2580    1.0810   -0.3330 C.3     1  UNL1        0.0430
      6  C          7.6190   -0.2150   -0.9350 C.2     1  UNL1       -0.0440
      7  C          7.6470   -0.3950   -2.3230 C.2     1  UNL1        0.0080
      8  C          7.9390   -1.2790   -0.1230 C.2     1  UNL1        0.0540
      9  C          7.9940   -1.6340   -2.8310 C.2     1  UNL1        0.0510
     10  C          8.2900   -2.5290   -0.6420 C.2     1  UNL1        0.1660
     11  C          8.3170   -2.7080   -2.0070 C.2     1  UNL1        0.1650
     12  O          8.6440   -3.7240   -0.0540 O.2     1  UNL1       -0.4540
     13  O          8.6920   -4.0230   -2.2310 O.2     1  UNL1       -0.4540
     14  C          8.9970   -4.6780   -1.0230 C.3     1  UNL1        0.4680
@<TRIPOS>BOND
     1     9     7    1
     2     9    11    2
     3     7     6    2
     4    13    11    1
     5    13    14    1
     6    11    10    1
     7    14    12    1
     8     6     5    1
     9     6     8    1
    10    10     8    2
    11    10    12    1
    12     5     1    1
    13     1     2    1
    14     2     4    2
    15     2     3    1
