@<TRIPOS>MOLECULE
/home/cewinharhar/GITHUB/reincatalyze/data/processed/docking_pred/2023-May-22-2206_sub9_nm5_bs15_s42_ex16_mel10_mts10000_k50_ec02_g099_lra9e-4_lrc1e-3/6047b5c71b47d2a809e14c46b0582b8ae3076bc9_ligand_9.pdbqt
 14 15 0 0 0
SMALL
GASTEIGER

@<TRIPOS>ATOM
      1  C          5.4630   -0.0270    1.9820 C.3     1  UNL1        0.0800
      2  C          4.5980    1.1540    1.7070 C.2     1  UNL1        0.1300
      3  C          4.9050    2.1070    0.6070 C.3     1  UNL1        0.0870
      4  O          3.6070    1.3760    2.3830 O.2     1  UNL1       -0.3000
      5  C          6.8930    0.2230    1.5450 C.3     1  UNL1        0.0430
      6  C          7.3160   -0.7190    0.4940 C.2     1  UNL1       -0.0440
      7  C          7.2030   -0.4010   -0.8650 C.2     1  UNL1        0.0080
      8  C          7.8380   -1.9430    0.8450 C.2     1  UNL1        0.0540
      9  C          7.6180   -1.3240   -1.8070 C.2     1  UNL1        0.0510
     10  C          8.2560   -2.8730   -0.1120 C.2     1  UNL1        0.1660
     11  C          8.1440   -2.5610   -1.4480 C.2     1  UNL1        0.1650
     12  O          8.7980   -4.1370   -0.0190 O.2     1  UNL1       -0.4540
     13  O          8.6270   -3.6510   -2.1560 O.2     1  UNL1       -0.4540
     14  C          9.1360   -4.6360   -1.2880 C.3     1  UNL1        0.4680
@<TRIPOS>BOND
     1    13    11    1
     2    13    14    1
     3     9    11    2
     4     9     7    1
     5    11    10    1
     6    14    12    1
     7     7     6    2
     8    10    12    1
     9    10     8    2
    10     6     8    1
    11     6     5    1
    12     3     2    1
    13     5     1    1
    14     2     1    1
    15     2     4    2
