@<TRIPOS>MOLECULE
/home/cewinharhar/GITHUB/reincatalyze/data/processed/docking_pred/2023-May-22-2206_sub9_nm5_bs15_s42_ex16_mel10_mts10000_k50_ec02_g099_lra9e-4_lrc1e-3/6047b5c71b47d2a809e14c46b0582b8ae3076bc9_ligand_9.pdbqt
 14 15 0 0 0
SMALL
GASTEIGER

@<TRIPOS>ATOM
      1  C          5.2880   -0.0910    1.9400 C.3     1  UNL1        0.0800
      2  C          4.4190    1.1090    1.7800 C.2     1  UNL1        0.1300
      3  C          4.7030    2.1470    0.7540 C.3     1  UNL1        0.0870
      4  O          3.4420    1.2740    2.4920 O.2     1  UNL1       -0.3000
      5  C          6.7560    0.2840    1.9000 C.3     1  UNL1        0.0430
      6  C          7.3730   -0.0600    0.6070 C.2     1  UNL1       -0.0440
      7  C          7.8650    0.9260   -0.2560 C.2     1  UNL1        0.0080
      8  C          7.4760   -1.3800    0.2300 C.2     1  UNL1        0.0540
      9  C          8.4350    0.5430   -1.4570 C.2     1  UNL1        0.0510
     10  C          8.0530   -1.7620   -0.9850 C.2     1  UNL1        0.1660
     11  C          8.5360   -0.7920   -1.8350 C.2     1  UNL1        0.1650
     12  O          8.2680   -2.9870   -1.5790 O.2     1  UNL1       -0.4540
     13  O          9.0440   -1.4490   -2.9450 O.2     1  UNL1       -0.4540
     14  C          8.9770   -2.8460   -2.7840 C.3     1  UNL1        0.4680
@<TRIPOS>BOND
     1    13    14    1
     2    13    11    1
     3    14    12    1
     4    11     9    2
     5    11    10    1
     6    12    10    1
     7     9     7    1
     8    10     8    2
     9     7     6    2
    10     8     6    1
    11     6     5    1
    12     3     2    1
    13     2     1    1
    14     2     4    2
    15     5     1    1
