MODEL 1
REMARK VINA RESULT:      -7.6      0.000      0.000
REMARK SMILES CC(=O)CCc1ccc2c(c1)OCO2
REMARK SMILES IDX 4 1 2 2 1 3 3 4 5 5 6 6 7 7 11 8 8 9 10 10 9 11 12 12 14 13
REMARK SMILES IDX 13 14
REMARK H PARENT
REMARK Flexibility Score: inf
ROOT
ATOM      1  C   UNL     1       5.508   1.924   1.260  1.00  0.00     0.080 C 
ENDROOT
BRANCH   1   2
ATOM      2  C   UNL     1       5.067   0.707   1.998  1.00  0.00     0.130 C 
ATOM      3  C   UNL     1       5.957  -0.474   2.155  1.00  0.00     0.087 C 
ATOM      4  O   UNL     1       3.956   0.645   2.497  1.00  0.00    -0.300 OA
ENDBRANCH   1   2
BRANCH   1   5
ATOM      5  C   UNL     1       5.385   1.734  -0.239  1.00  0.00     0.043 C 
BRANCH   5   6
ATOM      6  C   UNL     1       6.555   1.033  -0.798  1.00  0.00    -0.044 A 
ATOM      7  C   UNL     1       7.861   1.467  -0.542  1.00  0.00     0.008 A 
ATOM      8  C   UNL     1       6.371  -0.077  -1.590  1.00  0.00     0.054 A 
ATOM      9  C   UNL     1       8.920   0.770  -1.093  1.00  0.00     0.051 A 
ATOM     10  C   UNL     1       7.445  -0.779  -2.144  1.00  0.00     0.166 A 
ATOM     11  C   UNL     1       8.730  -0.352  -1.894  1.00  0.00     0.165 A 
ATOM     12  O   UNL     1       7.522  -1.894  -2.952  1.00  0.00    -0.454 OA
ATOM     13  O   UNL     1       9.579  -1.223  -2.559  1.00  0.00    -0.454 OA
ATOM     14  C   UNL     1       8.859  -2.268  -3.168  1.00  0.00     0.468 C 
ENDBRANCH   5   6
ENDBRANCH   1   5
TORSDOF 3
ENDMDL
MODEL 2
REMARK VINA RESULT:      -7.4      1.956      2.423
REMARK SMILES CC(=O)CCc1ccc2c(c1)OCO2
REMARK SMILES IDX 4 1 2 2 1 3 3 4 5 5 6 6 7 7 11 8 8 9 10 10 9 11 12 12 14 13
REMARK SMILES IDX 13 14
REMARK H PARENT
REMARK Flexibility Score: inf
ROOT
ATOM      1  C   UNL     1       5.780   1.333  -0.272  1.00  0.00     0.080 C 
ENDROOT
BRANCH   1   2
ATOM      2  C   UNL     1       5.140   1.261   1.072  1.00  0.00     0.130 C 
ATOM      3  C   UNL     1       5.372   0.111   1.987  1.00  0.00     0.087 C 
ATOM      4  O   UNL     1       4.400   2.150   1.462  1.00  0.00    -0.300 OA
ENDBRANCH   1   2
BRANCH   1   5
ATOM      5  C   UNL     1       7.268   1.058  -0.188  1.00  0.00     0.043 C 
BRANCH   5   6
ATOM      6  C   UNL     1       7.622  -0.231  -0.809  1.00  0.00    -0.044 A 
ATOM      7  C   UNL     1       7.649  -0.392  -2.199  1.00  0.00     0.008 A 
ATOM      8  C   UNL     1       7.937  -1.308  -0.012  1.00  0.00     0.054 A 
ATOM      9  C   UNL     1       7.990  -1.625  -2.725  1.00  0.00     0.051 A 
ATOM     10  C   UNL     1       8.281  -2.552  -0.549  1.00  0.00     0.166 A 
ATOM     11  C   UNL     1       8.307  -2.712  -1.917  1.00  0.00     0.165 A 
ATOM     12  O   UNL     1       8.628  -3.758   0.022  1.00  0.00    -0.454 OA
ATOM     13  O   UNL     1       8.675  -4.026  -2.160  1.00  0.00    -0.454 OA
ATOM     14  C   UNL     1       8.976  -4.700  -0.961  1.00  0.00     0.468 C 
ENDBRANCH   5   6
ENDBRANCH   1   5
TORSDOF 3
ENDMDL
MODEL 3
REMARK VINA RESULT:      -7.2      2.074      2.631
REMARK SMILES CC(=O)CCc1ccc2c(c1)OCO2
REMARK SMILES IDX 4 1 2 2 1 3 3 4 5 5 6 6 7 7 11 8 8 9 10 10 9 11 12 12 14 13
REMARK SMILES IDX 13 14
REMARK H PARENT
REMARK Flexibility Score: inf
ROOT
ATOM      1  C   UNL     1       5.463  -0.027   1.982  1.00  0.00     0.080 C 
ENDROOT
BRANCH   1   2
ATOM      2  C   UNL     1       4.598   1.154   1.707  1.00  0.00     0.130 C 
ATOM      3  C   UNL     1       4.905   2.107   0.607  1.00  0.00     0.087 C 
ATOM      4  O   UNL     1       3.607   1.376   2.383  1.00  0.00    -0.300 OA
ENDBRANCH   1   2
BRANCH   1   5
ATOM      5  C   UNL     1       6.893   0.223   1.545  1.00  0.00     0.043 C 
BRANCH   5   6
ATOM      6  C   UNL     1       7.316  -0.719   0.494  1.00  0.00    -0.044 A 
ATOM      7  C   UNL     1       7.203  -0.401  -0.865  1.00  0.00     0.008 A 
ATOM      8  C   UNL     1       7.838  -1.943   0.845  1.00  0.00     0.054 A 
ATOM      9  C   UNL     1       7.618  -1.324  -1.807  1.00  0.00     0.051 A 
ATOM     10  C   UNL     1       8.256  -2.873  -0.112  1.00  0.00     0.166 A 
ATOM     11  C   UNL     1       8.144  -2.561  -1.448  1.00  0.00     0.165 A 
ATOM     12  O   UNL     1       8.798  -4.137  -0.019  1.00  0.00    -0.454 OA
ATOM     13  O   UNL     1       8.627  -3.651  -2.156  1.00  0.00    -0.454 OA
ATOM     14  C   UNL     1       9.136  -4.636  -1.288  1.00  0.00     0.468 C 
ENDBRANCH   5   6
ENDBRANCH   1   5
TORSDOF 3
ENDMDL
MODEL 4
REMARK VINA RESULT:      -7.1      1.264      1.476
REMARK SMILES CC(=O)CCc1ccc2c(c1)OCO2
REMARK SMILES IDX 4 1 2 2 1 3 3 4 5 5 6 6 7 7 11 8 8 9 10 10 9 11 12 12 14 13
REMARK SMILES IDX 13 14
REMARK H PARENT
REMARK Flexibility Score: inf
ROOT
ATOM      1  C   UNL     1       6.383   1.194   0.958  1.00  0.00     0.080 C 
ENDROOT
BRANCH   1   2
ATOM      2  C   UNL     1       5.649   0.366   1.954  1.00  0.00     0.130 C 
ATOM      3  C   UNL     1       6.248  -0.861   2.545  1.00  0.00     0.087 C 
ATOM      4  O   UNL     1       4.525   0.673   2.317  1.00  0.00    -0.300 OA
ENDBRANCH   1   2
BRANCH   1   5
ATOM      5  C   UNL     1       5.878   0.939  -0.449  1.00  0.00     0.043 C 
BRANCH   5   6
ATOM      6  C   UNL     1       6.817   0.110  -1.225  1.00  0.00    -0.044 A 
ATOM      7  C   UNL     1       7.484   0.613  -2.348  1.00  0.00     0.008 A 
ATOM      8  C   UNL     1       7.053  -1.191  -0.845  1.00  0.00     0.054 A 
ATOM      9  C   UNL     1       8.354  -0.211  -3.037  1.00  0.00     0.051 A 
ATOM     10  C   UNL     1       7.934  -2.021  -1.544  1.00  0.00     0.166 A 
ATOM     11  C   UNL     1       8.590  -1.527  -2.650  1.00  0.00     0.165 A 
ATOM     12  O   UNL     1       8.332  -3.329  -1.370  1.00  0.00    -0.454 OA
ATOM     13  O   UNL     1       9.386  -2.552  -3.136  1.00  0.00    -0.454 OA
ATOM     14  C   UNL     1       9.322  -3.684  -2.301  1.00  0.00     0.468 C 
ENDBRANCH   5   6
ENDBRANCH   1   5
TORSDOF 3
ENDMDL
MODEL 5
REMARK VINA RESULT:      -6.8      1.263      1.757
REMARK SMILES CC(=O)CCc1ccc2c(c1)OCO2
REMARK SMILES IDX 4 1 2 2 1 3 3 4 5 5 6 6 7 7 11 8 8 9 10 10 9 11 12 12 14 13
REMARK SMILES IDX 13 14
REMARK H PARENT
REMARK Flexibility Score: inf
ROOT
ATOM      1  C   UNL     1       5.288  -0.091   1.940  1.00  0.00     0.080 C 
ENDROOT
BRANCH   1   2
ATOM      2  C   UNL     1       4.419   1.109   1.780  1.00  0.00     0.130 C 
ATOM      3  C   UNL     1       4.703   2.147   0.754  1.00  0.00     0.087 C 
ATOM      4  O   UNL     1       3.442   1.274   2.492  1.00  0.00    -0.300 OA
ENDBRANCH   1   2
BRANCH   1   5
ATOM      5  C   UNL     1       6.756   0.284   1.900  1.00  0.00     0.043 C 
BRANCH   5   6
ATOM      6  C   UNL     1       7.373  -0.060   0.607  1.00  0.00    -0.044 A 
ATOM      7  C   UNL     1       7.865   0.926  -0.256  1.00  0.00     0.008 A 
ATOM      8  C   UNL     1       7.476  -1.380   0.230  1.00  0.00     0.054 A 
ATOM      9  C   UNL     1       8.435   0.543  -1.457  1.00  0.00     0.051 A 
ATOM     10  C   UNL     1       8.053  -1.762  -0.985  1.00  0.00     0.166 A 
ATOM     11  C   UNL     1       8.536  -0.792  -1.835  1.00  0.00     0.165 A 
ATOM     12  O   UNL     1       8.268  -2.987  -1.579  1.00  0.00    -0.454 OA
ATOM     13  O   UNL     1       9.044  -1.449  -2.945  1.00  0.00    -0.454 OA
ATOM     14  C   UNL     1       8.977  -2.846  -2.784  1.00  0.00     0.468 C 
ENDBRANCH   5   6
ENDBRANCH   1   5
TORSDOF 3
ENDMDL
