@<TRIPOS>MOLECULE
/home/cewinharhar/GITHUB/reincatalyze/data/processed/docking_pred/2023-May-22-2206_sub9_nm5_bs15_s42_ex16_mel10_mts10000_k50_ec02_g099_lra9e-4_lrc1e-3/6047b5c71b47d2a809e14c46b0582b8ae3076bc9_ligand_9.pdbqt
 14 15 0 0 0
SMALL
GASTEIGER

@<TRIPOS>ATOM
      1  C          6.3830    1.1940    0.9580 C.3     1  UNL1        0.0800
      2  C          5.6490    0.3660    1.9540 C.2     1  UNL1        0.1300
      3  C          6.2480   -0.8610    2.5450 C.3     1  UNL1        0.0870
      4  O          4.5250    0.6730    2.3170 O.2     1  UNL1       -0.3000
      5  C          5.8780    0.9390   -0.4490 C.3     1  UNL1        0.0430
      6  C          6.8170    0.1100   -1.2250 C.2     1  UNL1       -0.0440
      7  C          7.4840    0.6130   -2.3480 C.2     1  UNL1        0.0080
      8  C          7.0530   -1.1910   -0.8450 C.2     1  UNL1        0.0540
      9  C          8.3540   -0.2110   -3.0370 C.2     1  UNL1        0.0510
     10  C          7.9340   -2.0210   -1.5440 C.2     1  UNL1        0.1660
     11  C          8.5900   -1.5270   -2.6500 C.2     1  UNL1        0.1650
     12  O          8.3320   -3.3290   -1.3700 O.2     1  UNL1       -0.4540
     13  O          9.3860   -2.5520   -3.1360 O.2     1  UNL1       -0.4540
     14  C          9.3220   -3.6840   -2.3010 C.3     1  UNL1        0.4680
@<TRIPOS>BOND
     1    13    11    1
     2    13    14    1
     3     9    11    2
     4     9     7    1
     5    11    10    1
     6     7     6    2
     7    14    12    1
     8    10    12    1
     9    10     8    2
    10     6     8    1
    11     6     5    1
    12     5     1    1
    13     1     2    1
    14     2     4    2
    15     2     3    1
