@<TRIPOS>MOLECULE
/home/cewinharhar/GITHUB/reincatalyze/data/processed/docking_pred/2023-May-22-2206_sub9_nm5_bs15_s42_ex16_mel10_mts10000_k50_ec02_g099_lra9e-4_lrc1e-3/6070aa1b8336213875ea865ca7f6d729a9af33a9_ligand_9.pdbqt
 14 15 0 0 0
SMALL
GASTEIGER

@<TRIPOS>ATOM
      1  C          5.5490   -0.0150    1.9440 C.3     1  UNL1        0.0800
      2  C          4.6660    1.1470    1.6450 C.2     1  UNL1        0.1300
      3  C          4.9510    2.0750    0.5180 C.3     1  UNL1        0.0870
      4  O          3.6760    1.3720    2.3220 O.2     1  UNL1       -0.3000
      5  C          6.9690    0.2400    1.4810 C.3     1  UNL1        0.0430
      6  C          7.3850   -0.7160    0.4390 C.2     1  UNL1       -0.0440
      7  C          7.2980   -0.4010   -0.9220 C.2     1  UNL1        0.0080
      8  C          7.8720   -1.9510    0.8020 C.2     1  UNL1        0.0540
      9  C          7.7040   -1.3380   -1.8550 C.2     1  UNL1        0.0510
     10  C          8.2810   -2.8950   -0.1450 C.2     1  UNL1        0.1660
     11  C          8.1960   -2.5860   -1.4840 C.2     1  UNL1        0.1650
     12  O          8.7930   -4.1710   -0.0400 O.2     1  UNL1       -0.4540
     13  O          8.6620   -3.6890   -2.1810 O.2     1  UNL1       -0.4540
     14  C          9.1360   -4.6820   -1.3020 C.3     1  UNL1        0.4680
@<TRIPOS>BOND
     1    13    11    1
     2    13    14    1
     3     9    11    2
     4     9     7    1
     5    11    10    1
     6    14    12    1
     7     7     6    2
     8    10    12    1
     9    10     8    2
    10     6     8    1
    11     6     5    1
    12     3     2    1
    13     5     1    1
    14     2     1    1
    15     2     4    2
