@<TRIPOS>MOLECULE
/home/cewinharhar/GITHUB/reincatalyze/data/processed/docking_pred/2023-May-22-2206_sub9_nm5_bs15_s42_ex16_mel10_mts10000_k50_ec02_g099_lra9e-4_lrc1e-3/6070aa1b8336213875ea865ca7f6d729a9af33a9_ligand_9.pdbqt
 14 15 0 0 0
SMALL
GASTEIGER

@<TRIPOS>ATOM
      1  C          6.3470    1.2470    0.8620 C.3     1  UNL1        0.0800
      2  C          5.6580    0.4430    1.9100 C.2     1  UNL1        0.1300
      3  C          6.2760   -0.7810    2.4860 C.3     1  UNL1        0.0870
      4  O          4.5580    0.7680    2.3270 O.2     1  UNL1       -0.3000
      5  C          5.8330    0.9030   -0.5220 C.3     1  UNL1        0.0430
      6  C          6.8030    0.0920   -1.2790 C.2     1  UNL1       -0.0440
      7  C          7.5180    0.6220   -2.3590 C.2     1  UNL1        0.0080
      8  C          7.0220   -1.2190   -0.9210 C.2     1  UNL1        0.0540
      9  C          8.4160   -0.1870   -3.0310 C.2     1  UNL1        0.0510
     10  C          7.9310   -2.0330   -1.6040 C.2     1  UNL1        0.1660
     11  C          8.6340   -1.5120   -2.6680 C.2     1  UNL1        0.1650
     12  O          8.3200   -3.3460   -1.4450 O.2     1  UNL1       -0.4540
     13  O          9.4480   -2.5270   -3.1450 O.2     1  UNL1       -0.4540
     14  C          9.3480   -3.6800   -2.3420 C.3     1  UNL1        0.4680
@<TRIPOS>BOND
     1    13    11    1
     2    13    14    1
     3     9    11    2
     4     9     7    1
     5    11    10    1
     6     7     6    2
     7    14    12    1
     8    10    12    1
     9    10     8    2
    10     6     8    1
    11     6     5    1
    12     5     1    1
    13     1     2    1
    14     2     4    2
    15     2     3    1
