MODEL 1
REMARK VINA RESULT:      -7.6      0.000      0.000
REMARK SMILES CC(=O)CCc1ccc2c(c1)OCO2
REMARK SMILES IDX 4 1 2 2 1 3 3 4 5 5 6 6 7 7 11 8 8 9 10 10 9 11 12 12 14 13
REMARK SMILES IDX 13 14
REMARK H PARENT
REMARK Flexibility Score: inf
ROOT
ATOM      1  C   UNL     1       5.560   1.895   1.288  1.00  0.00     0.080 C 
ENDROOT
BRANCH   1   2
ATOM      2  C   UNL     1       5.122   0.676   2.023  1.00  0.00     0.130 C 
ATOM      3  C   UNL     1       6.020  -0.498   2.194  1.00  0.00     0.087 C 
ATOM      4  O   UNL     1       4.005   0.605   2.510  1.00  0.00    -0.300 OA
ENDBRANCH   1   2
BRANCH   1   5
ATOM      5  C   UNL     1       5.423   1.712  -0.211  1.00  0.00     0.043 C 
BRANCH   5   6
ATOM      6  C   UNL     1       6.587   1.013  -0.785  1.00  0.00    -0.044 A 
ATOM      7  C   UNL     1       7.896   1.446  -0.541  1.00  0.00     0.008 A 
ATOM      8  C   UNL     1       6.394  -0.094  -1.579  1.00  0.00     0.054 A 
ATOM      9  C   UNL     1       8.949   0.749  -1.105  1.00  0.00     0.051 A 
ATOM     10  C   UNL     1       7.462  -0.795  -2.147  1.00  0.00     0.166 A 
ATOM     11  C   UNL     1       8.750  -0.370  -1.908  1.00  0.00     0.165 A 
ATOM     12  O   UNL     1       7.530  -1.907  -2.959  1.00  0.00    -0.454 OA
ATOM     13  O   UNL     1       9.591  -1.239  -2.585  1.00  0.00    -0.454 OA
ATOM     14  C   UNL     1       8.864  -2.282  -3.190  1.00  0.00     0.468 C 
ENDBRANCH   5   6
ENDBRANCH   1   5
TORSDOF 3
ENDMDL
MODEL 2
REMARK VINA RESULT:      -7.4      1.943      2.389
REMARK SMILES CC(=O)CCc1ccc2c(c1)OCO2
REMARK SMILES IDX 4 1 2 2 1 3 3 4 5 5 6 6 7 7 11 8 8 9 10 10 9 11 12 12 14 13
REMARK SMILES IDX 13 14
REMARK H PARENT
REMARK Flexibility Score: inf
ROOT
ATOM      1  C   UNL     1       5.715   1.321  -0.244  1.00  0.00     0.080 C 
ENDROOT
BRANCH   1   2
ATOM      2  C   UNL     1       5.101   1.243   1.110  1.00  0.00     0.130 C 
ATOM      3  C   UNL     1       5.308   0.065   1.995  1.00  0.00     0.087 C 
ATOM      4  O   UNL     1       4.403   2.150   1.536  1.00  0.00    -0.300 OA
ENDBRANCH   1   2
BRANCH   1   5
ATOM      5  C   UNL     1       7.211   1.085  -0.184  1.00  0.00     0.043 C 
BRANCH   5   6
ATOM      6  C   UNL     1       7.587  -0.199  -0.802  1.00  0.00    -0.044 A 
ATOM      7  C   UNL     1       7.611  -0.365  -2.191  1.00  0.00     0.008 A 
ATOM      8  C   UNL     1       7.927  -1.267  -0.002  1.00  0.00     0.054 A 
ATOM      9  C   UNL     1       7.973  -1.593  -2.714  1.00  0.00     0.051 A 
ATOM     10  C   UNL     1       8.292  -2.506  -0.536  1.00  0.00     0.166 A 
ATOM     11  C   UNL     1       8.315  -2.671  -1.903  1.00  0.00     0.165 A 
ATOM     12  O   UNL     1       8.666  -3.703   0.038  1.00  0.00    -0.454 OA
ATOM     13  O   UNL     1       8.707  -3.979  -2.142  1.00  0.00    -0.454 OA
ATOM     14  C   UNL     1       9.027  -4.641  -0.942  1.00  0.00     0.468 C 
ENDBRANCH   5   6
ENDBRANCH   1   5
TORSDOF 3
ENDMDL
MODEL 3
REMARK VINA RESULT:      -7.2      2.090      2.623
REMARK SMILES CC(=O)CCc1ccc2c(c1)OCO2
REMARK SMILES IDX 4 1 2 2 1 3 3 4 5 5 6 6 7 7 11 8 8 9 10 10 9 11 12 12 14 13
REMARK SMILES IDX 13 14
REMARK H PARENT
REMARK Flexibility Score: inf
ROOT
ATOM      1  C   UNL     1       5.549  -0.015   1.944  1.00  0.00     0.080 C 
ENDROOT
BRANCH   1   2
ATOM      2  C   UNL     1       4.666   1.147   1.645  1.00  0.00     0.130 C 
ATOM      3  C   UNL     1       4.951   2.075   0.518  1.00  0.00     0.087 C 
ATOM      4  O   UNL     1       3.676   1.372   2.322  1.00  0.00    -0.300 OA
ENDBRANCH   1   2
BRANCH   1   5
ATOM      5  C   UNL     1       6.969   0.240   1.481  1.00  0.00     0.043 C 
BRANCH   5   6
ATOM      6  C   UNL     1       7.385  -0.716   0.439  1.00  0.00    -0.044 A 
ATOM      7  C   UNL     1       7.298  -0.401  -0.922  1.00  0.00     0.008 A 
ATOM      8  C   UNL     1       7.872  -1.951   0.802  1.00  0.00     0.054 A 
ATOM      9  C   UNL     1       7.704  -1.338  -1.855  1.00  0.00     0.051 A 
ATOM     10  C   UNL     1       8.281  -2.895  -0.145  1.00  0.00     0.166 A 
ATOM     11  C   UNL     1       8.196  -2.586  -1.484  1.00  0.00     0.165 A 
ATOM     12  O   UNL     1       8.793  -4.171  -0.040  1.00  0.00    -0.454 OA
ATOM     13  O   UNL     1       8.662  -3.689  -2.181  1.00  0.00    -0.454 OA
ATOM     14  C   UNL     1       9.136  -4.682  -1.302  1.00  0.00     0.468 C 
ENDBRANCH   5   6
ENDBRANCH   1   5
TORSDOF 3
ENDMDL
MODEL 4
REMARK VINA RESULT:      -7.1      1.240      1.443
REMARK SMILES CC(=O)CCc1ccc2c(c1)OCO2
REMARK SMILES IDX 4 1 2 2 1 3 3 4 5 5 6 6 7 7 11 8 8 9 10 10 9 11 12 12 14 13
REMARK SMILES IDX 13 14
REMARK H PARENT
REMARK Flexibility Score: inf
ROOT
ATOM      1  C   UNL     1       6.347   1.247   0.862  1.00  0.00     0.080 C 
ENDROOT
BRANCH   1   2
ATOM      2  C   UNL     1       5.658   0.443   1.910  1.00  0.00     0.130 C 
ATOM      3  C   UNL     1       6.276  -0.781   2.486  1.00  0.00     0.087 C 
ATOM      4  O   UNL     1       4.558   0.768   2.327  1.00  0.00    -0.300 OA
ENDBRANCH   1   2
BRANCH   1   5
ATOM      5  C   UNL     1       5.833   0.903  -0.522  1.00  0.00     0.043 C 
BRANCH   5   6
ATOM      6  C   UNL     1       6.803   0.092  -1.279  1.00  0.00    -0.044 A 
ATOM      7  C   UNL     1       7.518   0.622  -2.359  1.00  0.00     0.008 A 
ATOM      8  C   UNL     1       7.022  -1.219  -0.921  1.00  0.00     0.054 A 
ATOM      9  C   UNL     1       8.416  -0.187  -3.031  1.00  0.00     0.051 A 
ATOM     10  C   UNL     1       7.931  -2.033  -1.604  1.00  0.00     0.166 A 
ATOM     11  C   UNL     1       8.634  -1.512  -2.668  1.00  0.00     0.165 A 
ATOM     12  O   UNL     1       8.320  -3.346  -1.445  1.00  0.00    -0.454 OA
ATOM     13  O   UNL     1       9.448  -2.527  -3.145  1.00  0.00    -0.454 OA
ATOM     14  C   UNL     1       9.348  -3.680  -2.342  1.00  0.00     0.468 C 
ENDBRANCH   5   6
ENDBRANCH   1   5
TORSDOF 3
ENDMDL
MODEL 5
REMARK VINA RESULT:      -6.9      1.995      2.531
REMARK SMILES CC(=O)CCc1ccc2c(c1)OCO2
REMARK SMILES IDX 4 1 2 2 1 3 3 4 5 5 6 6 7 7 11 8 8 9 10 10 9 11 12 12 14 13
REMARK SMILES IDX 13 14
REMARK H PARENT
REMARK Flexibility Score: inf
ROOT
ATOM      1  C   UNL     1       6.953   1.138   1.167  1.00  0.00     0.080 C 
ENDROOT
BRANCH   1   2
ATOM      2  C   UNL     1       5.480   1.226   1.369  1.00  0.00     0.130 C 
ATOM      3  C   UNL     1       4.636   2.149   0.564  1.00  0.00     0.087 C 
ATOM      4  O   UNL     1       4.920   0.538   2.208  1.00  0.00    -0.300 OA
ENDBRANCH   1   2
BRANCH   1   5
ATOM      5  C   UNL     1       7.312   1.202  -0.304  1.00  0.00     0.043 C 
BRANCH   5   6
ATOM      6  C   UNL     1       7.656  -0.127  -0.842  1.00  0.00    -0.044 A 
ATOM      7  C   UNL     1       7.735  -0.363  -2.219  1.00  0.00     0.008 A 
ATOM      8  C   UNL     1       7.910  -1.167   0.023  1.00  0.00     0.054 A 
ATOM      9  C   UNL     1       8.063  -1.630  -2.665  1.00  0.00     0.051 A 
ATOM     10  C   UNL     1       8.242  -2.447  -0.433  1.00  0.00     0.166 A 
ATOM     11  C   UNL     1       8.319  -2.680  -1.788  1.00  0.00     0.165 A 
ATOM     12  O   UNL     1       8.534  -3.628   0.214  1.00  0.00    -0.454 OA
ATOM     13  O   UNL     1       8.661  -4.014  -1.946  1.00  0.00    -0.454 OA
ATOM     14  C   UNL     1       8.896  -4.629  -0.702  1.00  0.00     0.468 C 
ENDBRANCH   5   6
ENDBRANCH   1   5
TORSDOF 3
ENDMDL
