@<TRIPOS>MOLECULE
/home/cewinharhar/GITHUB/reincatalyze/data/processed/docking_pred/2023-May-22-2206_sub9_nm5_bs15_s42_ex16_mel10_mts10000_k50_ec02_g099_lra9e-4_lrc1e-3/64ade7361adfbcba1ebdf367c3e16aacabd62181_ligand_9.pdbqt
 14 15 0 0 0
SMALL
GASTEIGER

@<TRIPOS>ATOM
      1  C          6.8610    0.7460    1.0620 C.3     1  UNL1        0.0800
      2  C          5.4620    1.1140    1.4180 C.2     1  UNL1        0.1300
      3  C          4.7110    2.1500    0.6610 C.3     1  UNL1        0.0870
      4  O          4.8890    0.5710    2.3480 O.2     1  UNL1       -0.3000
      5  C          7.1130    0.9120   -0.4240 C.3     1  UNL1        0.0430
      6  C          7.5830   -0.3410   -1.0410 C.2     1  UNL1       -0.0440
      7  C          7.7670   -0.4520   -2.4250 C.2     1  UNL1        0.0080
      8  C          7.8540   -1.4330   -0.2490 C.2     1  UNL1        0.0540
      9  C          8.2110   -1.6530   -2.9480 C.2     1  UNL1        0.0510
     10  C          8.3030   -2.6440   -0.7830 C.2     1  UNL1        0.1660
     11  C          8.4830   -2.7550   -2.1440 C.2     1  UNL1        0.1650
     12  O          8.6350   -3.8560   -0.2150 O.2     1  UNL1       -0.4540
     13  O          8.9270   -4.0460   -2.3850 O.2     1  UNL1       -0.4540
     14  C          9.1240   -4.7490   -1.1820 C.3     1  UNL1        0.4680
@<TRIPOS>BOND
     1     9     7    1
     2     9    11    2
     3     7     6    2
     4    13    11    1
     5    13    14    1
     6    11    10    1
     7    14    12    1
     8     6     5    1
     9     6     8    1
    10    10     8    2
    11    10    12    1
    12     5     1    1
    13     3     2    1
    14     1     2    1
    15     2     4    2
