@<TRIPOS>MOLECULE
/home/cewinharhar/GITHUB/reincatalyze/data/processed/docking_pred/2023-May-22-2206_sub9_nm5_bs15_s42_ex16_mel10_mts10000_k50_ec02_g099_lra9e-4_lrc1e-3/650932a4c96e02f0afcc120cab6b741f416c7ae8_ligand_9.pdbqt
 14 15 0 0 0
SMALL
GASTEIGER

@<TRIPOS>ATOM
      1  C          5.3820   -0.1760    1.9360 C.3     1  UNL1        0.0800
      2  C          5.3030    1.0410    1.0800 C.2     1  UNL1        0.1300
      3  C          5.9470    1.0960   -0.2600 C.3     1  UNL1        0.0870
      4  O          4.7050    2.0350    1.4580 O.2     1  UNL1       -0.3000
      5  C          6.1650   -1.2800    1.2530 C.3     1  UNL1        0.0430
      6  C          7.4060   -1.6000    1.9800 C.2     1  UNL1       -0.0440
      7  C          8.4300   -2.3490    1.3880 C.2     1  UNL1        0.0080
      8  C          7.5740   -1.1550    3.2720 C.2     1  UNL1        0.0540
      9  C          9.5730   -2.6180    2.1190 C.2     1  UNL1        0.0510
     10  C          8.7320   -1.4290    4.0060 C.2     1  UNL1        0.1660
     11  C          9.7390   -2.1670    3.4250 C.2     1  UNL1        0.1650
     12  O          9.1320   -1.1060    5.2850 O.2     1  UNL1       -0.4540
     13  O         10.7480   -2.2810    4.3690 O.2     1  UNL1       -0.4540
     14  C         10.4430   -1.5460    5.5300 C.3     1  UNL1        0.4680
@<TRIPOS>BOND
     1     3     2    1
     2     2     4    2
     3     2     1    1
     4     5     1    1
     5     5     6    1
     6     7     6    2
     7     7     9    1
     8     6     8    1
     9     9    11    2
    10     8    10    2
    11    11    10    1
    12    11    13    1
    13    10    12    1
    14    13    14    1
    15    12    14    1
