@<TRIPOS>MOLECULE
/home/cewinharhar/GITHUB/reincatalyze/data/processed/docking_pred/2023-May-22-2206_sub9_nm5_bs15_s42_ex16_mel10_mts10000_k50_ec02_g099_lra9e-4_lrc1e-3/650932a4c96e02f0afcc120cab6b741f416c7ae8_ligand_9.pdbqt
 14 15 0 0 0
SMALL
GASTEIGER

@<TRIPOS>ATOM
      1  C          5.6120   -0.1630    1.9430 C.3     1  UNL1        0.0800
      2  C          5.2700    1.0230    1.1090 C.2     1  UNL1        0.1300
      3  C          5.7160    1.1380   -0.3050 C.3     1  UNL1        0.0870
      4  O          4.6080    1.9410    1.5660 O.2     1  UNL1       -0.3000
      5  C          6.6080   -1.0620    1.2390 C.3     1  UNL1        0.0430
      6  C          7.6980   -1.4800    2.1390 C.2     1  UNL1       -0.0440
      7  C          7.6820   -1.1690    3.5030 C.2     1  UNL1        0.0080
      8  C          8.7610   -2.1960    1.6360 C.2     1  UNL1        0.0540
      9  C          8.7320   -1.5890    4.2990 C.2     1  UNL1        0.0510
     10  C          9.8200   -2.6180    2.4450 C.2     1  UNL1        0.1660
     11  C          9.8050   -2.3120    3.7880 C.2     1  UNL1        0.1650
     12  O         10.9730   -3.3300    2.1890 O.2     1  UNL1       -0.4540
     13  O         10.9610   -2.8480    4.3340 O.2     1  UNL1       -0.4540
     14  C         11.6850   -3.5800    3.3740 C.3     1  UNL1        0.4680
@<TRIPOS>BOND
     1     3     2    1
     2     2     4    2
     3     2     1    1
     4     5     1    1
     5     5     6    1
     6     8     6    2
     7     8    10    1
     8     6     7    1
     9    12    10    1
    10    12    14    1
    11    10    11    2
    12    14    13    1
    13     7     9    2
    14    11     9    1
    15    11    13    1
