MODEL 1
REMARK VINA RESULT:      -7.5      0.000      0.000
REMARK SMILES CC(=O)CCc1ccc2c(c1)OCO2
REMARK SMILES IDX 4 1 2 2 1 3 3 4 5 5 6 6 7 7 11 8 8 9 10 10 9 11 12 12 14 13
REMARK SMILES IDX 13 14
REMARK H PARENT
REMARK Flexibility Score: inf
ROOT
ATOM      1  C   UNL     1       5.612  -0.163   1.943  1.00  0.00     0.080 C 
ENDROOT
BRANCH   1   2
ATOM      2  C   UNL     1       5.270   1.023   1.109  1.00  0.00     0.130 C 
ATOM      3  C   UNL     1       5.716   1.138  -0.305  1.00  0.00     0.087 C 
ATOM      4  O   UNL     1       4.608   1.941   1.566  1.00  0.00    -0.300 OA
ENDBRANCH   1   2
BRANCH   1   5
ATOM      5  C   UNL     1       6.608  -1.062   1.239  1.00  0.00     0.043 C 
BRANCH   5   6
ATOM      6  C   UNL     1       7.698  -1.480   2.139  1.00  0.00    -0.044 A 
ATOM      7  C   UNL     1       7.682  -1.169   3.503  1.00  0.00     0.008 A 
ATOM      8  C   UNL     1       8.761  -2.196   1.636  1.00  0.00     0.054 A 
ATOM      9  C   UNL     1       8.732  -1.589   4.299  1.00  0.00     0.051 A 
ATOM     10  C   UNL     1       9.820  -2.618   2.445  1.00  0.00     0.166 A 
ATOM     11  C   UNL     1       9.805  -2.312   3.788  1.00  0.00     0.165 A 
ATOM     12  O   UNL     1      10.973  -3.330   2.189  1.00  0.00    -0.454 OA
ATOM     13  O   UNL     1      10.961  -2.848   4.334  1.00  0.00    -0.454 OA
ATOM     14  C   UNL     1      11.685  -3.580   3.374  1.00  0.00     0.468 C 
ENDBRANCH   5   6
ENDBRANCH   1   5
TORSDOF 3
ENDMDL
MODEL 2
REMARK VINA RESULT:      -7.4      3.908      4.901
REMARK SMILES CC(=O)CCc1ccc2c(c1)OCO2
REMARK SMILES IDX 4 1 2 2 1 3 3 4 5 5 6 6 7 7 11 8 8 9 10 10 9 11 12 12 14 13
REMARK SMILES IDX 13 14
REMARK H PARENT
REMARK Flexibility Score: inf
ROOT
ATOM      1  C   UNL     1       5.482   1.921   1.260  1.00  0.00     0.080 C 
ENDROOT
BRANCH   1   2
ATOM      2  C   UNL     1       4.975   0.722   1.983  1.00  0.00     0.130 C 
ATOM      3  C   UNL     1       5.771  -0.532   2.068  1.00  0.00     0.087 C 
ATOM      4  O   UNL     1       3.884   0.734   2.530  1.00  0.00    -0.300 OA
ENDBRANCH   1   2
BRANCH   1   5
ATOM      5  C   UNL     1       5.372   1.746  -0.242  1.00  0.00     0.043 C 
BRANCH   5   6
ATOM      6  C   UNL     1       6.545   1.048  -0.797  1.00  0.00    -0.044 A 
ATOM      7  C   UNL     1       7.849   1.481  -0.534  1.00  0.00     0.008 A 
ATOM      8  C   UNL     1       6.365  -0.061  -1.593  1.00  0.00     0.054 A 
ATOM      9  C   UNL     1       8.911   0.785  -1.083  1.00  0.00     0.051 A 
ATOM     10  C   UNL     1       7.442  -0.761  -2.145  1.00  0.00     0.166 A 
ATOM     11  C   UNL     1       8.725  -0.334  -1.887  1.00  0.00     0.165 A 
ATOM     12  O   UNL     1       7.523  -1.874  -2.955  1.00  0.00    -0.454 OA
ATOM     13  O   UNL     1       9.577  -1.203  -2.551  1.00  0.00    -0.454 OA
ATOM     14  C   UNL     1       8.860  -2.247  -3.166  1.00  0.00     0.468 C 
ENDBRANCH   5   6
ENDBRANCH   1   5
TORSDOF 3
ENDMDL
MODEL 3
REMARK VINA RESULT:      -7.1      3.146      4.289
REMARK SMILES CC(=O)CCc1ccc2c(c1)OCO2
REMARK SMILES IDX 4 1 2 2 1 3 3 4 5 5 6 6 7 7 11 8 8 9 10 10 9 11 12 12 14 13
REMARK SMILES IDX 13 14
REMARK H PARENT
REMARK Flexibility Score: inf
ROOT
ATOM      1  C   UNL     1       5.803   1.442  -0.420  1.00  0.00     0.080 C 
ENDROOT
BRANCH   1   2
ATOM      2  C   UNL     1       5.135   1.352   0.908  1.00  0.00     0.130 C 
ATOM      3  C   UNL     1       5.490   0.293   1.890  1.00  0.00     0.087 C 
ATOM      4  O   UNL     1       4.270   2.150   1.230  1.00  0.00    -0.300 OA
ENDBRANCH   1   2
BRANCH   1   5
ATOM      5  C   UNL     1       7.288   1.156  -0.310  1.00  0.00     0.043 C 
BRANCH   5   6
ATOM      6  C   UNL     1       7.639  -0.145  -0.908  1.00  0.00    -0.044 A 
ATOM      7  C   UNL     1       7.699  -0.322  -2.295  1.00  0.00     0.008 A 
ATOM      8  C   UNL     1       7.919  -1.217  -0.092  1.00  0.00     0.054 A 
ATOM      9  C   UNL     1       8.035  -1.565  -2.799  1.00  0.00     0.051 A 
ATOM     10  C   UNL     1       8.260  -2.472  -0.606  1.00  0.00     0.166 A 
ATOM     11  C   UNL     1       8.318  -2.648  -1.971  1.00  0.00     0.165 A 
ATOM     12  O   UNL     1       8.576  -3.676  -0.013  1.00  0.00    -0.454 OA
ATOM     13  O   UNL     1       8.673  -3.969  -2.190  1.00  0.00    -0.454 OA
ATOM     14  C   UNL     1       8.935  -4.633  -0.977  1.00  0.00     0.468 C 
ENDBRANCH   5   6
ENDBRANCH   1   5
TORSDOF 3
ENDMDL
MODEL 4
REMARK VINA RESULT:      -7.0      1.078      1.129
REMARK SMILES CC(=O)CCc1ccc2c(c1)OCO2
REMARK SMILES IDX 4 1 2 2 1 3 3 4 5 5 6 6 7 7 11 8 8 9 10 10 9 11 12 12 14 13
REMARK SMILES IDX 13 14
REMARK H PARENT
REMARK Flexibility Score: inf
ROOT
ATOM      1  C   UNL     1       6.509   0.586   1.313  1.00  0.00     0.080 C 
ENDROOT
BRANCH   1   2
ATOM      2  C   UNL     1       6.026   0.959  -0.046  1.00  0.00     0.130 C 
ATOM      3  C   UNL     1       5.140   2.134  -0.263  1.00  0.00     0.087 C 
ATOM      4  O   UNL     1       6.345   0.306  -1.026  1.00  0.00    -0.300 OA
ENDBRANCH   1   2
BRANCH   1   5
ATOM      5  C   UNL     1       6.455  -0.915   1.523  1.00  0.00     0.043 C 
BRANCH   5   6
ATOM      6  C   UNL     1       7.602  -1.398   2.312  1.00  0.00    -0.044 A 
ATOM      7  C   UNL     1       7.708  -1.141   3.684  1.00  0.00     0.008 A 
ATOM      8  C   UNL     1       8.597  -2.122   1.696  1.00  0.00     0.054 A 
ATOM      9  C   UNL     1       8.807  -1.621   4.373  1.00  0.00     0.051 A 
ATOM     10  C   UNL     1       9.706  -2.605   2.398  1.00  0.00     0.166 A 
ATOM     11  C   UNL     1       9.812  -2.352   3.747  1.00  0.00     0.165 A 
ATOM     12  O   UNL     1      10.811  -3.337   2.019  1.00  0.00    -0.454 OA
ATOM     13  O   UNL     1      10.992  -2.941   4.174  1.00  0.00    -0.454 OA
ATOM     14  C   UNL     1      11.611  -3.653   3.130  1.00  0.00     0.468 C 
ENDBRANCH   5   6
ENDBRANCH   1   5
TORSDOF 3
ENDMDL
MODEL 5
REMARK VINA RESULT:      -7.0      0.973      1.935
REMARK SMILES CC(=O)CCc1ccc2c(c1)OCO2
REMARK SMILES IDX 4 1 2 2 1 3 3 4 5 5 6 6 7 7 11 8 8 9 10 10 9 11 12 12 14 13
REMARK SMILES IDX 13 14
REMARK H PARENT
REMARK Flexibility Score: inf
ROOT
ATOM      1  C   UNL     1       5.382  -0.176   1.936  1.00  0.00     0.080 C 
ENDROOT
BRANCH   1   2
ATOM      2  C   UNL     1       5.303   1.041   1.080  1.00  0.00     0.130 C 
ATOM      3  C   UNL     1       5.947   1.096  -0.260  1.00  0.00     0.087 C 
ATOM      4  O   UNL     1       4.705   2.035   1.458  1.00  0.00    -0.300 OA
ENDBRANCH   1   2
BRANCH   1   5
ATOM      5  C   UNL     1       6.165  -1.280   1.253  1.00  0.00     0.043 C 
BRANCH   5   6
ATOM      6  C   UNL     1       7.406  -1.600   1.980  1.00  0.00    -0.044 A 
ATOM      7  C   UNL     1       8.430  -2.349   1.388  1.00  0.00     0.008 A 
ATOM      8  C   UNL     1       7.574  -1.155   3.272  1.00  0.00     0.054 A 
ATOM      9  C   UNL     1       9.573  -2.618   2.119  1.00  0.00     0.051 A 
ATOM     10  C   UNL     1       8.732  -1.429   4.006  1.00  0.00     0.166 A 
ATOM     11  C   UNL     1       9.739  -2.167   3.425  1.00  0.00     0.165 A 
ATOM     12  O   UNL     1       9.132  -1.106   5.285  1.00  0.00    -0.454 OA
ATOM     13  O   UNL     1      10.748  -2.281   4.369  1.00  0.00    -0.454 OA
ATOM     14  C   UNL     1      10.443  -1.546   5.530  1.00  0.00     0.468 C 
ENDBRANCH   5   6
ENDBRANCH   1   5
TORSDOF 3
ENDMDL
