@<TRIPOS>MOLECULE
/home/cewinharhar/GITHUB/reincatalyze/data/processed/docking_pred/2023-May-22-2206_sub9_nm5_bs15_s42_ex16_mel10_mts10000_k50_ec02_g099_lra9e-4_lrc1e-3/65610c622cc3bd86a4d466f03d6f61670904542e_ligand_9.pdbqt
 14 15 0 0 0
SMALL
GASTEIGER

@<TRIPOS>ATOM
      1  C          5.5330    1.9130    1.2710 C.3     1  UNL1        0.0800
      2  C          5.1200    0.6890    2.0140 C.2     1  UNL1        0.1300
      3  C          6.0320   -0.4750    2.1700 C.3     1  UNL1        0.0870
      4  O          4.0110    0.6070    2.5180 O.2     1  UNL1       -0.3000
      5  C          5.4020    1.7180   -0.2260 C.3     1  UNL1        0.0430
      6  C          6.5710    1.0190   -0.7910 C.2     1  UNL1       -0.0440
      7  C          7.8770    1.4530   -0.5380 C.2     1  UNL1        0.0080
      8  C          6.3850   -0.0890   -1.5850 C.2     1  UNL1        0.0540
      9  C          8.9350    0.7570   -1.0940 C.2     1  UNL1        0.0510
     10  C          7.4570   -0.7900   -2.1440 C.2     1  UNL1        0.1660
     11  C          8.7430   -0.3630   -1.8970 C.2     1  UNL1        0.1650
     12  O          7.5330   -1.9030   -2.9550 O.2     1  UNL1       -0.4540
     13  O          9.5900   -1.2320   -2.5670 O.2     1  UNL1       -0.4540
     14  C          8.8680   -2.2760   -3.1760 C.3     1  UNL1        0.4680
@<TRIPOS>BOND
     1    14    12    1
     2    14    13    1
     3    12    10    1
     4    13    11    1
     5    10    11    2
     6    10     8    1
     7    11     9    1
     8     8     6    2
     9     9     7    2
    10     6     7    1
    11     6     5    1
    12     5     1    1
    13     1     2    1
    14     2     3    1
    15     2     4    2
