@<TRIPOS>MOLECULE
/home/cewinharhar/GITHUB/reincatalyze/data/processed/docking_pred/2023-May-22-2206_sub9_nm5_bs15_s42_ex16_mel10_mts10000_k50_ec02_g099_lra9e-4_lrc1e-3/661305b30cebe31e235170a50c1781f21e405ac9_ligand_9.pdbqt
 14 15 0 0 0
SMALL
GASTEIGER

@<TRIPOS>ATOM
      1  C          6.3150    1.2520    0.8780 C.3     1  UNL1        0.0800
      2  C          5.6480    0.4120    1.9120 C.2     1  UNL1        0.1300
      3  C          6.2990   -0.8050    2.4670 C.3     1  UNL1        0.0870
      4  O          4.5410    0.7010    2.3360 O.2     1  UNL1       -0.3000
      5  C          5.8100    0.9180   -0.5120 C.3     1  UNL1        0.0430
      6  C          6.7880    0.1190   -1.2710 C.2     1  UNL1       -0.0440
      7  C          7.5240    0.6700   -2.3260 C.2     1  UNL1        0.0080
      8  C          6.9920   -1.2020   -0.9420 C.2     1  UNL1        0.0540
      9  C          8.4280   -0.1270   -3.0030 C.2     1  UNL1        0.0510
     10  C          7.9090   -2.0040   -1.6290 C.2     1  UNL1        0.1660
     11  C          8.6320   -1.4630   -2.6680 C.2     1  UNL1        0.1650
     12  O          8.2870   -3.3230   -1.4960 O.2     1  UNL1       -0.4540
     13  O          9.4490   -2.4710   -3.1560 O.2     1  UNL1       -0.4540
     14  C          9.3280   -3.6410   -2.3840 C.3     1  UNL1        0.4680
@<TRIPOS>BOND
     1    13    11    1
     2    13    14    1
     3     9    11    2
     4     9     7    1
     5    11    10    1
     6    14    12    1
     7     7     6    2
     8    10    12    1
     9    10     8    2
    10     6     8    1
    11     6     5    1
    12     5     1    1
    13     1     2    1
    14     2     4    2
    15     2     3    1
