@<TRIPOS>MOLECULE
/home/cewinharhar/GITHUB/reincatalyze/data/processed/docking_pred/2023-May-22-2206_sub9_nm5_bs15_s42_ex16_mel10_mts10000_k50_ec02_g099_lra9e-4_lrc1e-3/67714d3181cdcfbe83529be90e704c7fe5693ba3_ligand_9.pdbqt
 14 15 0 0 0
SMALL
GASTEIGER

@<TRIPOS>ATOM
      1  C          5.8510    1.1240   -0.2470 C.3     1  UNL1        0.0800
      2  C          5.7330    1.1550    1.2380 C.2     1  UNL1        0.1300
      3  C          5.2300   -0.0160    2.0060 C.3     1  UNL1        0.0870
      4  O          6.0470    2.1490    1.8710 O.2     1  UNL1       -0.3000
      5  C          7.3020    1.1100   -0.6830 C.3     1  UNL1        0.0430
      6  C          7.7130   -0.2180   -1.1710 C.2     1  UNL1       -0.0440
      7  C          7.9300   -0.4640   -2.5320 C.2     1  UNL1        0.0080
      8  C          7.8940   -1.2480   -0.2760 C.2     1  UNL1        0.0540
      9  C          8.3150   -1.7310   -2.9320 C.2     1  UNL1        0.0510
     10  C          8.2840   -2.5270   -0.6850 C.2     1  UNL1        0.1660
     11  C          8.4960   -2.7700   -2.0240 C.2     1  UNL1        0.1650
     12  O          8.5260   -3.6990   -0.0010 O.2     1  UNL1       -0.4540
     13  O          8.8690   -4.1010   -2.1350 O.2     1  UNL1       -0.4540
     14  C          8.9880   -4.7030   -0.8680 C.3     1  UNL1        0.4680
@<TRIPOS>BOND
     1     9     7    1
     2     9    11    2
     3     7     6    2
     4    13    11    1
     5    13    14    1
     6    11    10    1
     7     6     5    1
     8     6     8    1
     9    14    12    1
    10    10     8    2
    11    10    12    1
    12     5     1    1
    13     1     2    1
    14     2     4    2
    15     2     3    1
