@<TRIPOS>MOLECULE
/home/cewinharhar/GITHUB/reincatalyze/data/processed/docking_pred/2023-May-22-2206_sub9_nm5_bs15_s42_ex16_mel10_mts10000_k50_ec02_g099_lra9e-4_lrc1e-3/677496c5c46bc5e4ac1ff58ba47d0b72a83fedc5_ligand_9.pdbqt
 14 15 0 0 0
SMALL
GASTEIGER

@<TRIPOS>ATOM
      1  C          5.5530    1.9010    1.2900 C.3     1  UNL1        0.0800
      2  C          5.1210    0.6780    2.0220 C.2     1  UNL1        0.1300
      3  C          6.0250   -0.4910    2.1920 C.3     1  UNL1        0.0870
      4  O          4.0030    0.6000    2.5060 O.2     1  UNL1       -0.3000
      5  C          5.4200    1.7220   -0.2090 C.3     1  UNL1        0.0430
      6  C          6.5830    1.0210   -0.7810 C.2     1  UNL1       -0.0440
      7  C          7.8920    1.4510   -0.5360 C.2     1  UNL1        0.0080
      8  C          6.3890   -0.0870   -1.5760 C.2     1  UNL1        0.0540
      9  C          8.9440    0.7530   -1.0990 C.2     1  UNL1        0.0510
     10  C          7.4560   -0.7890   -2.1420 C.2     1  UNL1        0.1660
     11  C          8.7450   -0.3660   -1.9020 C.2     1  UNL1        0.1650
     12  O          7.5240   -1.9010   -2.9540 O.2     1  UNL1       -0.4540
     13  O          9.5850   -1.2360   -2.5780 O.2     1  UNL1       -0.4540
     14  C          8.8570   -2.2780   -3.1840 C.3     1  UNL1        0.4680
@<TRIPOS>BOND
     1    14    12    1
     2    14    13    1
     3    12    10    1
     4    13    11    1
     5    10    11    2
     6    10     8    1
     7    11     9    1
     8     8     6    2
     9     9     7    2
    10     6     7    1
    11     6     5    1
    12     5     1    1
    13     1     2    1
    14     2     3    1
    15     2     4    2
