@<TRIPOS>MOLECULE
/home/cewinharhar/GITHUB/reincatalyze/data/processed/docking_pred/2023-May-22-2206_sub9_nm5_bs15_s42_ex16_mel10_mts10000_k50_ec02_g099_lra9e-4_lrc1e-3/677496c5c46bc5e4ac1ff58ba47d0b72a83fedc5_ligand_9.pdbqt
 14 15 0 0 0
SMALL
GASTEIGER

@<TRIPOS>ATOM
      1  C          5.4510   -0.0280    2.0320 C.3     1  UNL1        0.0800
      2  C          4.5730    1.1480    1.7750 C.2     1  UNL1        0.1300
      3  C          4.8890    2.1410    0.7140 C.3     1  UNL1        0.0870
      4  O          3.5610    1.3300    2.4330 O.2     1  UNL1       -0.3000
      5  C          6.8720    0.2370    1.5770 C.3     1  UNL1        0.0430
      6  C          7.2950   -0.7060    0.5270 C.2     1  UNL1       -0.0440
      7  C          7.1710   -0.3940   -0.8320 C.2     1  UNL1        0.0080
      8  C          7.8280   -1.9250    0.8790 C.2     1  UNL1        0.0540
      9  C          7.5850   -1.3190   -1.7730 C.2     1  UNL1        0.0510
     10  C          8.2460   -2.8560   -0.0760 C.2     1  UNL1        0.1660
     11  C          8.1230   -2.5510   -1.4140 C.2     1  UNL1        0.1650
     12  O          8.7980   -4.1160    0.0180 O.2     1  UNL1       -0.4540
     13  O          8.6080   -3.6400   -2.1200 O.2     1  UNL1       -0.4540
     14  C          9.1300   -4.6170   -1.2520 C.3     1  UNL1        0.4680
@<TRIPOS>BOND
     1    13    11    1
     2    13    14    1
     3     9    11    2
     4     9     7    1
     5    11    10    1
     6    14    12    1
     7     7     6    2
     8    10    12    1
     9    10     8    2
    10     6     8    1
    11     6     5    1
    12     3     2    1
    13     5     1    1
    14     2     1    1
    15     2     4    2
