@<TRIPOS>MOLECULE
/home/cewinharhar/GITHUB/reincatalyze/data/processed/docking_pred/2023-May-22-2206_sub9_nm5_bs15_s42_ex16_mel10_mts10000_k50_ec02_g099_lra9e-4_lrc1e-3/677496c5c46bc5e4ac1ff58ba47d0b72a83fedc5_ligand_9.pdbqt
 14 15 0 0 0
SMALL
GASTEIGER

@<TRIPOS>ATOM
      1  C          5.7620    1.4150   -0.3040 C.3     1  UNL1        0.0800
      2  C          5.0910    1.3120    1.0220 C.2     1  UNL1        0.1300
      3  C          5.4030    0.2110    1.9720 C.3     1  UNL1        0.0870
      4  O          4.2600    2.1350    1.3690 O.2     1  UNL1       -0.3000
      5  C          7.2480    1.1370   -0.1920 C.3     1  UNL1        0.0430
      6  C          7.6120   -0.1500   -0.8100 C.2     1  UNL1       -0.0440
      7  C          7.6760   -0.3040   -2.1990 C.2     1  UNL1        0.0080
      8  C          7.9000   -1.2330   -0.0110 C.2     1  UNL1        0.0540
      9  C          8.0240   -1.5360   -2.7230 C.2     1  UNL1        0.0510
     10  C          8.2520   -2.4760   -0.5450 C.2     1  UNL1        0.1660
     11  C          8.3140   -2.6290   -1.9120 C.2     1  UNL1        0.1650
     12  O          8.5780   -3.6870    0.0290 O.2     1  UNL1       -0.4540
     13  O          8.6820   -3.9440   -2.1520 O.2     1  UNL1       -0.4540
     14  C          8.9470   -4.6250   -0.9490 C.3     1  UNL1        0.4680
@<TRIPOS>BOND
     1     9     7    1
     2     9    11    2
     3     7     6    2
     4    13    11    1
     5    13    14    1
     6    11    10    1
     7    14    12    1
     8     6     5    1
     9     6     8    1
    10    10     8    2
    11    10    12    1
    12     1     5    1
    13     1     2    1
    14     2     4    2
    15     2     3    1
