@<TRIPOS>MOLECULE
/home/cewinharhar/GITHUB/reincatalyze/data/processed/docking_pred/2023-May-22-2206_sub9_nm5_bs15_s42_ex16_mel10_mts10000_k50_ec02_g099_lra9e-4_lrc1e-3/67ebe37560d6b2ff0daae954040d2bc7ae74be81_ligand_9.pdbqt
 14 15 0 0 0
SMALL
GASTEIGER

@<TRIPOS>ATOM
      1  C          6.3860    1.1910    0.9200 C.3     1  UNL1        0.0800
      2  C          5.6670    0.3800    1.9420 C.2     1  UNL1        0.1300
      3  C          6.2660   -0.8500    2.5250 C.3     1  UNL1        0.0870
      4  O          4.5570    0.7040    2.3320 O.2     1  UNL1       -0.3000
      5  C          5.8700    0.9010   -0.4760 C.3     1  UNL1        0.0430
      6  C          6.8190    0.0820   -1.2500 C.2     1  UNL1       -0.0440
      7  C          7.5020    0.6000   -2.3560 C.2     1  UNL1        0.0080
      8  C          7.0480   -1.2250   -0.8850 C.2     1  UNL1        0.0540
      9  C          8.3810   -0.2160   -3.0450 C.2     1  UNL1        0.0510
     10  C          7.9380   -2.0460   -1.5840 C.2     1  UNL1        0.1660
     11  C          8.6100   -1.5370   -2.6730 C.2     1  UNL1        0.1650
     12  O          8.3320   -3.3570   -1.4230 O.2     1  UNL1       -0.4540
     13  O          9.4110   -2.5570   -3.1620 O.2     1  UNL1       -0.4540
     14  C          9.3340   -3.7000   -2.3450 C.3     1  UNL1        0.4680
@<TRIPOS>BOND
     1    13    11    1
     2    13    14    1
     3     9    11    2
     4     9     7    1
     5    11    10    1
     6     7     6    2
     7    14    12    1
     8    10    12    1
     9    10     8    2
    10     6     8    1
    11     6     5    1
    12     5     1    1
    13     1     2    1
    14     2     4    2
    15     2     3    1
