@<TRIPOS>MOLECULE
/home/cewinharhar/GITHUB/reincatalyze/data/processed/docking_pred/2023-May-22-2206_sub9_nm5_bs15_s42_ex16_mel10_mts10000_k50_ec02_g099_lra9e-4_lrc1e-3/67ebe37560d6b2ff0daae954040d2bc7ae74be81_ligand_9.pdbqt
 14 15 0 0 0
SMALL
GASTEIGER

@<TRIPOS>ATOM
      1  C          8.3220    0.1890   -2.6910 C.3     1  UNL1        0.0800
      2  C          8.0460   -1.2730   -2.7650 C.2     1  UNL1        0.1300
      3  C          9.1280   -2.2590   -3.0300 C.3     1  UNL1        0.0870
      4  O          6.9160   -1.7060   -2.6110 O.2     1  UNL1       -0.3000
      5  C          8.8510    0.5800   -1.3250 C.3     1  UNL1        0.0430
      6  C          7.8240    0.4310   -0.2780 C.2     1  UNL1       -0.0440
      7  C          7.9400   -0.5320    0.7310 C.2     1  UNL1        0.0080
      8  C          6.7220    1.2550   -0.2820 C.2     1  UNL1        0.0540
      9  C          6.9460   -0.6260    1.6870 C.2     1  UNL1        0.0510
     10  C          5.7190    1.1570    0.6880 C.2     1  UNL1        0.1660
     11  C          5.8320    0.2090    1.6800 C.2     1  UNL1        0.1650
     12  O          4.5440    1.8470    0.8980 O.2     1  UNL1       -0.4540
     13  O          4.7130    0.3390    2.4880 O.2     1  UNL1       -0.4540
     14  C          3.9160    1.4250    2.0810 C.3     1  UNL1        0.4680
@<TRIPOS>BOND
     1     3     2    1
     2     2     1    1
     3     2     4    2
     4     1     5    1
     5     5     6    1
     6     8     6    2
     7     8    10    1
     8     6     7    1
     9    10    12    1
    10    10    11    2
    11     7     9    2
    12    12    14    1
    13    11     9    1
    14    11    13    1
    15    14    13    1
