@<TRIPOS>MOLECULE
/home/cewinharhar/GITHUB/reincatalyze/data/processed/docking_pred/2023-May-22-2206_sub9_nm5_bs15_s42_ex16_mel10_mts10000_k50_ec02_g099_lra9e-4_lrc1e-3/681e80220216c71ec10eb1429598bf11558fcb24_ligand_9.pdbqt
 14 15 0 0 0
SMALL
GASTEIGER

@<TRIPOS>ATOM
      1  C          5.5290    1.9410    1.2500 C.3     1  UNL1        0.0800
      2  C          5.1130    0.7220    1.9990 C.2     1  UNL1        0.1300
      3  C          6.0340   -0.4310    2.1850 C.3     1  UNL1        0.0870
      4  O          3.9970    0.6350    2.4840 O.2     1  UNL1       -0.3000
      5  C          5.4030    1.7370   -0.2470 C.3     1  UNL1        0.0430
      6  C          6.5700    1.0280   -0.8020 C.2     1  UNL1       -0.0440
      7  C          7.8780    1.4510   -0.5380 C.2     1  UNL1        0.0080
      8  C          6.3810   -0.0780   -1.5990 C.2     1  UNL1        0.0540
      9  C          8.9340    0.7460   -1.0850 C.2     1  UNL1        0.0510
     10  C          7.4530   -0.7870   -2.1490 C.2     1  UNL1        0.1660
     11  C          8.7400   -0.3710   -1.8910 C.2     1  UNL1        0.1650
     12  O          7.5260   -1.9000   -2.9600 O.2     1  UNL1       -0.4540
     13  O          9.5850   -1.2470   -2.5540 O.2     1  UNL1       -0.4540
     14  C          8.8600   -2.2850   -3.1700 C.3     1  UNL1        0.4680
@<TRIPOS>BOND
     1    14    12    1
     2    14    13    1
     3    12    10    1
     4    13    11    1
     5    10    11    2
     6    10     8    1
     7    11     9    1
     8     8     6    2
     9     9     7    2
    10     6     7    1
    11     6     5    1
    12     5     1    1
    13     1     2    1
    14     2     3    1
    15     2     4    2
