@<TRIPOS>MOLECULE
/home/cewinharhar/GITHUB/reincatalyze/data/processed/docking_pred/2023-May-22-2206_sub9_nm5_bs15_s42_ex16_mel10_mts10000_k50_ec02_g099_lra9e-4_lrc1e-3/681e80220216c71ec10eb1429598bf11558fcb24_ligand_9.pdbqt
 14 15 0 0 0
SMALL
GASTEIGER

@<TRIPOS>ATOM
      1  C          5.7320    1.2240   -0.3070 C.3     1  UNL1        0.0800
      2  C          5.2030    1.1940    1.0850 C.2     1  UNL1        0.1300
      3  C          5.3830    0.0070    1.9630 C.3     1  UNL1        0.0870
      4  O          4.6020    2.1500    1.5470 O.2     1  UNL1       -0.3000
      5  C          7.2390    1.0550   -0.3270 C.3     1  UNL1        0.0430
      6  C          7.6360   -0.2350   -0.9180 C.2     1  UNL1       -0.0440
      7  C          7.7260   -0.4100   -2.3040 C.2     1  UNL1        0.0080
      8  C          7.9300   -1.3000   -0.0970 C.2     1  UNL1        0.0540
      9  C          8.1040   -1.6440   -2.8010 C.2     1  UNL1        0.0510
     10  C          8.3130   -2.5450   -0.6050 C.2     1  UNL1        0.1660
     11  C          8.4000   -2.7190   -1.9680 C.2     1  UNL1        0.1650
     12  O          8.6510   -3.7400   -0.0060 O.2     1  UNL1       -0.4540
     13  O          8.7960   -4.0300   -2.1800 O.2     1  UNL1       -0.4540
     14  C          9.0540   -4.6870   -0.9620 C.3     1  UNL1        0.4680
@<TRIPOS>BOND
     1     9     7    1
     2     9    11    2
     3     7     6    2
     4    13    11    1
     5    13    14    1
     6    11    10    1
     7    14    12    1
     8     6     5    1
     9     6     8    1
    10    10     8    2
    11    10    12    1
    12     5     1    1
    13     1     2    1
    14     2     4    2
    15     2     3    1
