@<TRIPOS>MOLECULE
/home/cewinharhar/GITHUB/reincatalyze/data/processed/docking_pred/2023-May-22-2206_sub9_nm5_bs15_s42_ex16_mel10_mts10000_k50_ec02_g099_lra9e-4_lrc1e-3/6b061a7890d75c8b26c884693b3b8f9ee5a9c423_ligand_9.pdbqt
 14 15 0 0 0
SMALL
GASTEIGER

@<TRIPOS>ATOM
      1  C          8.3510    0.1950   -2.6360 C.3     1  UNL1        0.0800
      2  C          8.0640   -1.2620   -2.7500 C.2     1  UNL1        0.1300
      3  C          9.1380   -2.2490   -3.0410 C.3     1  UNL1        0.0870
      4  O          6.9300   -1.6910   -2.6070 O.2     1  UNL1       -0.3000
      5  C          8.8700    0.5470   -1.2560 C.3     1  UNL1        0.0430
      6  C          7.8240    0.4080   -0.2270 C.2     1  UNL1       -0.0440
      7  C          7.9100   -0.5610    0.7790 C.2     1  UNL1        0.0080
      8  C          6.7340    1.2480   -0.2440 C.2     1  UNL1        0.0540
      9  C          6.8980   -0.6450    1.7190 C.2     1  UNL1        0.0510
     10  C          5.7140    1.1600    0.7080 C.2     1  UNL1        0.1660
     11  C          5.7970    0.2060    1.6980 C.2     1  UNL1        0.1650
     12  O          4.5460    1.8660    0.9030 O.2     1  UNL1       -0.4540
     13  O          4.6670    0.3480    2.4880 O.2     1  UNL1       -0.4540
     14  C          3.8920    1.4480    2.0730 C.3     1  UNL1        0.4680
@<TRIPOS>BOND
     1     3     2    1
     2     2     1    1
     3     2     4    2
     4     1     5    1
     5     5     6    1
     6     8     6    2
     7     8    10    1
     8     6     7    1
     9    10    12    1
    10    10    11    2
    11     7     9    2
    12    12    14    1
    13    11     9    1
    14    11    13    1
    15    14    13    1
