MODEL 1
REMARK VINA RESULT:      -7.7      0.000      0.000
REMARK SMILES CC(=O)CCc1ccc2c(c1)OCO2
REMARK SMILES IDX 4 1 2 2 1 3 3 4 5 5 6 6 7 7 11 8 8 9 10 10 9 11 12 12 14 13
REMARK SMILES IDX 13 14
REMARK H PARENT
REMARK Flexibility Score: inf
ROOT
ATOM      1  C   UNL     1       5.509   1.926   1.249  1.00  0.00     0.080 C 
ENDROOT
BRANCH   1   2
ATOM      2  C   UNL     1       5.026   0.727   1.990  1.00  0.00     0.130 C 
ATOM      3  C   UNL     1       5.856  -0.500   2.116  1.00  0.00     0.087 C 
ATOM      4  O   UNL     1       3.925   0.718   2.518  1.00  0.00    -0.300 OA
ENDBRANCH   1   2
BRANCH   1   5
ATOM      5  C   UNL     1       5.390   1.731  -0.249  1.00  0.00     0.043 C 
BRANCH   5   6
ATOM      6  C   UNL     1       6.562   1.030  -0.804  1.00  0.00    -0.044 A 
ATOM      7  C   UNL     1       7.867   1.460  -0.540  1.00  0.00     0.008 A 
ATOM      8  C   UNL     1       6.379  -0.078  -1.600  1.00  0.00     0.054 A 
ATOM      9  C   UNL     1       8.928   0.762  -1.087  1.00  0.00     0.051 A 
ATOM     10  C   UNL     1       7.455  -0.781  -2.151  1.00  0.00     0.166 A 
ATOM     11  C   UNL     1       8.740  -0.358  -1.893  1.00  0.00     0.165 A 
ATOM     12  O   UNL     1       7.534  -1.894  -2.962  1.00  0.00    -0.454 OA
ATOM     13  O   UNL     1       9.590  -1.229  -2.556  1.00  0.00    -0.454 OA
ATOM     14  C   UNL     1       8.871  -2.271  -3.171  1.00  0.00     0.468 C 
ENDBRANCH   5   6
ENDBRANCH   1   5
TORSDOF 3
ENDMDL
MODEL 2
REMARK VINA RESULT:      -7.5      1.903      2.371
REMARK SMILES CC(=O)CCc1ccc2c(c1)OCO2
REMARK SMILES IDX 4 1 2 2 1 3 3 4 5 5 6 6 7 7 11 8 8 9 10 10 9 11 12 12 14 13
REMARK SMILES IDX 13 14
REMARK H PARENT
REMARK Flexibility Score: inf
ROOT
ATOM      1  C   UNL     1       5.784   1.414  -0.355  1.00  0.00     0.080 C 
ENDROOT
BRANCH   1   2
ATOM      2  C   UNL     1       5.176   1.329   1.003  1.00  0.00     0.130 C 
ATOM      3  C   UNL     1       5.544   0.249   1.957  1.00  0.00     0.087 C 
ATOM      4  O   UNL     1       4.352   2.150   1.372  1.00  0.00    -0.300 OA
ENDBRANCH   1   2
BRANCH   1   5
ATOM      5  C   UNL     1       7.279   1.168  -0.304  1.00  0.00     0.043 C 
BRANCH   5   6
ATOM      6  C   UNL     1       7.641  -0.129  -0.903  1.00  0.00    -0.044 A 
ATOM      7  C   UNL     1       7.701  -0.304  -2.291  1.00  0.00     0.008 A 
ATOM      8  C   UNL     1       7.930  -1.200  -0.089  1.00  0.00     0.054 A 
ATOM      9  C   UNL     1       8.047  -1.544  -2.796  1.00  0.00     0.051 A 
ATOM     10  C   UNL     1       8.280  -2.451  -0.605  1.00  0.00     0.166 A 
ATOM     11  C   UNL     1       8.338  -2.625  -1.969  1.00  0.00     0.165 A 
ATOM     12  O   UNL     1       8.607  -3.653  -0.014  1.00  0.00    -0.454 OA
ATOM     13  O   UNL     1       8.705  -3.943  -2.191  1.00  0.00    -0.454 OA
ATOM     14  C   UNL     1       8.973  -4.606  -0.978  1.00  0.00     0.468 C 
ENDBRANCH   5   6
ENDBRANCH   1   5
TORSDOF 3
ENDMDL
MODEL 3
REMARK VINA RESULT:      -7.2      2.102      2.625
REMARK SMILES CC(=O)CCc1ccc2c(c1)OCO2
REMARK SMILES IDX 4 1 2 2 1 3 3 4 5 5 6 6 7 7 11 8 8 9 10 10 9 11 12 12 14 13
REMARK SMILES IDX 13 14
REMARK H PARENT
REMARK Flexibility Score: inf
ROOT
ATOM      1  C   UNL     1       5.620   0.003   1.970  1.00  0.00     0.080 C 
ENDROOT
BRANCH   1   2
ATOM      2  C   UNL     1       4.695   1.126   1.652  1.00  0.00     0.130 C 
ATOM      3  C   UNL     1       4.950   2.050   0.515  1.00  0.00     0.087 C 
ATOM      4  O   UNL     1       3.693   1.322   2.322  1.00  0.00    -0.300 OA
ENDBRANCH   1   2
BRANCH   1   5
ATOM      5  C   UNL     1       7.016   0.275   1.447  1.00  0.00     0.043 C 
BRANCH   5   6
ATOM      6  C   UNL     1       7.411  -0.698   0.413  1.00  0.00    -0.044 A 
ATOM      7  C   UNL     1       7.294  -0.406  -0.951  1.00  0.00     0.008 A 
ATOM      8  C   UNL     1       7.912  -1.925   0.786  1.00  0.00     0.054 A 
ATOM      9  C   UNL     1       7.681  -1.358  -1.877  1.00  0.00     0.051 A 
ATOM     10  C   UNL     1       8.303  -2.883  -0.154  1.00  0.00     0.166 A 
ATOM     11  C   UNL     1       8.186  -2.598  -1.496  1.00  0.00     0.165 A 
ATOM     12  O   UNL     1       8.821  -4.156  -0.039  1.00  0.00    -0.454 OA
ATOM     13  O   UNL     1       8.641  -3.712  -2.184  1.00  0.00    -0.454 OA
ATOM     14  C   UNL     1       9.137  -4.688  -1.299  1.00  0.00     0.468 C 
ENDBRANCH   5   6
ENDBRANCH   1   5
TORSDOF 3
ENDMDL
MODEL 4
REMARK VINA RESULT:      -7.1      1.248      1.445
REMARK SMILES CC(=O)CCc1ccc2c(c1)OCO2
REMARK SMILES IDX 4 1 2 2 1 3 3 4 5 5 6 6 7 7 11 8 8 9 10 10 9 11 12 12 14 13
REMARK SMILES IDX 13 14
REMARK H PARENT
REMARK Flexibility Score: inf
ROOT
ATOM      1  C   UNL     1       6.329   1.257   0.901  1.00  0.00     0.080 C 
ENDROOT
BRANCH   1   2
ATOM      2  C   UNL     1       5.639   0.425   1.926  1.00  0.00     0.130 C 
ATOM      3  C   UNL     1       6.279  -0.784   2.510  1.00  0.00     0.087 C 
ATOM      4  O   UNL     1       4.520   0.714   2.318  1.00  0.00    -0.300 OA
ENDBRANCH   1   2
BRANCH   1   5
ATOM      5  C   UNL     1       5.819   0.949  -0.492  1.00  0.00     0.043 C 
BRANCH   5   6
ATOM      6  C   UNL     1       6.777   0.131  -1.257  1.00  0.00    -0.044 A 
ATOM      7  C   UNL     1       7.473   0.652  -2.354  1.00  0.00     0.008 A 
ATOM      8  C   UNL     1       7.003  -1.176  -0.891  1.00  0.00     0.054 A 
ATOM      9  C   UNL     1       8.361  -0.163  -3.034  1.00  0.00     0.051 A 
ATOM     10  C   UNL     1       7.902  -1.995  -1.580  1.00  0.00     0.166 A 
ATOM     11  C   UNL     1       8.587  -1.484  -2.661  1.00  0.00     0.165 A 
ATOM     12  O   UNL     1       8.295  -3.306  -1.416  1.00  0.00    -0.454 OA
ATOM     13  O   UNL     1       9.395  -2.503  -3.142  1.00  0.00    -0.454 OA
ATOM     14  C   UNL     1       9.309  -3.647  -2.327  1.00  0.00     0.468 C 
ENDBRANCH   5   6
ENDBRANCH   1   5
TORSDOF 3
ENDMDL
MODEL 5
REMARK VINA RESULT:      -6.8      1.191      5.188
REMARK SMILES CC(=O)CCc1ccc2c(c1)OCO2
REMARK SMILES IDX 4 1 2 2 1 3 3 4 5 5 6 6 7 7 11 8 8 9 10 10 9 11 12 12 14 13
REMARK SMILES IDX 13 14
REMARK H PARENT
REMARK Flexibility Score: inf
ROOT
ATOM      1  C   UNL     1       8.351   0.195  -2.636  1.00  0.00     0.080 C 
ENDROOT
BRANCH   1   2
ATOM      2  C   UNL     1       8.064  -1.262  -2.750  1.00  0.00     0.130 C 
ATOM      3  C   UNL     1       9.138  -2.249  -3.041  1.00  0.00     0.087 C 
ATOM      4  O   UNL     1       6.930  -1.691  -2.607  1.00  0.00    -0.300 OA
ENDBRANCH   1   2
BRANCH   1   5
ATOM      5  C   UNL     1       8.870   0.547  -1.256  1.00  0.00     0.043 C 
BRANCH   5   6
ATOM      6  C   UNL     1       7.824   0.408  -0.227  1.00  0.00    -0.044 A 
ATOM      7  C   UNL     1       7.910  -0.561   0.779  1.00  0.00     0.008 A 
ATOM      8  C   UNL     1       6.734   1.248  -0.244  1.00  0.00     0.054 A 
ATOM      9  C   UNL     1       6.898  -0.645   1.719  1.00  0.00     0.051 A 
ATOM     10  C   UNL     1       5.714   1.160   0.708  1.00  0.00     0.166 A 
ATOM     11  C   UNL     1       5.797   0.206   1.698  1.00  0.00     0.165 A 
ATOM     12  O   UNL     1       4.546   1.866   0.903  1.00  0.00    -0.454 OA
ATOM     13  O   UNL     1       4.667   0.348   2.488  1.00  0.00    -0.454 OA
ATOM     14  C   UNL     1       3.892   1.448   2.073  1.00  0.00     0.468 C 
ENDBRANCH   5   6
ENDBRANCH   1   5
TORSDOF 3
ENDMDL
