@<TRIPOS>MOLECULE
/home/cewinharhar/GITHUB/reincatalyze/data/processed/docking_pred/2023-May-22-2206_sub9_nm5_bs15_s42_ex16_mel10_mts10000_k50_ec02_g099_lra9e-4_lrc1e-3/6b061a7890d75c8b26c884693b3b8f9ee5a9c423_ligand_9.pdbqt
 14 15 0 0 0
SMALL
GASTEIGER

@<TRIPOS>ATOM
      1  C          5.7840    1.4140   -0.3550 C.3     1  UNL1        0.0800
      2  C          5.1760    1.3290    1.0030 C.2     1  UNL1        0.1300
      3  C          5.5440    0.2490    1.9570 C.3     1  UNL1        0.0870
      4  O          4.3520    2.1500    1.3720 O.2     1  UNL1       -0.3000
      5  C          7.2790    1.1680   -0.3040 C.3     1  UNL1        0.0430
      6  C          7.6410   -0.1290   -0.9030 C.2     1  UNL1       -0.0440
      7  C          7.7010   -0.3040   -2.2910 C.2     1  UNL1        0.0080
      8  C          7.9300   -1.2000   -0.0890 C.2     1  UNL1        0.0540
      9  C          8.0470   -1.5440   -2.7960 C.2     1  UNL1        0.0510
     10  C          8.2800   -2.4510   -0.6050 C.2     1  UNL1        0.1660
     11  C          8.3380   -2.6250   -1.9690 C.2     1  UNL1        0.1650
     12  O          8.6070   -3.6530   -0.0140 O.2     1  UNL1       -0.4540
     13  O          8.7050   -3.9430   -2.1910 O.2     1  UNL1       -0.4540
     14  C          8.9730   -4.6060   -0.9780 C.3     1  UNL1        0.4680
@<TRIPOS>BOND
     1     9     7    1
     2     9    11    2
     3     7     6    2
     4    13    11    1
     5    13    14    1
     6    11    10    1
     7    14    12    1
     8     6     5    1
     9     6     8    1
    10    10     8    2
    11    10    12    1
    12     1     5    1
    13     1     2    1
    14     2     4    2
    15     2     3    1
