@<TRIPOS>MOLECULE
/home/cewinharhar/GITHUB/reincatalyze/data/processed/docking_pred/2023-May-22-2206_sub9_nm5_bs15_s42_ex16_mel10_mts10000_k50_ec02_g099_lra9e-4_lrc1e-3/6ceeb54199aca0c96a32aff90fdf9e1d9b8e1f8c_ligand_9.pdbqt
 14 15 0 0 0
SMALL
GASTEIGER

@<TRIPOS>ATOM
      1  C          8.1310   -2.6270   -3.6210 C.3     1  UNL1        0.0800
      2  C          9.2630   -3.5650   -3.3780 C.2     1  UNL1        0.1300
      3  C          9.0390   -5.0210   -3.1730 C.3     1  UNL1        0.0870
      4  O         10.4140   -3.1620   -3.3410 O.2     1  UNL1       -0.3000
      5  C          8.4860   -1.2160   -3.1970 C.3     1  UNL1        0.0430
      6  C          7.7340   -0.8000   -1.9990 C.2     1  UNL1       -0.0440
      7  C          6.8920    0.3170   -2.0140 C.2     1  UNL1        0.0080
      8  C          7.8550   -1.5220   -0.8340 C.2     1  UNL1        0.0540
      9  C          6.2110    0.6600   -0.8600 C.2     1  UNL1        0.0510
     10  C          7.1640   -1.1720    0.3300 C.2     1  UNL1        0.1660
     11  C          6.3350   -0.0720    0.3170 C.2     1  UNL1        0.1650
     12  O          7.1160   -1.7190    1.5950 O.2     1  UNL1       -0.4540
     13  O          5.7900    0.0340    1.5870 O.2     1  UNL1       -0.4540
     14  C          6.1870   -1.0420    2.4030 C.3     1  UNL1        0.4680
@<TRIPOS>BOND
     1     1     2    1
     2     1     5    1
     3     2     4    2
     4     2     3    1
     5     5     6    1
     6     7     6    2
     7     7     9    1
     8     6     8    1
     9     9    11    2
    10     8    10    2
    11    11    10    1
    12    11    13    1
    13    10    12    1
    14    13    14    1
    15    12    14    1
