@<TRIPOS>MOLECULE
/home/cewinharhar/GITHUB/reincatalyze/data/processed/docking_pred/2023-May-22-2206_sub9_nm5_bs15_s42_ex16_mel10_mts10000_k50_ec02_g099_lra9e-4_lrc1e-3/6d158fe290fd5017d73aec191e5eef2bb245b649_ligand_9.pdbqt
 14 15 0 0 0
SMALL
GASTEIGER

@<TRIPOS>ATOM
      1  C          6.7460    0.8270    0.6970 C.3     1  UNL1        0.0800
      2  C          5.4360    1.5360    0.6760 C.2     1  UNL1        0.1300
      3  C          4.9010    2.1500   -0.5690 C.3     1  UNL1        0.0870
      4  O          4.7600    1.6350    1.6870 O.2     1  UNL1       -0.3000
      5  C          7.4520    0.9340   -0.6400 C.3     1  UNL1        0.0430
      6  C          7.8560   -0.3870   -1.1520 C.2     1  UNL1       -0.0440
      7  C          8.1110   -0.5990   -2.5120 C.2     1  UNL1        0.0080
      8  C          7.9930   -1.4440   -0.2810 C.2     1  UNL1        0.0540
      9  C          8.4880   -1.8610   -2.9350 C.2     1  UNL1        0.0510
     10  C          8.3750   -2.7170   -0.7130 C.2     1  UNL1        0.1660
     11  C          8.6240   -2.9280   -2.0510 C.2     1  UNL1        0.1650
     12  O          8.5760   -3.9120   -0.0550 O.2     1  UNL1       -0.4540
     13  O          8.9780   -4.2610   -2.1880 O.2     1  UNL1       -0.4540
     14  C          9.0480   -4.8990   -0.9360 C.3     1  UNL1        0.4680
@<TRIPOS>BOND
     1     9     7    1
     2     9    11    2
     3     7     6    2
     4    13    11    1
     5    13    14    1
     6    11    10    1
     7     6     5    1
     8     6     8    1
     9    14    12    1
    10    10     8    2
    11    10    12    1
    12     5     1    1
    13     3     2    1
    14     2     1    1
    15     2     4    2
