@<TRIPOS>MOLECULE
/home/cewinharhar/GITHUB/reincatalyze/data/processed/docking_pred/2023-May-22-2206_sub9_nm5_bs15_s42_ex16_mel10_mts10000_k50_ec02_g099_lra9e-4_lrc1e-3/6dc168e099aae66a1c19408847f7f9495b2b5216_ligand_9.pdbqt
 14 15 0 0 0
SMALL
GASTEIGER

@<TRIPOS>ATOM
      1  C          5.2960   -0.0780    1.9510 C.3     1  UNL1        0.0800
      2  C          4.4240    1.1180    1.7860 C.2     1  UNL1        0.1300
      3  C          4.7000    2.1500    0.7510 C.3     1  UNL1        0.0870
      4  O          3.4500    1.2870    2.5030 O.2     1  UNL1       -0.3000
      5  C          6.7630    0.2990    1.8980 C.3     1  UNL1        0.0430
      6  C          7.3720   -0.0550    0.6040 C.2     1  UNL1       -0.0440
      7  C          7.8600    0.9250   -0.2690 C.2     1  UNL1        0.0080
      8  C          7.4720   -1.3770    0.2350 C.2     1  UNL1        0.0540
      9  C          8.4220    0.5330   -1.4700 C.2     1  UNL1        0.0510
     10  C          8.0420   -1.7680   -0.9800 C.2     1  UNL1        0.1660
     11  C          8.5210   -0.8050   -1.8400 C.2     1  UNL1        0.1650
     12  O          8.2530   -2.9980   -1.5670 O.2     1  UNL1       -0.4540
     13  O          9.0220   -1.4700   -2.9480 O.2     1  UNL1       -0.4540
     14  C          8.9540   -2.8660   -2.7760 C.3     1  UNL1        0.4680
@<TRIPOS>BOND
     1    13    14    1
     2    13    11    1
     3    14    12    1
     4    11     9    2
     5    11    10    1
     6    12    10    1
     7     9     7    1
     8    10     8    2
     9     7     6    2
    10     8     6    1
    11     6     5    1
    12     3     2    1
    13     2     1    1
    14     2     4    2
    15     5     1    1
