@<TRIPOS>MOLECULE
/home/cewinharhar/GITHUB/reincatalyze/data/processed/docking_pred/2023-May-22-2206_sub9_nm5_bs15_s42_ex16_mel10_mts10000_k50_ec02_g099_lra9e-4_lrc1e-3/6e6a373552f8835a6ba7a6c6fa001d8bbefa4498_ligand_9.pdbqt
 14 15 0 0 0
SMALL
GASTEIGER

@<TRIPOS>ATOM
      1  C          6.3600    1.2230    0.9330 C.3     1  UNL1        0.0800
      2  C          5.6710    0.3800    1.9510 C.2     1  UNL1        0.1300
      3  C          6.3070   -0.8400    2.5140 C.3     1  UNL1        0.0870
      4  O          4.5560    0.6700    2.3530 O.2     1  UNL1       -0.3000
      5  C          5.8420    0.9340   -0.4620 C.3     1  UNL1        0.0430
      6  C          6.7900    0.1140   -1.2370 C.2     1  UNL1       -0.0440
      7  C          7.4670    0.6300   -2.3490 C.2     1  UNL1        0.0080
      8  C          7.0240   -1.1910   -0.8680 C.2     1  UNL1        0.0540
      9  C          8.3450   -0.1870   -3.0370 C.2     1  UNL1        0.0510
     10  C          7.9130   -2.0120   -1.5670 C.2     1  UNL1        0.1660
     11  C          8.5790   -1.5060   -2.6610 C.2     1  UNL1        0.1650
     12  O          8.3110   -3.3220   -1.4020 O.2     1  UNL1       -0.4540
     13  O          9.3810   -2.5260   -3.1490 O.2     1  UNL1       -0.4540
     14  C          9.3110   -3.6660   -2.3270 C.3     1  UNL1        0.4680
@<TRIPOS>BOND
     1    13    11    1
     2    13    14    1
     3     9    11    2
     4     9     7    1
     5    11    10    1
     6     7     6    2
     7    14    12    1
     8    10    12    1
     9    10     8    2
    10     6     8    1
    11     6     5    1
    12     5     1    1
    13     1     2    1
    14     2     4    2
    15     2     3    1
