@<TRIPOS>MOLECULE
/home/cewinharhar/GITHUB/reincatalyze/data/processed/docking_pred/2023-May-22-2206_sub9_nm5_bs15_s42_ex16_mel10_mts10000_k50_ec02_g099_lra9e-4_lrc1e-3/6e6a373552f8835a6ba7a6c6fa001d8bbefa4498_ligand_9.pdbqt
 14 15 0 0 0
SMALL
GASTEIGER

@<TRIPOS>ATOM
      1  C          5.5230    1.9200    1.2680 C.3     1  UNL1        0.0800
      2  C          5.0770    0.7040    2.0050 C.2     1  UNL1        0.1300
      3  C          5.9630   -0.4790    2.1670 C.3     1  UNL1        0.0870
      4  O          3.9630    0.6450    2.5000 O.2     1  UNL1       -0.3000
      5  C          5.3950    1.7340   -0.2300 C.3     1  UNL1        0.0430
      6  C          6.5620    1.0350   -0.7960 C.2     1  UNL1       -0.0440
      7  C          7.8680    1.4760   -0.5550 C.2     1  UNL1        0.0080
      8  C          6.3760   -0.0810   -1.5800 C.2     1  UNL1        0.0540
      9  C          8.9260    0.7800   -1.1120 C.2     1  UNL1        0.0510
     10  C          7.4480   -0.7820   -2.1400 C.2     1  UNL1        0.1660
     11  C          8.7340   -0.3480   -1.9040 C.2     1  UNL1        0.1650
     12  O          7.5230   -1.9010   -2.9420 O.2     1  UNL1       -0.4540
     13  O          9.5800   -1.2190   -2.5720 O.2     1  UNL1       -0.4540
     14  C          8.8590   -2.2710   -3.1680 C.3     1  UNL1        0.4680
@<TRIPOS>BOND
     1    14    12    1
     2    14    13    1
     3    12    10    1
     4    13    11    1
     5    10    11    2
     6    10     8    1
     7    11     9    1
     8     8     6    2
     9     9     7    2
    10     6     7    1
    11     6     5    1
    12     5     1    1
    13     1     2    1
    14     2     3    1
    15     2     4    2
