MODEL 1
REMARK VINA RESULT:      -7.7      0.000      0.000
REMARK SMILES CC(=O)CCc1ccc2c(c1)OCO2
REMARK SMILES IDX 4 1 2 2 1 3 3 4 5 5 6 6 7 7 11 8 8 9 10 10 9 11 12 12 14 13
REMARK SMILES IDX 13 14
REMARK H PARENT
REMARK Flexibility Score: inf
ROOT
ATOM      1  C   UNL     1       5.523   1.920   1.268  1.00  0.00     0.080 C 
ENDROOT
BRANCH   1   2
ATOM      2  C   UNL     1       5.077   0.704   2.005  1.00  0.00     0.130 C 
ATOM      3  C   UNL     1       5.963  -0.479   2.167  1.00  0.00     0.087 C 
ATOM      4  O   UNL     1       3.963   0.645   2.500  1.00  0.00    -0.300 OA
ENDBRANCH   1   2
BRANCH   1   5
ATOM      5  C   UNL     1       5.395   1.734  -0.230  1.00  0.00     0.043 C 
BRANCH   5   6
ATOM      6  C   UNL     1       6.562   1.035  -0.796  1.00  0.00    -0.044 A 
ATOM      7  C   UNL     1       7.868   1.476  -0.555  1.00  0.00     0.008 A 
ATOM      8  C   UNL     1       6.376  -0.081  -1.580  1.00  0.00     0.054 A 
ATOM      9  C   UNL     1       8.926   0.780  -1.112  1.00  0.00     0.051 A 
ATOM     10  C   UNL     1       7.448  -0.782  -2.140  1.00  0.00     0.166 A 
ATOM     11  C   UNL     1       8.734  -0.348  -1.904  1.00  0.00     0.165 A 
ATOM     12  O   UNL     1       7.523  -1.901  -2.942  1.00  0.00    -0.454 OA
ATOM     13  O   UNL     1       9.580  -1.219  -2.572  1.00  0.00    -0.454 OA
ATOM     14  C   UNL     1       8.859  -2.271  -3.168  1.00  0.00     0.468 C 
ENDBRANCH   5   6
ENDBRANCH   1   5
TORSDOF 3
ENDMDL
MODEL 2
REMARK VINA RESULT:      -7.4      1.936      2.421
REMARK SMILES CC(=O)CCc1ccc2c(c1)OCO2
REMARK SMILES IDX 4 1 2 2 1 3 3 4 5 5 6 6 7 7 11 8 8 9 10 10 9 11 12 12 14 13
REMARK SMILES IDX 13 14
REMARK H PARENT
REMARK Flexibility Score: inf
ROOT
ATOM      1  C   UNL     1       5.791   1.307  -0.285  1.00  0.00     0.080 C 
ENDROOT
BRANCH   1   2
ATOM      2  C   UNL     1       5.215   1.226   1.087  1.00  0.00     0.130 C 
ATOM      3  C   UNL     1       5.404   0.024   1.943  1.00  0.00     0.087 C 
ATOM      4  O   UNL     1       4.566   2.150   1.549  1.00  0.00    -0.300 OA
ENDBRANCH   1   2
BRANCH   1   5
ATOM      5  C   UNL     1       7.288   1.068  -0.268  1.00  0.00     0.043 C 
BRANCH   5   6
ATOM      6  C   UNL     1       7.642  -0.227  -0.876  1.00  0.00    -0.044 A 
ATOM      7  C   UNL     1       7.650  -0.407  -2.264  1.00  0.00     0.008 A 
ATOM      8  C   UNL     1       7.976  -1.291  -0.070  1.00  0.00     0.054 A 
ATOM      9  C   UNL     1       7.991  -1.645  -2.778  1.00  0.00     0.051 A 
ATOM     10  C   UNL     1       8.321  -2.540  -0.594  1.00  0.00     0.166 A 
ATOM     11  C   UNL     1       8.328  -2.718  -1.960  1.00  0.00     0.165 A 
ATOM     12  O   UNL     1       8.685  -3.736  -0.012  1.00  0.00    -0.454 OA
ATOM     13  O   UNL     1       8.702  -4.033  -2.190  1.00  0.00    -0.454 OA
ATOM     14  C   UNL     1       9.025  -4.688  -0.987  1.00  0.00     0.468 C 
ENDBRANCH   5   6
ENDBRANCH   1   5
TORSDOF 3
ENDMDL
MODEL 3
REMARK VINA RESULT:      -7.2      2.044      2.609
REMARK SMILES CC(=O)CCc1ccc2c(c1)OCO2
REMARK SMILES IDX 4 1 2 2 1 3 3 4 5 5 6 6 7 7 11 8 8 9 10 10 9 11 12 12 14 13
REMARK SMILES IDX 13 14
REMARK H PARENT
REMARK Flexibility Score: inf
ROOT
ATOM      1  C   UNL     1       5.464  -0.016   2.064  1.00  0.00     0.080 C 
ENDROOT
BRANCH   1   2
ATOM      2  C   UNL     1       4.567   1.138   1.777  1.00  0.00     0.130 C 
ATOM      3  C   UNL     1       4.875   2.118   0.701  1.00  0.00     0.087 C 
ATOM      4  O   UNL     1       3.547   1.315   2.423  1.00  0.00    -0.300 OA
ENDBRANCH   1   2
BRANCH   1   5
ATOM      5  C   UNL     1       6.879   0.257   1.595  1.00  0.00     0.043 C 
BRANCH   5   6
ATOM      6  C   UNL     1       7.293  -0.679   0.533  1.00  0.00    -0.044 A 
ATOM      7  C   UNL     1       7.163  -0.354  -0.822  1.00  0.00     0.008 A 
ATOM      8  C   UNL     1       7.822  -1.903   0.872  1.00  0.00     0.054 A 
ATOM      9  C   UNL     1       7.569  -1.271  -1.774  1.00  0.00     0.051 A 
ATOM     10  C   UNL     1       8.231  -2.827  -0.095  1.00  0.00     0.166 A 
ATOM     11  C   UNL     1       8.103  -2.509  -1.428  1.00  0.00     0.165 A 
ATOM     12  O   UNL     1       8.778  -4.090  -0.015  1.00  0.00    -0.454 OA
ATOM     13  O   UNL     1       8.580  -3.593  -2.147  1.00  0.00    -0.454 OA
ATOM     14  C   UNL     1       9.102  -4.581  -1.290  1.00  0.00     0.468 C 
ENDBRANCH   5   6
ENDBRANCH   1   5
TORSDOF 3
ENDMDL
MODEL 4
REMARK VINA RESULT:      -7.1      1.249      1.456
REMARK SMILES CC(=O)CCc1ccc2c(c1)OCO2
REMARK SMILES IDX 4 1 2 2 1 3 3 4 5 5 6 6 7 7 11 8 8 9 10 10 9 11 12 12 14 13
REMARK SMILES IDX 13 14
REMARK H PARENT
REMARK Flexibility Score: inf
ROOT
ATOM      1  C   UNL     1       6.360   1.223   0.933  1.00  0.00     0.080 C 
ENDROOT
BRANCH   1   2
ATOM      2  C   UNL     1       5.671   0.380   1.951  1.00  0.00     0.130 C 
ATOM      3  C   UNL     1       6.307  -0.840   2.514  1.00  0.00     0.087 C 
ATOM      4  O   UNL     1       4.556   0.670   2.353  1.00  0.00    -0.300 OA
ENDBRANCH   1   2
BRANCH   1   5
ATOM      5  C   UNL     1       5.842   0.934  -0.462  1.00  0.00     0.043 C 
BRANCH   5   6
ATOM      6  C   UNL     1       6.790   0.114  -1.237  1.00  0.00    -0.044 A 
ATOM      7  C   UNL     1       7.467   0.630  -2.349  1.00  0.00     0.008 A 
ATOM      8  C   UNL     1       7.024  -1.191  -0.868  1.00  0.00     0.054 A 
ATOM      9  C   UNL     1       8.345  -0.187  -3.037  1.00  0.00     0.051 A 
ATOM     10  C   UNL     1       7.913  -2.012  -1.567  1.00  0.00     0.166 A 
ATOM     11  C   UNL     1       8.579  -1.506  -2.661  1.00  0.00     0.165 A 
ATOM     12  O   UNL     1       8.311  -3.322  -1.402  1.00  0.00    -0.454 OA
ATOM     13  O   UNL     1       9.381  -2.526  -3.149  1.00  0.00    -0.454 OA
ATOM     14  C   UNL     1       9.311  -3.666  -2.327  1.00  0.00     0.468 C 
ENDBRANCH   5   6
ENDBRANCH   1   5
TORSDOF 3
ENDMDL
MODEL 5
REMARK VINA RESULT:      -7.0      1.942      2.509
REMARK SMILES CC(=O)CCc1ccc2c(c1)OCO2
REMARK SMILES IDX 4 1 2 2 1 3 3 4 5 5 6 6 7 7 11 8 8 9 10 10 9 11 12 12 14 13
REMARK SMILES IDX 13 14
REMARK H PARENT
REMARK Flexibility Score: inf
ROOT
ATOM      1  C   UNL     1       6.863   0.924   1.308  1.00  0.00     0.080 C 
ENDROOT
BRANCH   1   2
ATOM      2  C   UNL     1       5.403   1.148   1.497  1.00  0.00     0.130 C 
ATOM      3  C   UNL     1       4.656   2.150   0.690  1.00  0.00     0.087 C 
ATOM      4  O   UNL     1       4.773   0.511   2.326  1.00  0.00    -0.300 OA
ENDBRANCH   1   2
BRANCH   1   5
ATOM      5  C   UNL     1       7.262   1.091  -0.145  1.00  0.00     0.043 C 
BRANCH   5   6
ATOM      6  C   UNL     1       7.582  -0.201  -0.777  1.00  0.00    -0.044 A 
ATOM      7  C   UNL     1       7.524  -0.373  -2.165  1.00  0.00     0.008 A 
ATOM      8  C   UNL     1       7.950  -1.271   0.007  1.00  0.00     0.054 A 
ATOM      9  C   UNL     1       7.836  -1.609  -2.701  1.00  0.00     0.051 A 
ATOM     10  C   UNL     1       8.265  -2.518  -0.540  1.00  0.00     0.166 A 
ATOM     11  C   UNL     1       8.207  -2.689  -1.906  1.00  0.00     0.165 A 
ATOM     12  O   UNL     1       8.651  -3.719   0.017  1.00  0.00    -0.454 OA
ATOM     13  O   UNL     1       8.564  -4.004  -2.161  1.00  0.00    -0.454 OA
ATOM     14  C   UNL     1       8.941  -4.667  -0.978  1.00  0.00     0.468 C 
ENDBRANCH   5   6
ENDBRANCH   1   5
TORSDOF 3
ENDMDL
