@<TRIPOS>MOLECULE
/home/cewinharhar/GITHUB/reincatalyze/data/processed/docking_pred/2023-May-22-2206_sub9_nm5_bs15_s42_ex16_mel10_mts10000_k50_ec02_g099_lra9e-4_lrc1e-3/6eca206a948153dc2868ed9d680cd756ab453321_ligand_9.pdbqt
 14 15 0 0 0
SMALL
GASTEIGER

@<TRIPOS>ATOM
      1  C          6.3040    1.2790    0.8530 C.3     1  UNL1        0.0800
      2  C          5.6460    0.4310    1.8860 C.2     1  UNL1        0.1300
      3  C          6.3200   -0.7640    2.4600 C.3     1  UNL1        0.0870
      4  O          4.5260    0.6950    2.2930 O.2     1  UNL1       -0.3000
      5  C          5.8050    0.9400   -0.5370 C.3     1  UNL1        0.0430
      6  C          6.7830    0.1310   -1.2870 C.2     1  UNL1       -0.0440
      7  C          7.5230    0.6710   -2.3450 C.2     1  UNL1        0.0080
      8  C          6.9820   -1.1870   -0.9450 C.2     1  UNL1        0.0540
      9  C          8.4270   -0.1360   -3.0110 C.2     1  UNL1        0.0510
     10  C          7.8980   -1.9990   -1.6210 C.2     1  UNL1        0.1660
     11  C          8.6260   -1.4690   -2.6630 C.2     1  UNL1        0.1650
     12  O          8.2720   -3.3170   -1.4750 O.2     1  UNL1       -0.4540
     13  O          9.4420   -2.4830   -3.1390 O.2     1  UNL1       -0.4540
     14  C          9.3150   -3.6470   -2.3570 C.3     1  UNL1        0.4680
@<TRIPOS>BOND
     1    13    11    1
     2    13    14    1
     3     9    11    2
     4     9     7    1
     5    11    10    1
     6    14    12    1
     7     7     6    2
     8    10    12    1
     9    10     8    2
    10     6     8    1
    11     6     5    1
    12     5     1    1
    13     1     2    1
    14     2     4    2
    15     2     3    1
