@<TRIPOS>MOLECULE
/home/cewinharhar/GITHUB/reincatalyze/data/processed/docking_pred/2023-May-22-2206_sub9_nm5_bs15_s42_ex16_mel10_mts10000_k50_ec02_g099_lra9e-4_lrc1e-3/7076afde4386affa59e586c5ec9b2181426a643f_ligand_9.pdbqt
 14 15 0 0 0
SMALL
GASTEIGER

@<TRIPOS>ATOM
      1  C          5.6680    1.3080   -0.2690 C.3     1  UNL1        0.0800
      2  C          5.0920    1.2480    1.1040 C.2     1  UNL1        0.1300
      3  C          5.3960    0.1250    2.0290 C.3     1  UNL1        0.0870
      4  O          4.3490    2.1270    1.5100 O.2     1  UNL1       -0.3000
      5  C          7.1710    1.1130   -0.2440 C.3     1  UNL1        0.0430
      6  C          7.5670   -0.1610   -0.8710 C.2     1  UNL1       -0.0440
      7  C          7.6730   -0.2920   -2.2610 C.2     1  UNL1        0.0080
      8  C          7.8430   -1.2530   -0.0810 C.2     1  UNL1        0.0540
      9  C          8.0500   -1.5120   -2.7930 C.2     1  UNL1        0.0510
     10  C          8.2240   -2.4840   -0.6240 C.2     1  UNL1        0.1660
     11  C          8.3280   -2.6140   -1.9910 C.2     1  UNL1        0.1650
     12  O          8.5470   -3.7000   -0.0600 O.2     1  UNL1       -0.4540
     13  O          8.7170   -3.9210   -2.2400 O.2     1  UNL1       -0.4540
     14  C          8.9550   -4.6180   -1.0410 C.3     1  UNL1        0.4680
@<TRIPOS>BOND
     1     9     7    1
     2     9    11    2
     3     7     6    2
     4    13    11    1
     5    13    14    1
     6    11    10    1
     7    14    12    1
     8     6     5    1
     9     6     8    1
    10    10     8    2
    11    10    12    1
    12     1     5    1
    13     1     2    1
    14     2     4    2
    15     2     3    1
