@<TRIPOS>MOLECULE
/home/cewinharhar/GITHUB/reincatalyze/data/processed/docking_pred/2023-May-22-2206_sub9_nm5_bs15_s42_ex16_mel10_mts10000_k50_ec02_g099_lra9e-4_lrc1e-3/72c4800fcc396c08a923544a0defa9269110c5e0_ligand_9.pdbqt
 14 15 0 0 0
SMALL
GASTEIGER

@<TRIPOS>ATOM
      1  C          5.6210    0.0440    1.9160 C.3     1  UNL1        0.0800
      2  C          4.7190    1.1930    1.6200 C.2     1  UNL1        0.1300
      3  C          5.0090    2.1500    0.5190 C.3     1  UNL1        0.0870
      4  O          3.7090    1.3820    2.2790 O.2     1  UNL1       -0.3000
      5  C          7.0280    0.3080    1.4190 C.3     1  UNL1        0.0430
      6  C          7.4390   -0.6720    0.3970 C.2     1  UNL1       -0.0440
      7  C          7.3860   -0.3710   -0.9690 C.2     1  UNL1        0.0080
      8  C          7.8890   -1.9130    0.7840 C.2     1  UNL1        0.0540
      9  C          7.7850   -1.3300   -1.8830 C.2     1  UNL1        0.0510
     10  C          8.2920   -2.8790   -0.1440 C.2     1  UNL1        0.1660
     11  C          8.2390   -2.5840   -1.4880 C.2     1  UNL1        0.1650
     12  O          8.7700   -4.1650   -0.0130 O.2     1  UNL1       -0.4540
     13  O          8.6910   -3.7080   -2.1620 O.2     1  UNL1       -0.4540
     14  C          9.1230   -4.7010   -1.2630 C.3     1  UNL1        0.4680
@<TRIPOS>BOND
     1    13    11    1
     2    13    14    1
     3     9    11    2
     4     9     7    1
     5    11    10    1
     6    14    12    1
     7     7     6    2
     8    10    12    1
     9    10     8    2
    10     6     8    1
    11     6     5    1
    12     3     2    1
    13     5     1    1
    14     2     1    1
    15     2     4    2
