@<TRIPOS>MOLECULE
/home/cewinharhar/GITHUB/reincatalyze/data/processed/docking_pred/2023-May-22-2206_sub9_nm5_bs15_s42_ex16_mel10_mts10000_k50_ec02_g099_lra9e-4_lrc1e-3/73f03501d88ed0f960f592fe5f6124e73644cb01_ligand_9.pdbqt
 14 15 0 0 0
SMALL
GASTEIGER

@<TRIPOS>ATOM
      1  C          5.5420    1.9300    1.2620 C.3     1  UNL1        0.0800
      2  C          5.1130    0.7160    2.0100 C.2     1  UNL1        0.1300
      3  C          6.0220   -0.4460    2.1980 C.3     1  UNL1        0.0870
      4  O          3.9950    0.6390    2.4930 O.2     1  UNL1       -0.3000
      5  C          5.4080    1.7300   -0.2350 C.3     1  UNL1        0.0430
      6  C          6.5740    1.0270   -0.7990 C.2     1  UNL1       -0.0440
      7  C          7.8810    1.4590   -0.5500 C.2     1  UNL1        0.0080
      8  C          6.3840   -0.0840   -1.5890 C.2     1  UNL1        0.0540
      9  C          8.9370    0.7590   -1.1060 C.2     1  UNL1        0.0510
     10  C          7.4540   -0.7890   -2.1470 C.2     1  UNL1        0.1660
     11  C          8.7410   -0.3640   -1.9040 C.2     1  UNL1        0.1650
     12  O          7.5250   -1.9050   -2.9540 O.2     1  UNL1       -0.4540
     13  O          9.5850   -1.2370   -2.5720 O.2     1  UNL1       -0.4540
     14  C          8.8600   -2.2820   -3.1760 C.3     1  UNL1        0.4680
@<TRIPOS>BOND
     1    14    12    1
     2    14    13    1
     3    12    10    1
     4    13    11    1
     5    10    11    2
     6    10     8    1
     7    11     9    1
     8     8     6    2
     9     9     7    2
    10     6     7    1
    11     6     5    1
    12     5     1    1
    13     1     2    1
    14     2     3    1
    15     2     4    2
