@<TRIPOS>MOLECULE
/home/cewinharhar/GITHUB/reincatalyze/data/processed/docking_pred/2023-May-22-2206_sub9_nm5_bs15_s42_ex16_mel10_mts10000_k50_ec02_g099_lra9e-4_lrc1e-3/73f03501d88ed0f960f592fe5f6124e73644cb01_ligand_9.pdbqt
 14 15 0 0 0
SMALL
GASTEIGER

@<TRIPOS>ATOM
      1  C          5.7500    1.3910   -0.3120 C.3     1  UNL1        0.0800
      2  C          5.0970    1.2990    1.0230 C.2     1  UNL1        0.1300
      3  C          5.3890    0.1810    1.9600 C.3     1  UNL1        0.0870
      4  O          4.2960    2.1450    1.3890 O.2     1  UNL1       -0.3000
      5  C          7.2400    1.1300   -0.2150 C.3     1  UNL1        0.0430
      6  C          7.6100   -0.1590   -0.8260 C.2     1  UNL1       -0.0440
      7  C          7.6850   -0.3170   -2.2150 C.2     1  UNL1        0.0080
      8  C          7.8930   -1.2390   -0.0220 C.2     1  UNL1        0.0540
      9  C          8.0380   -1.5500   -2.7310 C.2     1  UNL1        0.0510
     10  C          8.2510   -2.4830   -0.5490 C.2     1  UNL1        0.1660
     11  C          8.3230   -2.6400   -1.9150 C.2     1  UNL1        0.1650
     12  O          8.5740   -3.6920    0.0310 O.2     1  UNL1       -0.4540
     13  O          8.6940   -3.9550   -2.1480 O.2     1  UNL1       -0.4540
     14  C          8.9520   -4.6330   -0.9410 C.3     1  UNL1        0.4680
@<TRIPOS>BOND
     1     9     7    1
     2     9    11    2
     3     7     6    2
     4    13    11    1
     5    13    14    1
     6    11    10    1
     7    14    12    1
     8     6     5    1
     9     6     8    1
    10    10     8    2
    11    10    12    1
    12     1     5    1
    13     1     2    1
    14     2     4    2
    15     2     3    1
