@<TRIPOS>MOLECULE
/home/cewinharhar/GITHUB/reincatalyze/data/processed/docking_pred/2023-May-22-2206_sub9_nm5_bs15_s42_ex16_mel10_mts10000_k50_ec02_g099_lra9e-4_lrc1e-3/7473f82790d6809f011fa27bf7bcba9a4b9bdb46_ligand_9.pdbqt
 14 15 0 0 0
SMALL
GASTEIGER

@<TRIPOS>ATOM
      1  C          5.5050   -0.0100    1.9890 C.3     1  UNL1        0.0800
      2  C          4.6300    1.1660    1.7220 C.2     1  UNL1        0.1300
      3  C          4.9470    2.1480    0.6510 C.3     1  UNL1        0.0870
      4  O          3.6200    1.3570    2.3790 O.2     1  UNL1       -0.3000
      5  C          6.9240    0.2430    1.5190 C.3     1  UNL1        0.0430
      6  C          7.3310   -0.7110    0.4720 C.2     1  UNL1       -0.0440
      7  C          7.1890   -0.4120   -0.8870 C.2     1  UNL1        0.0080
      8  C          7.8680   -1.9270    0.8290 C.2     1  UNL1        0.0540
      9  C          7.5890   -1.3460   -1.8250 C.2     1  UNL1        0.0510
     10  C          8.2720   -2.8680   -0.1230 C.2     1  UNL1        0.1660
     11  C          8.1310   -2.5750   -1.4610 C.2     1  UNL1        0.1650
     12  O          8.8240   -4.1270   -0.0240 O.2     1  UNL1       -0.4540
     13  O          8.6060   -3.6720   -2.1630 O.2     1  UNL1       -0.4540
     14  C          9.1390   -4.6410   -1.2930 C.3     1  UNL1        0.4680
@<TRIPOS>BOND
     1    13    11    1
     2    13    14    1
     3     9    11    2
     4     9     7    1
     5    11    10    1
     6    14    12    1
     7     7     6    2
     8    10    12    1
     9    10     8    2
    10     6     8    1
    11     6     5    1
    12     3     2    1
    13     5     1    1
    14     2     1    1
    15     2     4    2
