@<TRIPOS>MOLECULE
/home/cewinharhar/GITHUB/reincatalyze/data/processed/docking_pred/2023-May-22-2206_sub9_nm5_bs15_s42_ex16_mel10_mts10000_k50_ec02_g099_lra9e-4_lrc1e-3/777751631f294be45381376aa4be6161cfc72981_ligand_9.pdbqt
 14 15 0 0 0
SMALL
GASTEIGER

@<TRIPOS>ATOM
      1  C          5.3900   -0.0730    2.0290 C.3     1  UNL1        0.0800
      2  C          4.5450    1.1260    1.7730 C.2     1  UNL1        0.1300
      3  C          4.8910    2.1150    0.7170 C.3     1  UNL1        0.0870
      4  O          3.5360    1.3330    2.4280 O.2     1  UNL1       -0.3000
      5  C          6.8320    0.1740    1.6290 C.3     1  UNL1        0.0430
      6  C          7.2660   -0.7410    0.5590 C.2     1  UNL1       -0.0440
      7  C          7.1530   -0.3960   -0.7930 C.2     1  UNL1        0.0080
      8  C          7.8010   -1.9670    0.8850 C.2     1  UNL1        0.0540
      9  C          7.5780   -1.2950   -1.7530 C.2     1  UNL1        0.0510
     10  C          8.2300   -2.8720   -0.0900 C.2     1  UNL1        0.1660
     11  C          8.1170   -2.5340   -1.4200 C.2     1  UNL1        0.1650
     12  O          8.7860   -4.1320   -0.0230 O.2     1  UNL1       -0.4540
     13  O          8.6130   -3.6030   -2.1490 O.2     1  UNL1       -0.4540
     14  C          9.1310   -4.6000   -1.3010 C.3     1  UNL1        0.4680
@<TRIPOS>BOND
     1    13    11    1
     2    13    14    1
     3     9    11    2
     4     9     7    1
     5    11    10    1
     6    14    12    1
     7     7     6    2
     8    10    12    1
     9    10     8    2
    10     6     8    1
    11     6     5    1
    12     3     2    1
    13     5     1    1
    14     2     1    1
    15     2     4    2
