@<TRIPOS>MOLECULE
/home/cewinharhar/GITHUB/reincatalyze/data/processed/docking_pred/2023-May-22-2206_sub9_nm5_bs15_s42_ex16_mel10_mts10000_k50_ec02_g099_lra9e-4_lrc1e-3/777751631f294be45381376aa4be6161cfc72981_ligand_9.pdbqt
 14 15 0 0 0
SMALL
GASTEIGER

@<TRIPOS>ATOM
      1  C          6.9240    0.8530    1.1520 C.3     1  UNL1        0.0800
      2  C          5.4850    1.1070    1.4430 C.2     1  UNL1        0.1300
      3  C          4.7140    2.1490    0.7150 C.3     1  UNL1        0.0870
      4  O          4.8940    0.4610    2.2930 O.2     1  UNL1       -0.3000
      5  C          7.2160    0.9730   -0.3300 C.3     1  UNL1        0.0430
      6  C          7.6370   -0.3150   -0.9100 C.2     1  UNL1       -0.0440
      7  C          7.7790   -0.4850   -2.2920 C.2     1  UNL1        0.0080
      8  C          7.9020   -1.3820   -0.0820 C.2     1  UNL1        0.0540
      9  C          8.1780   -1.7160   -2.7790 C.2     1  UNL1        0.0510
     10  C          8.3060   -2.6240   -0.5800 C.2     1  UNL1        0.1660
     11  C          8.4450   -2.7930   -1.9400 C.2     1  UNL1        0.1650
     12  O          8.6240   -3.8210    0.0270 O.2     1  UNL1       -0.4540
     13  O          8.8500   -4.1030   -2.1420 O.2     1  UNL1       -0.4540
     14  C          9.0630   -4.7640   -0.9170 C.3     1  UNL1        0.4680
@<TRIPOS>BOND
     1     9     7    1
     2     9    11    2
     3     7     6    2
     4    13    11    1
     5    13    14    1
     6    11    10    1
     7    14    12    1
     8     6     5    1
     9     6     8    1
    10    10     8    2
    11    10    12    1
    12     5     1    1
    13     3     2    1
    14     1     2    1
    15     2     4    2
