@<TRIPOS>MOLECULE
/home/cewinharhar/GITHUB/reincatalyze/data/processed/docking_pred/2023-May-22-2206_sub9_nm5_bs15_s42_ex16_mel10_mts10000_k50_ec02_g099_lra9e-4_lrc1e-3/777751631f294be45381376aa4be6161cfc72981_ligand_9.pdbqt
 14 15 0 0 0
SMALL
GASTEIGER

@<TRIPOS>ATOM
      1  C          5.7280    1.3570   -0.1920 C.3     1  UNL1        0.0800
      2  C          5.0760    1.2340    1.1420 C.2     1  UNL1        0.1300
      3  C          5.3540    0.0840    2.0430 C.3     1  UNL1        0.0870
      4  O          4.2900    2.0800    1.5360 O.2     1  UNL1       -0.3000
      5  C          7.2180    1.0940   -0.1030 C.3     1  UNL1        0.0430
      6  C          7.5870   -0.1800   -0.7470 C.2     1  UNL1       -0.0440
      7  C          7.6330   -0.3110   -2.1390 C.2     1  UNL1        0.0080
      8  C          7.8980   -1.2720    0.0310 C.2     1  UNL1        0.0540
      9  C          7.9870   -1.5310   -2.6870 C.2     1  UNL1        0.0510
     10  C          8.2560   -2.5030   -0.5280 C.2     1  UNL1        0.1660
     11  C          8.3000   -2.6330   -1.8980 C.2     1  UNL1        0.1650
     12  O          8.6030   -3.7190    0.0220 O.2     1  UNL1       -0.4540
     13  O          8.6780   -3.9400   -2.1640 O.2     1  UNL1       -0.4540
     14  C          8.9680   -4.6370   -0.9760 C.3     1  UNL1        0.4680
@<TRIPOS>BOND
     1     9     7    1
     2     9    11    2
     3    13    11    1
     4    13    14    1
     5     7     6    2
     6    11    10    1
     7    14    12    1
     8     6     5    1
     9     6     8    1
    10    10    12    1
    11    10     8    2
    12     1     5    1
    13     1     2    1
    14     2     4    2
    15     2     3    1
