@<TRIPOS>MOLECULE
/home/cewinharhar/GITHUB/reincatalyze/data/processed/docking_pred/2023-May-22-2206_sub9_nm5_bs15_s42_ex16_mel10_mts10000_k50_ec02_g099_lra9e-4_lrc1e-3/777751631f294be45381376aa4be6161cfc72981_ligand_9.pdbqt
 14 15 0 0 0
SMALL
GASTEIGER

@<TRIPOS>ATOM
      1  C          6.3630    1.2240    0.8790 C.3     1  UNL1        0.0800
      2  C          5.6810    0.4120    1.9250 C.2     1  UNL1        0.1300
      3  C          6.3120   -0.8050    2.5040 C.3     1  UNL1        0.0870
      4  O          4.5770    0.7240    2.3400 O.2     1  UNL1       -0.3000
      5  C          5.8460    0.8850   -0.5050 C.3     1  UNL1        0.0430
      6  C          6.8100    0.0680   -1.2640 C.2     1  UNL1       -0.0440
      7  C          7.5160    0.5910   -2.3540 C.2     1  UNL1        0.0080
      8  C          7.0310   -1.2400   -0.8990 C.2     1  UNL1        0.0540
      9  C          8.4090   -0.2220   -3.0270 C.2     1  UNL1        0.0510
     10  C          7.9360   -2.0580   -1.5830 C.2     1  UNL1        0.1660
     11  C          8.6300   -1.5450   -2.6570 C.2     1  UNL1        0.1650
     12  O          8.3260   -3.3710   -1.4190 O.2     1  UNL1       -0.4540
     13  O          9.4410   -2.5630   -3.1330 O.2     1  UNL1       -0.4540
     14  C          9.3470   -3.7100   -2.3230 C.3     1  UNL1        0.4680
@<TRIPOS>BOND
     1    13    11    1
     2    13    14    1
     3     9    11    2
     4     9     7    1
     5    11    10    1
     6     7     6    2
     7    14    12    1
     8    10    12    1
     9    10     8    2
    10     6     8    1
    11     6     5    1
    12     5     1    1
    13     1     2    1
    14     2     4    2
    15     2     3    1
