@<TRIPOS>MOLECULE
/home/cewinharhar/GITHUB/reincatalyze/data/processed/docking_pred/2023-May-22-2206_sub9_nm5_bs15_s42_ex16_mel10_mts10000_k50_ec02_g099_lra9e-4_lrc1e-3/79495f175fd15f32955b26bb978cae7af324a937_ligand_9.pdbqt
 14 15 0 0 0
SMALL
GASTEIGER

@<TRIPOS>ATOM
      1  C          6.3770    1.1900    0.9490 C.3     1  UNL1        0.0800
      2  C          5.6490    0.3680    1.9560 C.2     1  UNL1        0.1300
      3  C          6.2490   -0.8610    2.5400 C.3     1  UNL1        0.0870
      4  O          4.5320    0.6820    2.3320 O.2     1  UNL1       -0.3000
      5  C          5.8650    0.9230   -0.4530 C.3     1  UNL1        0.0430
      6  C          6.8090    0.1020   -1.2320 C.2     1  UNL1       -0.0440
      7  C          7.4820    0.6170   -2.3460 C.2     1  UNL1        0.0080
      8  C          7.0440   -1.2020   -0.8620 C.2     1  UNL1        0.0540
      9  C          8.3570   -0.2010   -3.0380 C.2     1  UNL1        0.0510
     10  C          7.9310   -2.0240   -1.5650 C.2     1  UNL1        0.1660
     11  C          8.5920   -1.5190   -2.6620 C.2     1  UNL1        0.1650
     12  O          8.3290   -3.3340   -1.4000 O.2     1  UNL1       -0.4540
     13  O          9.3910   -2.5400   -3.1530 O.2     1  UNL1       -0.4540
     14  C          9.3240   -3.6790   -2.3290 C.3     1  UNL1        0.4680
@<TRIPOS>BOND
     1    13    11    1
     2    13    14    1
     3     9    11    2
     4     9     7    1
     5    11    10    1
     6     7     6    2
     7    14    12    1
     8    10    12    1
     9    10     8    2
    10     6     8    1
    11     6     5    1
    12     5     1    1
    13     1     2    1
    14     2     4    2
    15     2     3    1
