MODEL 1
REMARK VINA RESULT:      -7.7      0.000      0.000
REMARK SMILES CC(=O)CCc1ccc2c(c1)OCO2
REMARK SMILES IDX 4 1 2 2 1 3 3 4 5 5 6 6 7 7 11 8 8 9 10 10 9 11 12 12 14 13
REMARK SMILES IDX 13 14
REMARK H PARENT
REMARK Flexibility Score: inf
ROOT
ATOM      1  C   UNL     1       5.514   1.922   1.273  1.00  0.00     0.080 C 
ENDROOT
BRANCH   1   2
ATOM      2  C   UNL     1       5.056   0.707   2.003  1.00  0.00     0.130 C 
ATOM      3  C   UNL     1       5.925  -0.491   2.147  1.00  0.00     0.087 C 
ATOM      4  O   UNL     1       3.945   0.659   2.506  1.00  0.00    -0.300 OA
ENDBRANCH   1   2
BRANCH   1   5
ATOM      5  C   UNL     1       5.392   1.743  -0.227  1.00  0.00     0.043 C 
BRANCH   5   6
ATOM      6  C   UNL     1       6.559   1.041  -0.790  1.00  0.00    -0.044 A 
ATOM      7  C   UNL     1       7.866   1.477  -0.541  1.00  0.00     0.008 A 
ATOM      8  C   UNL     1       6.372  -0.071  -1.578  1.00  0.00     0.054 A 
ATOM      9  C   UNL     1       8.923   0.778  -1.096  1.00  0.00     0.051 A 
ATOM     10  C   UNL     1       7.444  -0.774  -2.136  1.00  0.00     0.166 A 
ATOM     11  C   UNL     1       8.730  -0.346  -1.893  1.00  0.00     0.165 A 
ATOM     12  O   UNL     1       7.518  -1.891  -2.942  1.00  0.00    -0.454 OA
ATOM     13  O   UNL     1       9.575  -1.218  -2.561  1.00  0.00    -0.454 OA
ATOM     14  C   UNL     1       8.853  -2.265  -3.163  1.00  0.00     0.468 C 
ENDBRANCH   5   6
ENDBRANCH   1   5
TORSDOF 3
ENDMDL
MODEL 2
REMARK VINA RESULT:      -7.4      1.884      2.345
REMARK SMILES CC(=O)CCc1ccc2c(c1)OCO2
REMARK SMILES IDX 4 1 2 2 1 3 3 4 5 5 6 6 7 7 11 8 8 9 10 10 9 11 12 12 14 13
REMARK SMILES IDX 13 14
REMARK H PARENT
REMARK Flexibility Score: inf
ROOT
ATOM      1  C   UNL     1       5.793   1.432  -0.256  1.00  0.00     0.080 C 
ENDROOT
BRANCH   1   2
ATOM      2  C   UNL     1       5.173   1.288   1.091  1.00  0.00     0.130 C 
ATOM      3  C   UNL     1       5.428   0.096   1.944  1.00  0.00     0.087 C 
ATOM      4  O   UNL     1       4.433   2.150   1.536  1.00  0.00    -0.300 OA
ENDBRANCH   1   2
BRANCH   1   5
ATOM      5  C   UNL     1       7.284   1.166  -0.207  1.00  0.00     0.043 C 
BRANCH   5   6
ATOM      6  C   UNL     1       7.631  -0.118  -0.843  1.00  0.00    -0.044 A 
ATOM      7  C   UNL     1       7.641  -0.268  -2.234  1.00  0.00     0.008 A 
ATOM      8  C   UNL     1       7.956  -1.202  -0.059  1.00  0.00     0.054 A 
ATOM      9  C   UNL     1       7.976  -1.496  -2.775  1.00  0.00     0.051 A 
ATOM     10  C   UNL     1       8.294  -2.441  -0.610  1.00  0.00     0.166 A 
ATOM     11  C   UNL     1       8.303  -2.590  -1.979  1.00  0.00     0.165 A 
ATOM     12  O   UNL     1       8.649  -3.652  -0.053  1.00  0.00    -0.454 OA
ATOM     13  O   UNL     1       8.669  -3.902  -2.237  1.00  0.00    -0.454 OA
ATOM     14  C   UNL     1       8.985  -4.585  -1.048  1.00  0.00     0.468 C 
ENDBRANCH   5   6
ENDBRANCH   1   5
TORSDOF 3
ENDMDL
MODEL 3
REMARK VINA RESULT:      -7.2      2.089      2.635
REMARK SMILES CC(=O)CCc1ccc2c(c1)OCO2
REMARK SMILES IDX 4 1 2 2 1 3 3 4 5 5 6 6 7 7 11 8 8 9 10 10 9 11 12 12 14 13
REMARK SMILES IDX 13 14
REMARK H PARENT
REMARK Flexibility Score: inf
ROOT
ATOM      1  C   UNL     1       5.542   0.001   1.976  1.00  0.00     0.080 C 
ENDROOT
BRANCH   1   2
ATOM      2  C   UNL     1       4.666   1.161   1.650  1.00  0.00     0.130 C 
ATOM      3  C   UNL     1       4.995   2.101   0.545  1.00  0.00     0.087 C 
ATOM      4  O   UNL     1       3.647   1.374   2.286  1.00  0.00    -0.300 OA
ENDBRANCH   1   2
BRANCH   1   5
ATOM      5  C   UNL     1       6.966   0.240   1.516  1.00  0.00     0.043 C 
BRANCH   5   6
ATOM      6  C   UNL     1       7.369  -0.715   0.468  1.00  0.00    -0.044 A 
ATOM      7  C   UNL     1       7.250  -0.405  -0.891  1.00  0.00     0.008 A 
ATOM      8  C   UNL     1       7.879  -1.943   0.824  1.00  0.00     0.054 A 
ATOM      9  C   UNL     1       7.645  -1.340  -1.830  1.00  0.00     0.051 A 
ATOM     10  C   UNL     1       8.278  -2.885  -0.129  1.00  0.00     0.166 A 
ATOM     11  C   UNL     1       8.160  -2.581  -1.467  1.00  0.00     0.165 A 
ATOM     12  O   UNL     1       8.806  -4.155  -0.032  1.00  0.00    -0.454 OA
ATOM     13  O   UNL     1       8.623  -3.682  -2.171  1.00  0.00    -0.454 OA
ATOM     14  C   UNL     1       9.127  -4.666  -1.300  1.00  0.00     0.468 C 
ENDBRANCH   5   6
ENDBRANCH   1   5
TORSDOF 3
ENDMDL
MODEL 4
REMARK VINA RESULT:      -7.1      1.258      1.474
REMARK SMILES CC(=O)CCc1ccc2c(c1)OCO2
REMARK SMILES IDX 4 1 2 2 1 3 3 4 5 5 6 6 7 7 11 8 8 9 10 10 9 11 12 12 14 13
REMARK SMILES IDX 13 14
REMARK H PARENT
REMARK Flexibility Score: inf
ROOT
ATOM      1  C   UNL     1       6.377   1.190   0.949  1.00  0.00     0.080 C 
ENDROOT
BRANCH   1   2
ATOM      2  C   UNL     1       5.649   0.368   1.956  1.00  0.00     0.130 C 
ATOM      3  C   UNL     1       6.249  -0.861   2.540  1.00  0.00     0.087 C 
ATOM      4  O   UNL     1       4.532   0.682   2.332  1.00  0.00    -0.300 OA
ENDBRANCH   1   2
BRANCH   1   5
ATOM      5  C   UNL     1       5.865   0.923  -0.453  1.00  0.00     0.043 C 
BRANCH   5   6
ATOM      6  C   UNL     1       6.809   0.102  -1.232  1.00  0.00    -0.044 A 
ATOM      7  C   UNL     1       7.482   0.617  -2.346  1.00  0.00     0.008 A 
ATOM      8  C   UNL     1       7.044  -1.202  -0.862  1.00  0.00     0.054 A 
ATOM      9  C   UNL     1       8.357  -0.201  -3.038  1.00  0.00     0.051 A 
ATOM     10  C   UNL     1       7.931  -2.024  -1.565  1.00  0.00     0.166 A 
ATOM     11  C   UNL     1       8.592  -1.519  -2.662  1.00  0.00     0.165 A 
ATOM     12  O   UNL     1       8.329  -3.334  -1.400  1.00  0.00    -0.454 OA
ATOM     13  O   UNL     1       9.391  -2.540  -3.153  1.00  0.00    -0.454 OA
ATOM     14  C   UNL     1       9.324  -3.679  -2.329  1.00  0.00     0.468 C 
ENDBRANCH   5   6
ENDBRANCH   1   5
TORSDOF 3
ENDMDL
MODEL 5
REMARK VINA RESULT:      -6.9      1.949      2.574
REMARK SMILES CC(=O)CCc1ccc2c(c1)OCO2
REMARK SMILES IDX 4 1 2 2 1 3 3 4 5 5 6 6 7 7 11 8 8 9 10 10 9 11 12 12 14 13
REMARK SMILES IDX 13 14
REMARK H PARENT
REMARK Flexibility Score: inf
ROOT
ATOM      1  C   UNL     1       6.875   0.764   0.956  1.00  0.00     0.080 C 
ENDROOT
BRANCH   1   2
ATOM      2  C   UNL     1       5.488   1.138   1.350  1.00  0.00     0.130 C 
ATOM      3  C   UNL     1       4.707   2.150   0.590  1.00  0.00     0.087 C 
ATOM      4  O   UNL     1       4.950   0.620   2.315  1.00  0.00    -0.300 OA
ENDBRANCH   1   2
BRANCH   1   5
ATOM      5  C   UNL     1       7.060   0.838  -0.547  1.00  0.00     0.043 C 
BRANCH   5   6
ATOM      6  C   UNL     1       7.590  -0.423  -1.095  1.00  0.00    -0.044 A 
ATOM      7  C   UNL     1       7.921  -0.552  -2.449  1.00  0.00     0.008 A 
ATOM      8  C   UNL     1       7.770  -1.506  -0.264  1.00  0.00     0.054 A 
ATOM      9  C   UNL     1       8.416  -1.760  -2.906  1.00  0.00     0.051 A 
ATOM     10  C   UNL     1       8.271  -2.725  -0.732  1.00  0.00     0.166 A 
ATOM     11  C   UNL     1       8.596  -2.853  -2.064  1.00  0.00     0.165 A 
ATOM     12  O   UNL     1       8.536  -3.930  -0.116  1.00  0.00    -0.454 OA
ATOM     13  O   UNL     1       9.060  -4.147  -2.240  1.00  0.00    -0.454 OA
ATOM     14  C   UNL     1       9.124  -4.836  -1.014  1.00  0.00     0.468 C 
ENDBRANCH   5   6
ENDBRANCH   1   5
TORSDOF 3
ENDMDL
