@<TRIPOS>MOLECULE
/home/cewinharhar/GITHUB/reincatalyze/data/processed/docking_pred/2023-May-22-2206_sub9_nm5_bs15_s42_ex16_mel10_mts10000_k50_ec02_g099_lra9e-4_lrc1e-3/79495f175fd15f32955b26bb978cae7af324a937_ligand_9.pdbqt
 14 15 0 0 0
SMALL
GASTEIGER

@<TRIPOS>ATOM
      1  C          5.7930    1.4320   -0.2560 C.3     1  UNL1        0.0800
      2  C          5.1730    1.2880    1.0910 C.2     1  UNL1        0.1300
      3  C          5.4280    0.0960    1.9440 C.3     1  UNL1        0.0870
      4  O          4.4330    2.1500    1.5360 O.2     1  UNL1       -0.3000
      5  C          7.2840    1.1660   -0.2070 C.3     1  UNL1        0.0430
      6  C          7.6310   -0.1180   -0.8430 C.2     1  UNL1       -0.0440
      7  C          7.6410   -0.2680   -2.2340 C.2     1  UNL1        0.0080
      8  C          7.9560   -1.2020   -0.0590 C.2     1  UNL1        0.0540
      9  C          7.9760   -1.4960   -2.7750 C.2     1  UNL1        0.0510
     10  C          8.2940   -2.4410   -0.6100 C.2     1  UNL1        0.1660
     11  C          8.3030   -2.5900   -1.9790 C.2     1  UNL1        0.1650
     12  O          8.6490   -3.6520   -0.0530 O.2     1  UNL1       -0.4540
     13  O          8.6690   -3.9020   -2.2370 O.2     1  UNL1       -0.4540
     14  C          8.9850   -4.5850   -1.0480 C.3     1  UNL1        0.4680
@<TRIPOS>BOND
     1     9     7    1
     2     9    11    2
     3    13    11    1
     4    13    14    1
     5     7     6    2
     6    11    10    1
     7    14    12    1
     8     6     5    1
     9     6     8    1
    10    10     8    2
    11    10    12    1
    12     1     5    1
    13     1     2    1
    14     2     4    2
    15     2     3    1
