@<TRIPOS>MOLECULE
/home/cewinharhar/GITHUB/reincatalyze/data/processed/docking_pred/2023-May-22-2206_sub9_nm5_bs15_s42_ex16_mel10_mts10000_k50_ec02_g099_lra9e-4_lrc1e-3/79495f175fd15f32955b26bb978cae7af324a937_ligand_9.pdbqt
 14 15 0 0 0
SMALL
GASTEIGER

@<TRIPOS>ATOM
      1  C          5.5420    0.0010    1.9760 C.3     1  UNL1        0.0800
      2  C          4.6660    1.1610    1.6500 C.2     1  UNL1        0.1300
      3  C          4.9950    2.1010    0.5450 C.3     1  UNL1        0.0870
      4  O          3.6470    1.3740    2.2860 O.2     1  UNL1       -0.3000
      5  C          6.9660    0.2400    1.5160 C.3     1  UNL1        0.0430
      6  C          7.3690   -0.7150    0.4680 C.2     1  UNL1       -0.0440
      7  C          7.2500   -0.4050   -0.8910 C.2     1  UNL1        0.0080
      8  C          7.8790   -1.9430    0.8240 C.2     1  UNL1        0.0540
      9  C          7.6450   -1.3400   -1.8300 C.2     1  UNL1        0.0510
     10  C          8.2780   -2.8850   -0.1290 C.2     1  UNL1        0.1660
     11  C          8.1600   -2.5810   -1.4670 C.2     1  UNL1        0.1650
     12  O          8.8060   -4.1550   -0.0320 O.2     1  UNL1       -0.4540
     13  O          8.6230   -3.6820   -2.1710 O.2     1  UNL1       -0.4540
     14  C          9.1270   -4.6660   -1.3000 C.3     1  UNL1        0.4680
@<TRIPOS>BOND
     1    13    11    1
     2    13    14    1
     3     9    11    2
     4     9     7    1
     5    11    10    1
     6    14    12    1
     7     7     6    2
     8    10    12    1
     9    10     8    2
    10     6     8    1
    11     6     5    1
    12     3     2    1
    13     5     1    1
    14     2     1    1
    15     2     4    2
