@<TRIPOS>MOLECULE
/home/cewinharhar/GITHUB/reincatalyze/data/processed/docking_pred/2023-May-22-2206_sub9_nm5_bs15_s42_ex16_mel10_mts10000_k50_ec02_g099_lra9e-4_lrc1e-3/7ac8f9624e71b352d93dccd4dc48cb56e96c53c0_ligand_9.pdbqt
 14 15 0 0 0
SMALL
GASTEIGER

@<TRIPOS>ATOM
      1  C          5.5940    1.4770   -0.2620 C.3     1  UNL1        0.0800
      2  C          5.0250    1.2890    1.1020 C.2     1  UNL1        0.1300
      3  C          5.3830    0.1160    1.9420 C.3     1  UNL1        0.0870
      4  O          4.2430    2.1000    1.5710 O.2     1  UNL1       -0.3000
      5  C          7.1060    1.3590   -0.2490 C.3     1  UNL1        0.0430
      6  C          7.5660    0.1520   -0.9580 C.2     1  UNL1       -0.0440
      7  C          7.8070    0.1580   -2.3360 C.2     1  UNL1        0.0080
      8  C          7.7690   -1.0150   -0.2560 C.2     1  UNL1        0.0540
      9  C          8.2390   -1.0060   -2.9470 C.2     1  UNL1        0.0510
     10  C          8.2060   -2.1880   -0.8780 C.2     1  UNL1        0.1660
     11  C          8.4430   -2.1840   -2.2350 C.2     1  UNL1        0.1650
     12  O          8.4780   -3.4560   -0.4090 O.2     1  UNL1       -0.4540
     13  O          8.8600   -3.4610   -2.5740 O.2     1  UNL1       -0.4540
     14  C          8.9830   -4.2750   -1.4320 C.3     1  UNL1        0.4680
@<TRIPOS>BOND
     1     9     7    1
     2     9    11    2
     3    13    11    1
     4    13    14    1
     5     7     6    2
     6    11    10    1
     7    14    12    1
     8     6     8    1
     9     6     5    1
    10    10    12    1
    11    10     8    2
    12     1     5    1
    13     1     2    1
    14     2     4    2
    15     2     3    1
