MODEL 1
REMARK VINA RESULT:      -7.7      0.000      0.000
REMARK SMILES CC(=O)CCc1ccc2c(c1)OCO2
REMARK SMILES IDX 4 1 2 2 1 3 3 4 5 5 6 6 7 7 11 8 8 9 10 10 9 11 12 12 14 13
REMARK SMILES IDX 13 14
REMARK H PARENT
REMARK Flexibility Score: inf
ROOT
ATOM      1  C   UNL     1       5.543   1.905   1.285  1.00  0.00     0.080 C 
ENDROOT
BRANCH   1   2
ATOM      2  C   UNL     1       5.124   0.682   2.026  1.00  0.00     0.130 C 
ATOM      3  C   UNL     1       6.034  -0.483   2.187  1.00  0.00     0.087 C 
ATOM      4  O   UNL     1       4.013   0.601   2.524  1.00  0.00    -0.300 OA
ENDBRANCH   1   2
BRANCH   1   5
ATOM      5  C   UNL     1       5.407   1.715  -0.212  1.00  0.00     0.043 C 
BRANCH   5   6
ATOM      6  C   UNL     1       6.573   1.017  -0.783  1.00  0.00    -0.044 A 
ATOM      7  C   UNL     1       7.881   1.454  -0.538  1.00  0.00     0.008 A 
ATOM      8  C   UNL     1       6.384  -0.093  -1.574  1.00  0.00     0.054 A 
ATOM      9  C   UNL     1       8.936   0.759  -1.100  1.00  0.00     0.051 A 
ATOM     10  C   UNL     1       7.455  -0.793  -2.139  1.00  0.00     0.166 A 
ATOM     11  C   UNL     1       8.741  -0.363  -1.900  1.00  0.00     0.165 A 
ATOM     12  O   UNL     1       7.527  -1.906  -2.948  1.00  0.00    -0.454 OA
ATOM     13  O   UNL     1       9.586  -1.231  -2.573  1.00  0.00    -0.454 OA
ATOM     14  C   UNL     1       8.862  -2.278  -3.177  1.00  0.00     0.468 C 
ENDBRANCH   5   6
ENDBRANCH   1   5
TORSDOF 3
ENDMDL
MODEL 2
REMARK VINA RESULT:      -7.2      1.256      1.479
REMARK SMILES CC(=O)CCc1ccc2c(c1)OCO2
REMARK SMILES IDX 4 1 2 2 1 3 3 4 5 5 6 6 7 7 11 8 8 9 10 10 9 11 12 12 14 13
REMARK SMILES IDX 13 14
REMARK H PARENT
REMARK Flexibility Score: inf
ROOT
ATOM      1  C   UNL     1       6.400   1.180   0.919  1.00  0.00     0.080 C 
ENDROOT
BRANCH   1   2
ATOM      2  C   UNL     1       5.677   0.363   1.933  1.00  0.00     0.130 C 
ATOM      3  C   UNL     1       6.279  -0.864   2.519  1.00  0.00     0.087 C 
ATOM      4  O   UNL     1       4.562   0.680   2.314  1.00  0.00    -0.300 OA
ENDBRANCH   1   2
BRANCH   1   5
ATOM      5  C   UNL     1       5.892   0.896  -0.481  1.00  0.00     0.043 C 
BRANCH   5   6
ATOM      6  C   UNL     1       6.841   0.071  -1.250  1.00  0.00    -0.044 A 
ATOM      7  C   UNL     1       7.537   0.586  -2.350  1.00  0.00     0.008 A 
ATOM      8  C   UNL     1       7.058  -1.238  -0.884  1.00  0.00     0.054 A 
ATOM      9  C   UNL     1       8.415  -0.236  -3.032  1.00  0.00     0.051 A 
ATOM     10  C   UNL     1       7.948  -2.064  -1.577  1.00  0.00     0.166 A 
ATOM     11  C   UNL     1       8.632  -1.559  -2.661  1.00  0.00     0.165 A 
ATOM     12  O   UNL     1       8.330  -3.379  -1.415  1.00  0.00    -0.454 OA
ATOM     13  O   UNL     1       9.429  -2.584  -3.145  1.00  0.00    -0.454 OA
ATOM     14  C   UNL     1       9.338  -3.728  -2.330  1.00  0.00     0.468 C 
ENDBRANCH   5   6
ENDBRANCH   1   5
TORSDOF 3
ENDMDL
MODEL 3
REMARK VINA RESULT:      -7.0      1.673      2.053
REMARK SMILES CC(=O)CCc1ccc2c(c1)OCO2
REMARK SMILES IDX 4 1 2 2 1 3 3 4 5 5 6 6 7 7 11 8 8 9 10 10 9 11 12 12 14 13
REMARK SMILES IDX 13 14
REMARK H PARENT
REMARK Flexibility Score: inf
ROOT
ATOM      1  C   UNL     1       5.594   1.477  -0.262  1.00  0.00     0.080 C 
ENDROOT
BRANCH   1   2
ATOM      2  C   UNL     1       5.025   1.289   1.102  1.00  0.00     0.130 C 
ATOM      3  C   UNL     1       5.383   0.116   1.942  1.00  0.00     0.087 C 
ATOM      4  O   UNL     1       4.243   2.100   1.571  1.00  0.00    -0.300 OA
ENDBRANCH   1   2
BRANCH   1   5
ATOM      5  C   UNL     1       7.106   1.359  -0.249  1.00  0.00     0.043 C 
BRANCH   5   6
ATOM      6  C   UNL     1       7.566   0.152  -0.958  1.00  0.00    -0.044 A 
ATOM      7  C   UNL     1       7.807   0.158  -2.336  1.00  0.00     0.008 A 
ATOM      8  C   UNL     1       7.769  -1.015  -0.256  1.00  0.00     0.054 A 
ATOM      9  C   UNL     1       8.239  -1.006  -2.947  1.00  0.00     0.051 A 
ATOM     10  C   UNL     1       8.206  -2.188  -0.878  1.00  0.00     0.166 A 
ATOM     11  C   UNL     1       8.443  -2.184  -2.235  1.00  0.00     0.165 A 
ATOM     12  O   UNL     1       8.478  -3.456  -0.409  1.00  0.00    -0.454 OA
ATOM     13  O   UNL     1       8.860  -3.461  -2.574  1.00  0.00    -0.454 OA
ATOM     14  C   UNL     1       8.983  -4.275  -1.432  1.00  0.00     0.468 C 
ENDBRANCH   5   6
ENDBRANCH   1   5
TORSDOF 3
ENDMDL
MODEL 4
REMARK VINA RESULT:      -6.8      1.289      1.775
REMARK SMILES CC(=O)CCc1ccc2c(c1)OCO2
REMARK SMILES IDX 4 1 2 2 1 3 3 4 5 5 6 6 7 7 11 8 8 9 10 10 9 11 12 12 14 13
REMARK SMILES IDX 13 14
REMARK H PARENT
REMARK Flexibility Score: inf
ROOT
ATOM      1  C   UNL     1       5.316  -0.076   1.971  1.00  0.00     0.080 C 
ENDROOT
BRANCH   1   2
ATOM      2  C   UNL     1       4.452   1.124   1.796  1.00  0.00     0.130 C 
ATOM      3  C   UNL     1       4.741   2.150   0.759  1.00  0.00     0.087 C 
ATOM      4  O   UNL     1       3.475   1.302   2.506  1.00  0.00    -0.300 OA
ENDBRANCH   1   2
BRANCH   1   5
ATOM      5  C   UNL     1       6.786   0.288   1.900  1.00  0.00     0.043 C 
BRANCH   5   6
ATOM      6  C   UNL     1       7.378  -0.080   0.602  1.00  0.00    -0.044 A 
ATOM      7  C   UNL     1       7.832   0.891  -0.298  1.00  0.00     0.008 A 
ATOM      8  C   UNL     1       7.494  -1.407   0.257  1.00  0.00     0.054 A 
ATOM      9  C   UNL     1       8.380   0.487  -1.502  1.00  0.00     0.051 A 
ATOM     10  C   UNL     1       8.049  -1.811  -0.961  1.00  0.00     0.166 A 
ATOM     11  C   UNL     1       8.495  -0.856  -1.848  1.00  0.00     0.165 A 
ATOM     12  O   UNL     1       8.272  -3.048  -1.529  1.00  0.00    -0.454 OA
ATOM     13  O   UNL     1       8.988  -1.533  -2.952  1.00  0.00    -0.454 OA
ATOM     14  C   UNL     1       8.949  -2.926  -2.753  1.00  0.00     0.468 C 
ENDBRANCH   5   6
ENDBRANCH   1   5
TORSDOF 3
ENDMDL
MODEL 5
REMARK VINA RESULT:      -6.8      1.252      5.285
REMARK SMILES CC(=O)CCc1ccc2c(c1)OCO2
REMARK SMILES IDX 4 1 2 2 1 3 3 4 5 5 6 6 7 7 11 8 8 9 10 10 9 11 12 12 14 13
REMARK SMILES IDX 13 14
REMARK H PARENT
REMARK Flexibility Score: inf
ROOT
ATOM      1  C   UNL     1       8.590   0.241  -2.519  1.00  0.00     0.080 C 
ENDROOT
BRANCH   1   2
ATOM      2  C   UNL     1       8.502  -1.229  -2.743  1.00  0.00     0.130 C 
ATOM      3  C   UNL     1       7.191  -1.923  -2.861  1.00  0.00     0.087 C 
ATOM      4  O   UNL     1       9.510  -1.910  -2.838  1.00  0.00    -0.300 OA
ENDBRANCH   1   2
BRANCH   1   5
ATOM      5  C   UNL     1       9.052   0.555  -1.110  1.00  0.00     0.043 C 
BRANCH   5   6
ATOM      6  C   UNL     1       7.962   0.400  -0.130  1.00  0.00    -0.044 A 
ATOM      7  C   UNL     1       7.997  -0.597   0.853  1.00  0.00     0.008 A 
ATOM      8  C   UNL     1       6.882   1.251  -0.170  1.00  0.00     0.054 A 
ATOM      9  C   UNL     1       6.946  -0.694   1.746  1.00  0.00     0.051 A 
ATOM     10  C   UNL     1       5.822   1.149   0.736  1.00  0.00     0.166 A 
ATOM     11  C   UNL     1       5.854   0.168   1.702  1.00  0.00     0.165 A 
ATOM     12  O   UNL     1       4.653   1.862   0.900  1.00  0.00    -0.454 OA
ATOM     13  O   UNL     1       4.693   0.301   2.447  1.00  0.00    -0.454 OA
ATOM     14  C   UNL     1       3.947   1.419   2.030  1.00  0.00     0.468 C 
ENDBRANCH   5   6
ENDBRANCH   1   5
TORSDOF 3
ENDMDL
