@<TRIPOS>MOLECULE
/home/cewinharhar/GITHUB/reincatalyze/data/processed/docking_pred/2023-May-22-2206_sub9_nm5_bs15_s42_ex16_mel10_mts10000_k50_ec02_g099_lra9e-4_lrc1e-3/7c86502248d8ce059d377094dc2c2500eee92fd7_ligand_9.pdbqt
 14 15 0 0 0
SMALL
GASTEIGER

@<TRIPOS>ATOM
      1  C          5.8860    1.5500    1.2250 C.3     1  UNL1        0.0800
      2  C          5.3940    0.3960    2.0280 C.2     1  UNL1        0.1300
      3  C          6.2430   -0.7990    2.2800 C.3     1  UNL1        0.0870
      4  O          4.2710    0.3980    2.5050 O.2     1  UNL1       -0.3000
      5  C          5.6600    1.3250   -0.2570 C.3     1  UNL1        0.0430
      6  C          6.8130    0.6610   -0.8900 C.2     1  UNL1       -0.0440
      7  C          8.0880    1.2390   -0.8810 C.2     1  UNL1        0.0080
      8  C          6.6450   -0.5580   -1.5070 C.2     1  UNL1        0.0540
      9  C          9.1330    0.5690   -1.4910 C.2     1  UNL1        0.0510
     10  C          7.7040   -1.2320   -2.1210 C.2     1  UNL1        0.1660
     11  C          8.9590   -0.6630   -2.1140 C.2     1  UNL1        0.1650
     12  O          7.7920   -2.4340   -2.7900 O.2     1  UNL1       -0.4540
     13  O          9.7990   -1.5380   -2.7840 O.2     1  UNL1       -0.4540
     14  C          9.1200   -2.7150   -3.1510 C.3     1  UNL1        0.4680
@<TRIPOS>BOND
     1    14    12    1
     2    14    13    1
     3    12    10    1
     4    13    11    1
     5    10    11    2
     6    10     8    1
     7    11     9    1
     8     8     6    2
     9     9     7    2
    10     6     7    1
    11     6     5    1
    12     5     1    1
    13     1     2    1
    14     2     3    1
    15     2     4    2
