@<TRIPOS>MOLECULE
/home/cewinharhar/GITHUB/reincatalyze/data/processed/docking_pred/2023-May-22-2206_sub9_nm5_bs15_s42_ex16_mel10_mts10000_k50_ec02_g099_lra9e-4_lrc1e-3/7c86502248d8ce059d377094dc2c2500eee92fd7_ligand_9.pdbqt
 14 15 0 0 0
SMALL
GASTEIGER

@<TRIPOS>ATOM
      1  C          6.1480   -0.3970    2.3020 C.3     1  UNL1        0.0800
      2  C          5.1110    0.5740    1.8550 C.2     1  UNL1        0.1300
      3  C          5.2900    1.4020    0.6330 C.3     1  UNL1        0.0870
      4  O          4.0760    0.7190    2.4850 O.2     1  UNL1       -0.3000
      5  C          7.4880   -0.1060    1.6550 C.3     1  UNL1        0.0430
      6  C          7.7800   -1.0460    0.5580 C.2     1  UNL1       -0.0440
      7  C          7.6500   -0.6700   -0.7830 C.2     1  UNL1        0.0080
      8  C          8.1950   -2.3260    0.8490 C.2     1  UNL1        0.0540
      9  C          7.9390   -1.5940   -1.7710 C.2     1  UNL1        0.0510
     10  C          8.4860   -3.2570   -0.1530 C.2     1  UNL1        0.1660
     11  C          8.3570   -2.8880   -1.4740 C.2     1  UNL1        0.1650
     12  O          8.9080   -4.5690   -0.1230 O.2     1  UNL1       -0.4540
     13  O          8.7070   -3.9920   -2.2350 O.2     1  UNL1       -0.4540
     14  C          9.1500   -5.0510   -1.4200 C.3     1  UNL1        0.4680
@<TRIPOS>BOND
     1    13    11    1
     2    13    14    1
     3     9    11    2
     4     9     7    1
     5    11    10    1
     6    14    12    1
     7     7     6    2
     8    10    12    1
     9    10     8    2
    10     6     8    1
    11     6     5    1
    12     3     2    1
    13     5     1    1
    14     2     1    1
    15     2     4    2
