MODEL 1
REMARK VINA RESULT:      -7.7      0.000      0.000
REMARK SMILES CC(=O)CCc1ccc2c(c1)OCO2
REMARK SMILES IDX 4 1 2 2 1 3 3 4 5 5 6 6 7 7 11 8 8 9 10 10 9 11 12 12 14 13
REMARK SMILES IDX 13 14
REMARK H PARENT
REMARK Flexibility Score: inf
ROOT
ATOM      1  C   UNL     1       5.482   1.900   1.286  1.00  0.00     0.080 C 
ENDROOT
BRANCH   1   2
ATOM      2  C   UNL     1       4.969   0.689   1.986  1.00  0.00     0.130 C 
ATOM      3  C   UNL     1       5.772  -0.559   2.080  1.00  0.00     0.087 C 
ATOM      4  O   UNL     1       3.864   0.688   2.506  1.00  0.00    -0.300 OA
ENDBRANCH   1   2
BRANCH   1   5
ATOM      5  C   UNL     1       5.376   1.752  -0.219  1.00  0.00     0.043 C 
BRANCH   5   6
ATOM      6  C   UNL     1       6.543   1.050  -0.783  1.00  0.00    -0.044 A 
ATOM      7  C   UNL     1       7.850   1.483  -0.533  1.00  0.00     0.008 A 
ATOM      8  C   UNL     1       6.355  -0.060  -1.575  1.00  0.00     0.054 A 
ATOM      9  C   UNL     1       8.906   0.785  -1.088  1.00  0.00     0.051 A 
ATOM     10  C   UNL     1       7.426  -0.763  -2.133  1.00  0.00     0.166 A 
ATOM     11  C   UNL     1       8.712  -0.337  -1.889  1.00  0.00     0.165 A 
ATOM     12  O   UNL     1       7.499  -1.878  -2.942  1.00  0.00    -0.454 OA
ATOM     13  O   UNL     1       9.557  -1.208  -2.558  1.00  0.00    -0.454 OA
ATOM     14  C   UNL     1       8.834  -2.253  -3.163  1.00  0.00     0.468 C 
ENDBRANCH   5   6
ENDBRANCH   1   5
TORSDOF 3
ENDMDL
MODEL 2
REMARK VINA RESULT:      -7.4      1.933      2.355
REMARK SMILES CC(=O)CCc1ccc2c(c1)OCO2
REMARK SMILES IDX 4 1 2 2 1 3 3 4 5 5 6 6 7 7 11 8 8 9 10 10 9 11 12 12 14 13
REMARK SMILES IDX 13 14
REMARK H PARENT
REMARK Flexibility Score: inf
ROOT
ATOM      1  C   UNL     1       5.686   1.372  -0.215  1.00  0.00     0.080 C 
ENDROOT
BRANCH   1   2
ATOM      2  C   UNL     1       5.005   1.223   1.101  1.00  0.00     0.130 C 
ATOM      3  C   UNL     1       5.269   0.060   1.990  1.00  0.00     0.087 C 
ATOM      4  O   UNL     1       4.205   2.058   1.490  1.00  0.00    -0.300 OA
ENDBRANCH   1   2
BRANCH   1   5
ATOM      5  C   UNL     1       7.175   1.112  -0.097  1.00  0.00     0.043 C 
BRANCH   5   6
ATOM      6  C   UNL     1       7.560  -0.159  -0.737  1.00  0.00    -0.044 A 
ATOM      7  C   UNL     1       7.632  -0.286  -2.129  1.00  0.00     0.008 A 
ATOM      8  C   UNL     1       7.861  -1.252   0.043  1.00  0.00     0.054 A 
ATOM      9  C   UNL     1       8.000  -1.503  -2.674  1.00  0.00     0.051 A 
ATOM     10  C   UNL     1       8.233  -2.480  -0.513  1.00  0.00     0.166 A 
ATOM     11  C   UNL     1       8.303  -2.606  -1.882  1.00  0.00     0.165 A 
ATOM     12  O   UNL     1       8.574  -3.697   0.040  1.00  0.00    -0.454 OA
ATOM     13  O   UNL     1       8.690  -3.911  -2.145  1.00  0.00    -0.454 OA
ATOM     14  C   UNL     1       8.961  -4.611  -0.954  1.00  0.00     0.468 C 
ENDBRANCH   5   6
ENDBRANCH   1   5
TORSDOF 3
ENDMDL
MODEL 3
REMARK VINA RESULT:      -7.2      2.101      2.645
REMARK SMILES CC(=O)CCc1ccc2c(c1)OCO2
REMARK SMILES IDX 4 1 2 2 1 3 3 4 5 5 6 6 7 7 11 8 8 9 10 10 9 11 12 12 14 13
REMARK SMILES IDX 13 14
REMARK H PARENT
REMARK Flexibility Score: inf
ROOT
ATOM      1  C   UNL     1       5.490  -0.047   1.955  1.00  0.00     0.080 C 
ENDROOT
BRANCH   1   2
ATOM      2  C   UNL     1       4.626   1.124   1.635  1.00  0.00     0.130 C 
ATOM      3  C   UNL     1       4.945   2.046   0.513  1.00  0.00     0.087 C 
ATOM      4  O   UNL     1       3.625   1.361   2.291  1.00  0.00    -0.300 OA
ENDBRANCH   1   2
BRANCH   1   5
ATOM      5  C   UNL     1       6.922   0.190   1.520  1.00  0.00     0.043 C 
BRANCH   5   6
ATOM      6  C   UNL     1       7.337  -0.754   0.467  1.00  0.00    -0.044 A 
ATOM      7  C   UNL     1       7.209  -0.440  -0.891  1.00  0.00     0.008 A 
ATOM      8  C   UNL     1       7.865  -1.976   0.815  1.00  0.00     0.054 A 
ATOM      9  C   UNL     1       7.616  -1.365  -1.835  1.00  0.00     0.051 A 
ATOM     10  C   UNL     1       8.275  -2.908  -0.143  1.00  0.00     0.166 A 
ATOM     11  C   UNL     1       8.149  -2.600  -1.479  1.00  0.00     0.165 A 
ATOM     12  O   UNL     1       8.822  -4.170  -0.052  1.00  0.00    -0.454 OA
ATOM     13  O   UNL     1       8.627  -3.690  -2.189  1.00  0.00    -0.454 OA
ATOM     14  C   UNL     1       9.148  -4.671  -1.323  1.00  0.00     0.468 C 
ENDBRANCH   5   6
ENDBRANCH   1   5
TORSDOF 3
ENDMDL
MODEL 4
REMARK VINA RESULT:      -7.0      1.269      1.487
REMARK SMILES CC(=O)CCc1ccc2c(c1)OCO2
REMARK SMILES IDX 4 1 2 2 1 3 3 4 5 5 6 6 7 7 11 8 8 9 10 10 9 11 12 12 14 13
REMARK SMILES IDX 13 14
REMARK H PARENT
REMARK Flexibility Score: inf
ROOT
ATOM      1  C   UNL     1       6.346   1.210   0.894  1.00  0.00     0.080 C 
ENDROOT
BRANCH   1   2
ATOM      2  C   UNL     1       5.652   0.393   1.928  1.00  0.00     0.130 C 
ATOM      3  C   UNL     1       6.285  -0.816   2.522  1.00  0.00     0.087 C 
ATOM      4  O   UNL     1       4.536   0.693   2.320  1.00  0.00    -0.300 OA
ENDBRANCH   1   2
BRANCH   1   5
ATOM      5  C   UNL     1       5.834   0.890  -0.496  1.00  0.00     0.043 C 
BRANCH   5   6
ATOM      6  C   UNL     1       6.799   0.081  -1.262  1.00  0.00    -0.044 A 
ATOM      7  C   UNL     1       7.504   0.614  -2.347  1.00  0.00     0.008 A 
ATOM      8  C   UNL     1       7.023  -1.230  -0.909  1.00  0.00     0.054 A 
ATOM      9  C   UNL     1       8.398  -0.192  -3.028  1.00  0.00     0.051 A 
ATOM     10  C   UNL     1       7.928  -2.041  -1.600  1.00  0.00     0.166 A 
ATOM     11  C   UNL     1       8.621  -1.517  -2.668  1.00  0.00     0.165 A 
ATOM     12  O   UNL     1       8.320  -3.354  -1.447  1.00  0.00    -0.454 OA
ATOM     13  O   UNL     1       9.434  -2.530  -3.154  1.00  0.00    -0.454 OA
ATOM     14  C   UNL     1       9.342  -3.684  -2.353  1.00  0.00     0.468 C 
ENDBRANCH   5   6
ENDBRANCH   1   5
TORSDOF 3
ENDMDL
MODEL 5
REMARK VINA RESULT:      -6.9      1.257      1.740
REMARK SMILES CC(=O)CCc1ccc2c(c1)OCO2
REMARK SMILES IDX 4 1 2 2 1 3 3 4 5 5 6 6 7 7 11 8 8 9 10 10 9 11 12 12 14 13
REMARK SMILES IDX 13 14
REMARK H PARENT
REMARK Flexibility Score: inf
ROOT
ATOM      1  C   UNL     1       5.293  -0.092   1.942  1.00  0.00     0.080 C 
ENDROOT
BRANCH   1   2
ATOM      2  C   UNL     1       4.419   1.100   1.764  1.00  0.00     0.130 C 
ATOM      3  C   UNL     1       4.696   2.123   0.721  1.00  0.00     0.087 C 
ATOM      4  O   UNL     1       3.442   1.273   2.476  1.00  0.00    -0.300 OA
ENDBRANCH   1   2
BRANCH   1   5
ATOM      5  C   UNL     1       6.760   0.290   1.906  1.00  0.00     0.043 C 
BRANCH   5   6
ATOM      6  C   UNL     1       7.382  -0.052   0.615  1.00  0.00    -0.044 A 
ATOM      7  C   UNL     1       7.904   0.933  -0.231  1.00  0.00     0.008 A 
ATOM      8  C   UNL     1       7.459  -1.369   0.222  1.00  0.00     0.054 A 
ATOM      9  C   UNL     1       8.477   0.553  -1.431  1.00  0.00     0.051 A 
ATOM     10  C   UNL     1       8.040  -1.749  -0.991  1.00  0.00     0.166 A 
ATOM     11  C   UNL     1       8.553  -0.780  -1.825  1.00  0.00     0.165 A 
ATOM     12  O   UNL     1       8.234  -2.971  -1.598  1.00  0.00    -0.454 OA
ATOM     13  O   UNL     1       9.058  -1.434  -2.937  1.00  0.00    -0.454 OA
ATOM     14  C   UNL     1       8.958  -2.831  -2.794  1.00  0.00     0.468 C 
ENDBRANCH   5   6
ENDBRANCH   1   5
TORSDOF 3
ENDMDL
