@<TRIPOS>MOLECULE
/home/cewinharhar/GITHUB/reincatalyze/data/processed/docking_pred/2023-May-22-2206_sub9_nm5_bs15_s42_ex16_mel10_mts10000_k50_ec02_g099_lra9e-4_lrc1e-3/7d60c2a66717a3f4b6d307e9593656cfb0aaeeb8_ligand_9.pdbqt
 14 15 0 0 0
SMALL
GASTEIGER

@<TRIPOS>ATOM
      1  C          5.2930   -0.0920    1.9420 C.3     1  UNL1        0.0800
      2  C          4.4190    1.1000    1.7640 C.2     1  UNL1        0.1300
      3  C          4.6960    2.1230    0.7210 C.3     1  UNL1        0.0870
      4  O          3.4420    1.2730    2.4760 O.2     1  UNL1       -0.3000
      5  C          6.7600    0.2900    1.9060 C.3     1  UNL1        0.0430
      6  C          7.3820   -0.0520    0.6150 C.2     1  UNL1       -0.0440
      7  C          7.9040    0.9330   -0.2310 C.2     1  UNL1        0.0080
      8  C          7.4590   -1.3690    0.2220 C.2     1  UNL1        0.0540
      9  C          8.4770    0.5530   -1.4310 C.2     1  UNL1        0.0510
     10  C          8.0400   -1.7490   -0.9910 C.2     1  UNL1        0.1660
     11  C          8.5530   -0.7800   -1.8250 C.2     1  UNL1        0.1650
     12  O          8.2340   -2.9710   -1.5980 O.2     1  UNL1       -0.4540
     13  O          9.0580   -1.4340   -2.9370 O.2     1  UNL1       -0.4540
     14  C          8.9580   -2.8310   -2.7940 C.3     1  UNL1        0.4680
@<TRIPOS>BOND
     1    13    14    1
     2    13    11    1
     3    14    12    1
     4    11     9    2
     5    11    10    1
     6    12    10    1
     7     9     7    1
     8    10     8    2
     9     7     6    2
    10     8     6    1
    11     6     5    1
    12     3     2    1
    13     2     1    1
    14     2     4    2
    15     5     1    1
