@<TRIPOS>MOLECULE
/home/cewinharhar/GITHUB/reincatalyze/data/processed/docking_pred/2023-May-22-2206_sub9_nm5_bs15_s42_ex16_mel10_mts10000_k50_ec02_g099_lra9e-4_lrc1e-3/7d60c2a66717a3f4b6d307e9593656cfb0aaeeb8_ligand_9.pdbqt
 14 15 0 0 0
SMALL
GASTEIGER

@<TRIPOS>ATOM
      1  C          6.3460    1.2100    0.8940 C.3     1  UNL1        0.0800
      2  C          5.6520    0.3930    1.9280 C.2     1  UNL1        0.1300
      3  C          6.2850   -0.8160    2.5220 C.3     1  UNL1        0.0870
      4  O          4.5360    0.6930    2.3200 O.2     1  UNL1       -0.3000
      5  C          5.8340    0.8900   -0.4960 C.3     1  UNL1        0.0430
      6  C          6.7990    0.0810   -1.2620 C.2     1  UNL1       -0.0440
      7  C          7.5040    0.6140   -2.3470 C.2     1  UNL1        0.0080
      8  C          7.0230   -1.2300   -0.9090 C.2     1  UNL1        0.0540
      9  C          8.3980   -0.1920   -3.0280 C.2     1  UNL1        0.0510
     10  C          7.9280   -2.0410   -1.6000 C.2     1  UNL1        0.1660
     11  C          8.6210   -1.5170   -2.6680 C.2     1  UNL1        0.1650
     12  O          8.3200   -3.3540   -1.4470 O.2     1  UNL1       -0.4540
     13  O          9.4340   -2.5300   -3.1540 O.2     1  UNL1       -0.4540
     14  C          9.3420   -3.6840   -2.3530 C.3     1  UNL1        0.4680
@<TRIPOS>BOND
     1    13    11    1
     2    13    14    1
     3     9    11    2
     4     9     7    1
     5    11    10    1
     6    14    12    1
     7     7     6    2
     8    10    12    1
     9    10     8    2
    10     6     8    1
    11     6     5    1
    12     5     1    1
    13     1     2    1
    14     2     4    2
    15     2     3    1
