@<TRIPOS>MOLECULE
/home/cewinharhar/GITHUB/reincatalyze/data/processed/docking_pred/2023-May-22-2206_sub9_nm5_bs15_s42_ex16_mel10_mts10000_k50_ec02_g099_lra9e-4_lrc1e-3/7d60c2a66717a3f4b6d307e9593656cfb0aaeeb8_ligand_9.pdbqt
 14 15 0 0 0
SMALL
GASTEIGER

@<TRIPOS>ATOM
      1  C          5.4900   -0.0470    1.9550 C.3     1  UNL1        0.0800
      2  C          4.6260    1.1240    1.6350 C.2     1  UNL1        0.1300
      3  C          4.9450    2.0460    0.5130 C.3     1  UNL1        0.0870
      4  O          3.6250    1.3610    2.2910 O.2     1  UNL1       -0.3000
      5  C          6.9220    0.1900    1.5200 C.3     1  UNL1        0.0430
      6  C          7.3370   -0.7540    0.4670 C.2     1  UNL1       -0.0440
      7  C          7.2090   -0.4400   -0.8910 C.2     1  UNL1        0.0080
      8  C          7.8650   -1.9760    0.8150 C.2     1  UNL1        0.0540
      9  C          7.6160   -1.3650   -1.8350 C.2     1  UNL1        0.0510
     10  C          8.2750   -2.9080   -0.1430 C.2     1  UNL1        0.1660
     11  C          8.1490   -2.6000   -1.4790 C.2     1  UNL1        0.1650
     12  O          8.8220   -4.1700   -0.0520 O.2     1  UNL1       -0.4540
     13  O          8.6270   -3.6900   -2.1890 O.2     1  UNL1       -0.4540
     14  C          9.1480   -4.6710   -1.3230 C.3     1  UNL1        0.4680
@<TRIPOS>BOND
     1    13    11    1
     2    13    14    1
     3     9    11    2
     4     9     7    1
     5    11    10    1
     6    14    12    1
     7     7     6    2
     8    10    12    1
     9    10     8    2
    10     6     8    1
    11     6     5    1
    12     3     2    1
    13     5     1    1
    14     2     1    1
    15     2     4    2
