@<TRIPOS>MOLECULE
/home/cewinharhar/GITHUB/reincatalyze/data/processed/docking_pred/2023-May-22-2206_sub9_nm5_bs15_s42_ex16_mel10_mts10000_k50_ec02_g099_lra9e-4_lrc1e-3/7ff2a118a63670e32b3229f93cb76c105bf9ebe4_ligand_9.pdbqt
 14 15 0 0 0
SMALL
GASTEIGER

@<TRIPOS>ATOM
      1  C          5.7570    1.2310   -0.2900 C.3     1  UNL1        0.0800
      2  C          5.2040    1.2100    1.0930 C.2     1  UNL1        0.1300
      3  C          5.4150    0.0500    2.0010 C.3     1  UNL1        0.0870
      4  O          4.5560    2.1500    1.5230 O.2     1  UNL1       -0.3000
      5  C          7.2580    1.0140   -0.2850 C.3     1  UNL1        0.0430
      6  C          7.6240   -0.2810   -0.8860 C.2     1  UNL1       -0.0440
      7  C          7.6640   -0.4600   -2.2740 C.2     1  UNL1        0.0080
      8  C          7.9380   -1.3460   -0.0730 C.2     1  UNL1        0.0540
      9  C          8.0160   -1.6970   -2.7810 C.2     1  UNL1        0.0510
     10  C          8.2940   -2.5950   -0.5900 C.2     1  UNL1        0.1660
     11  C          8.3330   -2.7720   -1.9550 C.2     1  UNL1        0.1650
     12  O          8.6430   -3.7910   -0.0010 O.2     1  UNL1       -0.4540
     13  O          8.7100   -4.0870   -2.1780 O.2     1  UNL1       -0.4540
     14  C          9.0050   -4.7430   -0.9680 C.3     1  UNL1        0.4680
@<TRIPOS>BOND
     1     9     7    1
     2     9    11    2
     3     7     6    2
     4    13    11    1
     5    13    14    1
     6    11    10    1
     7    14    12    1
     8     6     5    1
     9     6     8    1
    10    10     8    2
    11    10    12    1
    12     1     5    1
    13     1     2    1
    14     2     4    2
    15     2     3    1
