@<TRIPOS>MOLECULE
/home/cewinharhar/GITHUB/reincatalyze/data/processed/docking_pred/2023-May-22-2206_sub9_nm5_bs15_s42_ex16_mel10_mts10000_k50_ec02_g099_lra9e-4_lrc1e-3/7ff2a118a63670e32b3229f93cb76c105bf9ebe4_ligand_9.pdbqt
 14 15 0 0 0
SMALL
GASTEIGER

@<TRIPOS>ATOM
      1  C          6.3390    1.2370    0.8700 C.3     1  UNL1        0.0800
      2  C          5.6600    0.4290    1.9220 C.2     1  UNL1        0.1300
      3  C          6.2860   -0.7940    2.4910 C.3     1  UNL1        0.0870
      4  O          4.5630    0.7500    2.3490 O.2     1  UNL1       -0.3000
      5  C          5.8180    0.8930   -0.5110 C.3     1  UNL1        0.0430
      6  C          6.7860    0.0860   -1.2740 C.2     1  UNL1       -0.0440
      7  C          7.4840    0.6170   -2.3650 C.2     1  UNL1        0.0080
      8  C          7.0190   -1.2220   -0.9140 C.2     1  UNL1        0.0540
      9  C          8.3820   -0.1870   -3.0440 C.2     1  UNL1        0.0510
     10  C          7.9280   -2.0300   -1.6030 C.2     1  UNL1        0.1660
     11  C          8.6150   -1.5090   -2.6770 C.2     1  UNL1        0.1650
     12  O          8.3300   -3.3400   -1.4430 O.2     1  UNL1       -0.4540
     13  O          9.4330   -2.5190   -3.1590 O.2     1  UNL1       -0.4540
     14  C          9.3510   -3.6680   -2.3500 C.3     1  UNL1        0.4680
@<TRIPOS>BOND
     1    13    11    1
     2    13    14    1
     3     9    11    2
     4     9     7    1
     5    11    10    1
     6     7     6    2
     7    14    12    1
     8    10    12    1
     9    10     8    2
    10     6     8    1
    11     6     5    1
    12     5     1    1
    13     1     2    1
    14     2     4    2
    15     2     3    1
