@<TRIPOS>MOLECULE
/home/cewinharhar/GITHUB/reincatalyze/data/processed/docking_pred/2023-May-22-2206_sub9_nm5_bs15_s42_ex16_mel10_mts10000_k50_ec02_g099_lra9e-4_lrc1e-3/7ff2a118a63670e32b3229f93cb76c105bf9ebe4_ligand_9.pdbqt
 14 15 0 0 0
SMALL
GASTEIGER

@<TRIPOS>ATOM
      1  C          6.9540    0.9350    1.5690 C.3     1  UNL1        0.0800
      2  C          5.4840    1.1670    1.5060 C.2     1  UNL1        0.1300
      3  C          4.8740    2.0340    0.4620 C.3     1  UNL1        0.0870
      4  O          4.7320    0.6500    2.3170 O.2     1  UNL1       -0.3000
      5  C          7.6040    1.1570    0.2180 C.3     1  UNL1        0.0430
      6  C          7.8380   -0.1130   -0.4920 C.2     1  UNL1       -0.0440
      7  C          7.7800   -0.1950   -1.8880 C.2     1  UNL1        0.0080
      8  C          8.1230   -1.2530    0.2260 C.2     1  UNL1        0.0540
      9  C          8.0090   -1.4140   -2.4990 C.2     1  UNL1        0.0510
     10  C          8.3550   -2.4830   -0.3970 C.2     1  UNL1        0.1660
     11  C          8.2960   -2.5640   -1.7710 C.2     1  UNL1        0.1650
     12  O          8.6510   -3.7400    0.0860 O.2     1  UNL1       -0.4540
     13  O          8.5630   -3.8830   -2.1060 O.2     1  UNL1       -0.4540
     14  C          8.8830   -4.6420   -0.9650 C.3     1  UNL1        0.4680
@<TRIPOS>BOND
     1     9     7    1
     2     9    11    2
     3    13    11    1
     4    13    14    1
     5     7     6    2
     6    11    10    1
     7    14    12    1
     8     6     5    1
     9     6     8    1
    10    10    12    1
    11    10     8    2
    12     5     1    1
    13     3     2    1
    14     2     1    1
    15     2     4    2
