MODEL 1
REMARK VINA RESULT:      -7.7      0.000      0.000
REMARK SMILES CC(=O)CCc1ccc2c(c1)OCO2
REMARK SMILES IDX 4 1 2 2 1 3 3 4 5 5 6 6 7 7 11 8 8 9 10 10 9 11 12 12 14 13
REMARK SMILES IDX 13 14
REMARK H PARENT
REMARK Flexibility Score: inf
ROOT
ATOM      1  C   UNL     1       5.512   1.920   1.262  1.00  0.00     0.080 C 
ENDROOT
BRANCH   1   2
ATOM      2  C   UNL     1       5.064   0.706   1.999  1.00  0.00     0.130 C 
ATOM      3  C   UNL     1       5.945  -0.482   2.155  1.00  0.00     0.087 C 
ATOM      4  O   UNL     1       3.953   0.652   2.500  1.00  0.00    -0.300 OA
ENDBRANCH   1   2
BRANCH   1   5
ATOM      5  C   UNL     1       5.389   1.730  -0.237  1.00  0.00     0.043 C 
BRANCH   5   6
ATOM      6  C   UNL     1       6.558   1.030  -0.797  1.00  0.00    -0.044 A 
ATOM      7  C   UNL     1       7.864   1.465  -0.544  1.00  0.00     0.008 A 
ATOM      8  C   UNL     1       6.374  -0.082  -1.587  1.00  0.00     0.054 A 
ATOM      9  C   UNL     1       8.923   0.767  -1.096  1.00  0.00     0.051 A 
ATOM     10  C   UNL     1       7.447  -0.785  -2.141  1.00  0.00     0.166 A 
ATOM     11  C   UNL     1       8.733  -0.356  -1.894  1.00  0.00     0.165 A 
ATOM     12  O   UNL     1       7.524  -1.901  -2.947  1.00  0.00    -0.454 OA
ATOM     13  O   UNL     1       9.581  -1.228  -2.559  1.00  0.00    -0.454 OA
ATOM     14  C   UNL     1       8.861  -2.275  -3.165  1.00  0.00     0.468 C 
ENDBRANCH   5   6
ENDBRANCH   1   5
TORSDOF 3
ENDMDL
MODEL 2
REMARK VINA RESULT:      -7.4      1.913      2.363
REMARK SMILES CC(=O)CCc1ccc2c(c1)OCO2
REMARK SMILES IDX 4 1 2 2 1 3 3 4 5 5 6 6 7 7 11 8 8 9 10 10 9 11 12 12 14 13
REMARK SMILES IDX 13 14
REMARK H PARENT
REMARK Flexibility Score: inf
ROOT
ATOM      1  C   UNL     1       5.757   1.398  -0.247  1.00  0.00     0.080 C 
ENDROOT
BRANCH   1   2
ATOM      2  C   UNL     1       5.107   1.274   1.087  1.00  0.00     0.130 C 
ATOM      3  C   UNL     1       5.380   0.118   1.984  1.00  0.00     0.087 C 
ATOM      4  O   UNL     1       4.326   2.122   1.486  1.00  0.00    -0.300 OA
ENDBRANCH   1   2
BRANCH   1   5
ATOM      5  C   UNL     1       7.245   1.124  -0.163  1.00  0.00     0.043 C 
BRANCH   5   6
ATOM      6  C   UNL     1       7.601  -0.159  -0.796  1.00  0.00    -0.044 A 
ATOM      7  C   UNL     1       7.629  -0.307  -2.187  1.00  0.00     0.008 A 
ATOM      8  C   UNL     1       7.919  -1.243  -0.009  1.00  0.00     0.054 A 
ATOM      9  C   UNL     1       7.971  -1.534  -2.725  1.00  0.00     0.051 A 
ATOM     10  C   UNL     1       8.265  -2.481  -0.557  1.00  0.00     0.166 A 
ATOM     11  C   UNL     1       8.291  -2.628  -1.926  1.00  0.00     0.165 A 
ATOM     12  O   UNL     1       8.615  -3.692   0.002  1.00  0.00    -0.454 OA
ATOM     13  O   UNL     1       8.661  -3.939  -2.182  1.00  0.00    -0.454 OA
ATOM     14  C   UNL     1       8.964  -4.623  -0.989  1.00  0.00     0.468 C 
ENDBRANCH   5   6
ENDBRANCH   1   5
TORSDOF 3
ENDMDL
MODEL 3
REMARK VINA RESULT:      -7.2      2.049      2.611
REMARK SMILES CC(=O)CCc1ccc2c(c1)OCO2
REMARK SMILES IDX 4 1 2 2 1 3 3 4 5 5 6 6 7 7 11 8 8 9 10 10 9 11 12 12 14 13
REMARK SMILES IDX 13 14
REMARK H PARENT
REMARK Flexibility Score: inf
ROOT
ATOM      1  C   UNL     1       5.450  -0.023   2.012  1.00  0.00     0.080 C 
ENDROOT
BRANCH   1   2
ATOM      2  C   UNL     1       4.579   1.158   1.758  1.00  0.00     0.130 C 
ATOM      3  C   UNL     1       4.891   2.143   0.688  1.00  0.00     0.087 C 
ATOM      4  O   UNL     1       3.576   1.353   2.427  1.00  0.00    -0.300 OA
ENDBRANCH   1   2
BRANCH   1   5
ATOM      5  C   UNL     1       6.875   0.237   1.565  1.00  0.00     0.043 C 
BRANCH   5   6
ATOM      6  C   UNL     1       7.295  -0.698   0.507  1.00  0.00    -0.044 A 
ATOM      7  C   UNL     1       7.168  -0.375  -0.849  1.00  0.00     0.008 A 
ATOM      8  C   UNL     1       7.828  -1.920   0.848  1.00  0.00     0.054 A 
ATOM      9  C   UNL     1       7.580  -1.292  -1.799  1.00  0.00     0.051 A 
ATOM     10  C   UNL     1       8.243  -2.844  -0.115  1.00  0.00     0.166 A 
ATOM     11  C   UNL     1       8.118  -2.527  -1.450  1.00  0.00     0.165 A 
ATOM     12  O   UNL     1       8.795  -4.105  -0.032  1.00  0.00    -0.454 OA
ATOM     13  O   UNL     1       8.602  -3.611  -2.166  1.00  0.00    -0.454 OA
ATOM     14  C   UNL     1       9.125  -4.596  -1.306  1.00  0.00     0.468 C 
ENDBRANCH   5   6
ENDBRANCH   1   5
TORSDOF 3
ENDMDL
MODEL 4
REMARK VINA RESULT:      -7.1      1.254      1.468
REMARK SMILES CC(=O)CCc1ccc2c(c1)OCO2
REMARK SMILES IDX 4 1 2 2 1 3 3 4 5 5 6 6 7 7 11 8 8 9 10 10 9 11 12 12 14 13
REMARK SMILES IDX 13 14
REMARK H PARENT
REMARK Flexibility Score: inf
ROOT
ATOM      1  C   UNL     1       6.373   1.198   0.920  1.00  0.00     0.080 C 
ENDROOT
BRANCH   1   2
ATOM      2  C   UNL     1       5.663   0.379   1.942  1.00  0.00     0.130 C 
ATOM      3  C   UNL     1       6.270  -0.850   2.517  1.00  0.00     0.087 C 
ATOM      4  O   UNL     1       4.553   0.697   2.339  1.00  0.00    -0.300 OA
ENDBRANCH   1   2
BRANCH   1   5
ATOM      5  C   UNL     1       5.859   0.904  -0.475  1.00  0.00     0.043 C 
BRANCH   5   6
ATOM      6  C   UNL     1       6.812   0.088  -1.249  1.00  0.00    -0.044 A 
ATOM      7  C   UNL     1       7.503   0.613  -2.347  1.00  0.00     0.008 A 
ATOM      8  C   UNL     1       7.038  -1.221  -0.889  1.00  0.00     0.054 A 
ATOM      9  C   UNL     1       8.386  -0.200  -3.034  1.00  0.00     0.051 A 
ATOM     10  C   UNL     1       7.933  -2.038  -1.587  1.00  0.00     0.166 A 
ATOM     11  C   UNL     1       8.612  -1.523  -2.669  1.00  0.00     0.165 A 
ATOM     12  O   UNL     1       8.325  -3.350  -1.430  1.00  0.00    -0.454 OA
ATOM     13  O   UNL     1       9.417  -2.540  -3.158  1.00  0.00    -0.454 OA
ATOM     14  C   UNL     1       9.334  -3.688  -2.348  1.00  0.00     0.468 C 
ENDBRANCH   5   6
ENDBRANCH   1   5
TORSDOF 3
ENDMDL
MODEL 5
REMARK VINA RESULT:      -6.8      1.983      2.712
REMARK SMILES CC(=O)CCc1ccc2c(c1)OCO2
REMARK SMILES IDX 4 1 2 2 1 3 3 4 5 5 6 6 7 7 11 8 8 9 10 10 9 11 12 12 14 13
REMARK SMILES IDX 13 14
REMARK H PARENT
REMARK Flexibility Score: inf
ROOT
ATOM      1  C   UNL     1       6.733   0.997   1.028  1.00  0.00     0.080 C 
ENDROOT
BRANCH   1   2
ATOM      2  C   UNL     1       5.498   1.769   0.717  1.00  0.00     0.130 C 
ATOM      3  C   UNL     1       5.146   2.150  -0.678  1.00  0.00     0.087 C 
ATOM      4  O   UNL     1       4.734   2.115   1.604  1.00  0.00    -0.300 OA
ENDBRANCH   1   2
BRANCH   1   5
ATOM      5  C   UNL     1       7.733   1.077  -0.108  1.00  0.00     0.043 C 
BRANCH   5   6
ATOM      6  C   UNL     1       7.924  -0.230  -0.761  1.00  0.00    -0.044 A 
ATOM      7  C   UNL     1       7.825  -0.377  -2.150  1.00  0.00     0.008 A 
ATOM      8  C   UNL     1       8.208  -1.339   0.002  1.00  0.00     0.054 A 
ATOM      9  C   UNL     1       8.014  -1.628  -2.707  1.00  0.00     0.051 A 
ATOM     10  C   UNL     1       8.399  -2.602  -0.567  1.00  0.00     0.166 A 
ATOM     11  C   UNL     1       8.301  -2.748  -1.932  1.00  0.00     0.165 A 
ATOM     12  O   UNL     1       8.687  -3.840  -0.031  1.00  0.00    -0.454 OA
ATOM     13  O   UNL     1       8.534  -4.086  -2.211  1.00  0.00    -0.454 OA
ATOM     14  C   UNL     1       8.872  -4.796  -1.043  1.00  0.00     0.468 C 
ENDBRANCH   5   6
ENDBRANCH   1   5
TORSDOF 3
ENDMDL
