@<TRIPOS>MOLECULE
/home/cewinharhar/GITHUB/reincatalyze/data/processed/docking_pred/2023-May-22-2206_sub9_nm5_bs15_s42_ex16_mel10_mts10000_k50_ec02_g099_lra9e-4_lrc1e-3/80ffcc0cdcaea1df7ad243f542ab1163fa4dc1ce_ligand_9.pdbqt
 14 15 0 0 0
SMALL
GASTEIGER

@<TRIPOS>ATOM
      1  C          5.5980    2.0560    1.1550 C.3     1  UNL1        0.0800
      2  C          5.0720    0.8870    1.9140 C.2     1  UNL1        0.1300
      3  C          5.8880   -0.3390    2.1240 C.3     1  UNL1        0.0870
      4  O          3.9480    0.9020    2.3890 O.2     1  UNL1       -0.3000
      5  C          5.4520    1.8510   -0.3400 C.3     1  UNL1        0.0430
      6  C          6.6100    1.1400   -0.9100 C.2     1  UNL1       -0.0440
      7  C          7.8940    1.6940   -0.8880 C.2     1  UNL1        0.0080
      8  C          6.4350   -0.1020   -1.4770 C.2     1  UNL1        0.0540
      9  C          8.9430    0.9800   -1.4380 C.2     1  UNL1        0.0510
     10  C          7.4990   -0.8210   -2.0300 C.2     1  UNL1        0.1660
     11  C          8.7630   -0.2750   -2.0110 C.2     1  UNL1        0.1650
     12  O          7.5830   -2.0530   -2.6440 O.2     1  UNL1       -0.4540
     13  O          9.6060   -1.1930   -2.6180 O.2     1  UNL1       -0.4540
     14  C          8.9150   -2.3730   -2.9520 C.3     1  UNL1        0.4680
@<TRIPOS>BOND
     1    14    12    1
     2    14    13    1
     3    12    10    1
     4    13    11    1
     5    10    11    2
     6    10     8    1
     7    11     9    1
     8     8     6    2
     9     9     7    2
    10     6     7    1
    11     6     5    1
    12     5     1    1
    13     1     2    1
    14     2     3    1
    15     2     4    2
