@<TRIPOS>MOLECULE
/home/cewinharhar/GITHUB/reincatalyze/data/processed/docking_pred/2023-May-22-2206_sub9_nm5_bs15_s42_ex16_mel10_mts10000_k50_ec02_g099_lra9e-4_lrc1e-3/80ffcc0cdcaea1df7ad243f542ab1163fa4dc1ce_ligand_9.pdbqt
 14 15 0 0 0
SMALL
GASTEIGER

@<TRIPOS>ATOM
      1  C          5.5050   -0.0340    1.9470 C.3     1  UNL1        0.0800
      2  C          4.6630    1.1580    1.6440 C.2     1  UNL1        0.1300
      3  C          5.0150    2.1050    0.5520 C.3     1  UNL1        0.0870
      4  O          3.6540    1.3920    2.2890 O.2     1  UNL1       -0.3000
      5  C          6.9440    0.1880    1.5270 C.3     1  UNL1        0.0430
      6  C          7.3590   -0.7590    0.4760 C.2     1  UNL1       -0.0440
      7  C          7.2450   -0.4420   -0.8820 C.2     1  UNL1        0.0080
      8  C          7.8750   -1.9850    0.8280 C.2     1  UNL1        0.0540
      9  C          7.6510   -1.3700   -1.8240 C.2     1  UNL1        0.0510
     10  C          8.2850   -2.9200   -0.1280 C.2     1  UNL1        0.1660
     11  C          8.1720   -2.6090   -1.4650 C.2     1  UNL1        0.1650
     12  O          8.8210   -4.1860   -0.0340 O.2     1  UNL1       -0.4540
     13  O          8.6460   -3.7030   -2.1710 O.2     1  UNL1       -0.4540
     14  C          9.1520   -4.6890   -1.3030 C.3     1  UNL1        0.4680
@<TRIPOS>BOND
     1    13    11    1
     2    13    14    1
     3     9    11    2
     4     9     7    1
     5    11    10    1
     6    14    12    1
     7     7     6    2
     8    10    12    1
     9    10     8    2
    10     6     8    1
    11     6     5    1
    12     3     2    1
    13     5     1    1
    14     2     1    1
    15     2     4    2
