@<TRIPOS>MOLECULE
/home/cewinharhar/GITHUB/reincatalyze/data/processed/docking_pred/2023-May-22-2206_sub9_nm5_bs15_s42_ex16_mel10_mts10000_k50_ec02_g099_lra9e-4_lrc1e-3/81487a167534eaf1a49a57d95a0bec7d9495d7bd_ligand_9.pdbqt
 14 15 0 0 0
SMALL
GASTEIGER

@<TRIPOS>ATOM
      1  C          5.6990    1.3320   -0.3150 C.3     1  UNL1        0.0800
      2  C          5.0750    1.2700    1.0360 C.2     1  UNL1        0.1300
      3  C          5.3470    0.1450    1.9700 C.3     1  UNL1        0.0870
      4  O          4.3160    2.1460    1.4170 O.2     1  UNL1       -0.3000
      5  C          7.1930    1.0840   -0.2430 C.3     1  UNL1        0.0430
      6  C          7.5630   -0.2020   -0.8590 C.2     1  UNL1       -0.0440
      7  C          7.5820   -0.3710   -2.2490 C.2     1  UNL1        0.0080
      8  C          7.9020   -1.2690   -0.0590 C.2     1  UNL1        0.0540
      9  C          7.9380   -1.6020   -2.7700 C.2     1  UNL1        0.0510
     10  C          8.2630   -2.5110   -0.5910 C.2     1  UNL1        0.1660
     11  C          8.2800   -2.6790   -1.9580 C.2     1  UNL1        0.1650
     12  O          8.6350   -3.7080   -0.0160 O.2     1  UNL1       -0.4540
     13  O          8.6680   -3.9880   -2.1960 O.2     1  UNL1       -0.4540
     14  C          8.9900   -4.6490   -0.9960 C.3     1  UNL1        0.4680
@<TRIPOS>BOND
     1     9     7    1
     2     9    11    2
     3     7     6    2
     4    13    11    1
     5    13    14    1
     6    11    10    1
     7    14    12    1
     8     6     5    1
     9     6     8    1
    10    10     8    2
    11    10    12    1
    12     1     5    1
    13     1     2    1
    14     2     4    2
    15     2     3    1
