@<TRIPOS>MOLECULE
/home/cewinharhar/GITHUB/reincatalyze/data/processed/docking_pred/2023-May-22-2206_sub9_nm5_bs15_s42_ex16_mel10_mts10000_k50_ec02_g099_lra9e-4_lrc1e-3/81487a167534eaf1a49a57d95a0bec7d9495d7bd_ligand_9.pdbqt
 14 15 0 0 0
SMALL
GASTEIGER

@<TRIPOS>ATOM
      1  C          5.4680   -0.0150    2.0150 C.3     1  UNL1        0.0800
      2  C          4.5820    1.1560    1.7650 C.2     1  UNL1        0.1300
      3  C          4.8820    2.1490    0.6990 C.3     1  UNL1        0.0870
      4  O          3.5770    1.3350    2.4330 O.2     1  UNL1       -0.3000
      5  C          6.8840    0.2560    1.5460 C.3     1  UNL1        0.0430
      6  C          7.3030   -0.6900    0.4960 C.2     1  UNL1       -0.0440
      7  C          7.1750   -0.3810   -0.8630 C.2     1  UNL1        0.0080
      8  C          7.8350   -1.9090    0.8500 C.2     1  UNL1        0.0540
      9  C          7.5860   -1.3080   -1.8030 C.2     1  UNL1        0.0510
     10  C          8.2490   -2.8430   -0.1050 C.2     1  UNL1        0.1660
     11  C          8.1230   -2.5400   -1.4430 C.2     1  UNL1        0.1650
     12  O          8.8000   -4.1030   -0.0100 O.2     1  UNL1       -0.4540
     13  O          8.6050   -3.6310   -2.1480 O.2     1  UNL1       -0.4540
     14  C          9.1280   -4.6070   -1.2790 C.3     1  UNL1        0.4680
@<TRIPOS>BOND
     1    13    11    1
     2    13    14    1
     3     9    11    2
     4     9     7    1
     5    11    10    1
     6    14    12    1
     7     7     6    2
     8    10    12    1
     9    10     8    2
    10     6     8    1
    11     6     5    1
    12     3     2    1
    13     5     1    1
    14     2     1    1
    15     2     4    2
