@<TRIPOS>MOLECULE
/home/cewinharhar/GITHUB/reincatalyze/data/processed/docking_pred/2023-May-22-2206_sub9_nm5_bs15_s42_ex16_mel10_mts10000_k50_ec02_g099_lra9e-4_lrc1e-3/81487a167534eaf1a49a57d95a0bec7d9495d7bd_ligand_9.pdbqt
 14 15 0 0 0
SMALL
GASTEIGER

@<TRIPOS>ATOM
      1  C          5.5040    1.9050    1.2750 C.3     1  UNL1        0.0800
      2  C          5.0530    0.6850    2.0000 C.2     1  UNL1        0.1300
      3  C          5.9260   -0.5120    2.1320 C.3     1  UNL1        0.0870
      4  O          3.9450    0.6310    2.5090 O.2     1  UNL1       -0.3000
      5  C          5.3850    1.7300   -0.2260 C.3     1  UNL1        0.0430
      6  C          6.5550    1.0320   -0.7880 C.2     1  UNL1       -0.0440
      7  C          7.8610    1.4690   -0.5360 C.2     1  UNL1        0.0080
      8  C          6.3720   -0.0780   -1.5800 C.2     1  UNL1        0.0540
      9  C          8.9200    0.7740   -1.0900 C.2     1  UNL1        0.0510
     10  C          7.4460   -0.7780   -2.1380 C.2     1  UNL1        0.1660
     11  C          8.7310   -0.3480   -1.8910 C.2     1  UNL1        0.1650
     12  O          7.5240   -1.8920   -2.9460 O.2     1  UNL1       -0.4540
     13  O          9.5800   -1.2160   -2.5590 O.2     1  UNL1       -0.4540
     14  C          8.8600   -2.2630   -3.1660 C.3     1  UNL1        0.4680
@<TRIPOS>BOND
     1    14    12    1
     2    14    13    1
     3    12    10    1
     4    13    11    1
     5    10    11    2
     6    10     8    1
     7    11     9    1
     8     8     6    2
     9     9     7    2
    10     6     7    1
    11     6     5    1
    12     5     1    1
    13     1     2    1
    14     2     3    1
    15     2     4    2
