MODEL 1
REMARK VINA RESULT:      -7.6      0.000      0.000
REMARK SMILES CC(=O)CCc1ccc2c(c1)OCO2
REMARK SMILES IDX 4 1 2 2 1 3 3 4 5 5 6 6 7 7 11 8 8 9 10 10 9 11 12 12 14 13
REMARK SMILES IDX 13 14
REMARK H PARENT
REMARK Flexibility Score: inf
ROOT
ATOM      1  C   UNL     1       5.504   1.905   1.275  1.00  0.00     0.080 C 
ENDROOT
BRANCH   1   2
ATOM      2  C   UNL     1       5.053   0.685   2.000  1.00  0.00     0.130 C 
ATOM      3  C   UNL     1       5.926  -0.512   2.132  1.00  0.00     0.087 C 
ATOM      4  O   UNL     1       3.945   0.631   2.509  1.00  0.00    -0.300 OA
ENDBRANCH   1   2
BRANCH   1   5
ATOM      5  C   UNL     1       5.385   1.730  -0.226  1.00  0.00     0.043 C 
BRANCH   5   6
ATOM      6  C   UNL     1       6.555   1.032  -0.788  1.00  0.00    -0.044 A 
ATOM      7  C   UNL     1       7.861   1.469  -0.536  1.00  0.00     0.008 A 
ATOM      8  C   UNL     1       6.372  -0.078  -1.580  1.00  0.00     0.054 A 
ATOM      9  C   UNL     1       8.920   0.774  -1.090  1.00  0.00     0.051 A 
ATOM     10  C   UNL     1       7.446  -0.778  -2.138  1.00  0.00     0.166 A 
ATOM     11  C   UNL     1       8.731  -0.348  -1.891  1.00  0.00     0.165 A 
ATOM     12  O   UNL     1       7.524  -1.892  -2.946  1.00  0.00    -0.454 OA
ATOM     13  O   UNL     1       9.580  -1.216  -2.559  1.00  0.00    -0.454 OA
ATOM     14  C   UNL     1       8.860  -2.263  -3.166  1.00  0.00     0.468 C 
ENDBRANCH   5   6
ENDBRANCH   1   5
TORSDOF 3
ENDMDL
MODEL 2
REMARK VINA RESULT:      -7.4      1.921      2.399
REMARK SMILES CC(=O)CCc1ccc2c(c1)OCO2
REMARK SMILES IDX 4 1 2 2 1 3 3 4 5 5 6 6 7 7 11 8 8 9 10 10 9 11 12 12 14 13
REMARK SMILES IDX 13 14
REMARK H PARENT
REMARK Flexibility Score: inf
ROOT
ATOM      1  C   UNL     1       5.699   1.332  -0.315  1.00  0.00     0.080 C 
ENDROOT
BRANCH   1   2
ATOM      2  C   UNL     1       5.075   1.270   1.036  1.00  0.00     0.130 C 
ATOM      3  C   UNL     1       5.347   0.145   1.970  1.00  0.00     0.087 C 
ATOM      4  O   UNL     1       4.316   2.146   1.417  1.00  0.00    -0.300 OA
ENDBRANCH   1   2
BRANCH   1   5
ATOM      5  C   UNL     1       7.193   1.084  -0.243  1.00  0.00     0.043 C 
BRANCH   5   6
ATOM      6  C   UNL     1       7.563  -0.202  -0.859  1.00  0.00    -0.044 A 
ATOM      7  C   UNL     1       7.582  -0.371  -2.249  1.00  0.00     0.008 A 
ATOM      8  C   UNL     1       7.902  -1.269  -0.059  1.00  0.00     0.054 A 
ATOM      9  C   UNL     1       7.938  -1.602  -2.770  1.00  0.00     0.051 A 
ATOM     10  C   UNL     1       8.263  -2.511  -0.591  1.00  0.00     0.166 A 
ATOM     11  C   UNL     1       8.280  -2.679  -1.958  1.00  0.00     0.165 A 
ATOM     12  O   UNL     1       8.635  -3.708  -0.016  1.00  0.00    -0.454 OA
ATOM     13  O   UNL     1       8.668  -3.988  -2.196  1.00  0.00    -0.454 OA
ATOM     14  C   UNL     1       8.990  -4.649  -0.996  1.00  0.00     0.468 C 
ENDBRANCH   5   6
ENDBRANCH   1   5
TORSDOF 3
ENDMDL
MODEL 3
REMARK VINA RESULT:      -7.2      2.061      2.618
REMARK SMILES CC(=O)CCc1ccc2c(c1)OCO2
REMARK SMILES IDX 4 1 2 2 1 3 3 4 5 5 6 6 7 7 11 8 8 9 10 10 9 11 12 12 14 13
REMARK SMILES IDX 13 14
REMARK H PARENT
REMARK Flexibility Score: inf
ROOT
ATOM      1  C   UNL     1       5.468  -0.015   2.015  1.00  0.00     0.080 C 
ENDROOT
BRANCH   1   2
ATOM      2  C   UNL     1       4.582   1.156   1.765  1.00  0.00     0.130 C 
ATOM      3  C   UNL     1       4.882   2.149   0.699  1.00  0.00     0.087 C 
ATOM      4  O   UNL     1       3.577   1.335   2.433  1.00  0.00    -0.300 OA
ENDBRANCH   1   2
BRANCH   1   5
ATOM      5  C   UNL     1       6.884   0.256   1.546  1.00  0.00     0.043 C 
BRANCH   5   6
ATOM      6  C   UNL     1       7.303  -0.690   0.496  1.00  0.00    -0.044 A 
ATOM      7  C   UNL     1       7.175  -0.381  -0.863  1.00  0.00     0.008 A 
ATOM      8  C   UNL     1       7.835  -1.909   0.850  1.00  0.00     0.054 A 
ATOM      9  C   UNL     1       7.586  -1.308  -1.803  1.00  0.00     0.051 A 
ATOM     10  C   UNL     1       8.249  -2.843  -0.105  1.00  0.00     0.166 A 
ATOM     11  C   UNL     1       8.123  -2.540  -1.443  1.00  0.00     0.165 A 
ATOM     12  O   UNL     1       8.800  -4.103  -0.010  1.00  0.00    -0.454 OA
ATOM     13  O   UNL     1       8.605  -3.631  -2.148  1.00  0.00    -0.454 OA
ATOM     14  C   UNL     1       9.128  -4.607  -1.279  1.00  0.00     0.468 C 
ENDBRANCH   5   6
ENDBRANCH   1   5
TORSDOF 3
ENDMDL
MODEL 4
REMARK VINA RESULT:      -7.1      1.255      1.466
REMARK SMILES CC(=O)CCc1ccc2c(c1)OCO2
REMARK SMILES IDX 4 1 2 2 1 3 3 4 5 5 6 6 7 7 11 8 8 9 10 10 9 11 12 12 14 13
REMARK SMILES IDX 13 14
REMARK H PARENT
REMARK Flexibility Score: inf
ROOT
ATOM      1  C   UNL     1       6.379   1.218   0.930  1.00  0.00     0.080 C 
ENDROOT
BRANCH   1   2
ATOM      2  C   UNL     1       5.665   0.379   1.933  1.00  0.00     0.130 C 
ATOM      3  C   UNL     1       6.286  -0.843   2.511  1.00  0.00     0.087 C 
ATOM      4  O   UNL     1       4.543   0.672   2.310  1.00  0.00    -0.300 OA
ENDBRANCH   1   2
BRANCH   1   5
ATOM      5  C   UNL     1       5.876   0.946  -0.474  1.00  0.00     0.043 C 
BRANCH   5   6
ATOM      6  C   UNL     1       6.823   0.118  -1.242  1.00  0.00    -0.044 A 
ATOM      7  C   UNL     1       7.516   0.630  -2.345  1.00  0.00     0.008 A 
ATOM      8  C   UNL     1       7.040  -1.190  -0.874  1.00  0.00     0.054 A 
ATOM      9  C   UNL     1       8.393  -0.193  -3.028  1.00  0.00     0.051 A 
ATOM     10  C   UNL     1       7.928  -2.019  -1.568  1.00  0.00     0.166 A 
ATOM     11  C   UNL     1       8.609  -1.516  -2.653  1.00  0.00     0.165 A 
ATOM     12  O   UNL     1       8.310  -3.333  -1.402  1.00  0.00    -0.454 OA
ATOM     13  O   UNL     1       9.406  -2.542  -3.137  1.00  0.00    -0.454 OA
ATOM     14  C   UNL     1       9.315  -3.684  -2.319  1.00  0.00     0.468 C 
ENDBRANCH   5   6
ENDBRANCH   1   5
TORSDOF 3
ENDMDL
MODEL 5
REMARK VINA RESULT:      -6.7      1.182      5.179
REMARK SMILES CC(=O)CCc1ccc2c(c1)OCO2
REMARK SMILES IDX 4 1 2 2 1 3 3 4 5 5 6 6 7 7 11 8 8 9 10 10 9 11 12 12 14 13
REMARK SMILES IDX 13 14
REMARK H PARENT
REMARK Flexibility Score: inf
ROOT
ATOM      1  C   UNL     1       8.342   0.201  -2.608  1.00  0.00     0.080 C 
ENDROOT
BRANCH   1   2
ATOM      2  C   UNL     1       8.046  -1.254  -2.731  1.00  0.00     0.130 C 
ATOM      3  C   UNL     1       9.111  -2.244  -3.040  1.00  0.00     0.087 C 
ATOM      4  O   UNL     1       6.911  -1.677  -2.580  1.00  0.00    -0.300 OA
ENDBRANCH   1   2
BRANCH   1   5
ATOM      5  C   UNL     1       8.860   0.542  -1.225  1.00  0.00     0.043 C 
BRANCH   5   6
ATOM      6  C   UNL     1       7.809   0.411  -0.200  1.00  0.00    -0.044 A 
ATOM      7  C   UNL     1       7.891  -0.549   0.816  1.00  0.00     0.008 A 
ATOM      8  C   UNL     1       6.718   1.249  -0.230  1.00  0.00     0.054 A 
ATOM      9  C   UNL     1       6.875  -0.625   1.751  1.00  0.00     0.051 A 
ATOM     10  C   UNL     1       5.693   1.168   0.718  1.00  0.00     0.166 A 
ATOM     11  C   UNL     1       5.773   0.223   1.716  1.00  0.00     0.165 A 
ATOM     12  O   UNL     1       4.523   1.874   0.900  1.00  0.00    -0.454 OA
ATOM     13  O   UNL     1       4.639   0.371   2.499  1.00  0.00    -0.454 OA
ATOM     14  C   UNL     1       3.864   1.466   2.071  1.00  0.00     0.468 C 
ENDBRANCH   5   6
ENDBRANCH   1   5
TORSDOF 3
ENDMDL
