@<TRIPOS>MOLECULE
/home/cewinharhar/GITHUB/reincatalyze/data/processed/docking_pred/2023-May-22-2206_sub9_nm5_bs15_s42_ex16_mel10_mts10000_k50_ec02_g099_lra9e-4_lrc1e-3/81487a167534eaf1a49a57d95a0bec7d9495d7bd_ligand_9.pdbqt
 14 15 0 0 0
SMALL
GASTEIGER

@<TRIPOS>ATOM
      1  C          8.3420    0.2010   -2.6080 C.3     1  UNL1        0.0800
      2  C          8.0460   -1.2540   -2.7310 C.2     1  UNL1        0.1300
      3  C          9.1110   -2.2440   -3.0400 C.3     1  UNL1        0.0870
      4  O          6.9110   -1.6770   -2.5800 O.2     1  UNL1       -0.3000
      5  C          8.8600    0.5420   -1.2250 C.3     1  UNL1        0.0430
      6  C          7.8090    0.4110   -0.2000 C.2     1  UNL1       -0.0440
      7  C          7.8910   -0.5490    0.8160 C.2     1  UNL1        0.0080
      8  C          6.7180    1.2490   -0.2300 C.2     1  UNL1        0.0540
      9  C          6.8750   -0.6250    1.7510 C.2     1  UNL1        0.0510
     10  C          5.6930    1.1680    0.7180 C.2     1  UNL1        0.1660
     11  C          5.7730    0.2230    1.7160 C.2     1  UNL1        0.1650
     12  O          4.5230    1.8740    0.9000 O.2     1  UNL1       -0.4540
     13  O          4.6390    0.3710    2.4990 O.2     1  UNL1       -0.4540
     14  C          3.8640    1.4660    2.0710 C.3     1  UNL1        0.4680
@<TRIPOS>BOND
     1     3     2    1
     2     2     1    1
     3     2     4    2
     4     1     5    1
     5     5     6    1
     6     8     6    2
     7     8    10    1
     8     6     7    1
     9    10    12    1
    10    10    11    2
    11     7     9    2
    12    12    14    1
    13    11     9    1
    14    11    13    1
    15    14    13    1
