@<TRIPOS>MOLECULE
/home/cewinharhar/GITHUB/reincatalyze/data/processed/docking_pred/2023-May-22-2206_sub9_nm5_bs15_s42_ex16_mel10_mts10000_k50_ec02_g099_lra9e-4_lrc1e-3/82066193004a6cdbe54a2a950d109d8cafa96b54_ligand_9.pdbqt
 14 15 0 0 0
SMALL
GASTEIGER

@<TRIPOS>ATOM
      1  C          6.6710    0.4650    1.3100 C.3     1  UNL1        0.0800
      2  C          5.3180    1.0390    1.5540 C.2     1  UNL1        0.1300
      3  C          4.7600    2.1160    0.6930 C.3     1  UNL1        0.0870
      4  O          4.6250    0.6390    2.4750 O.2     1  UNL1       -0.3000
      5  C          7.1220    0.7080   -0.1170 C.3     1  UNL1        0.0430
      6  C          7.5720   -0.5360   -0.7670 C.2     1  UNL1       -0.0440
      7  C          7.7240   -0.6240   -2.1550 C.2     1  UNL1        0.0080
      8  C          7.8550   -1.6430    0.0010 C.2     1  UNL1        0.0540
      9  C          8.1500   -1.8170   -2.7090 C.2     1  UNL1        0.0510
     10  C          8.2860   -2.8470   -0.5640 C.2     1  UNL1        0.1660
     11  C          8.4350   -2.9350   -1.9300 C.2     1  UNL1        0.1650
     12  O          8.6250   -4.0690   -0.0250 O.2     1  UNL1       -0.4540
     13  O          8.8670   -4.2230   -2.2040 O.2     1  UNL1       -0.4540
     14  C          9.0880   -4.9480   -1.0180 C.3     1  UNL1        0.4680
@<TRIPOS>BOND
     1     9     7    1
     2     9    11    2
     3    13    11    1
     4    13    14    1
     5     7     6    2
     6    11    10    1
     7    14    12    1
     8     6     5    1
     9     6     8    1
    10    10    12    1
    11    10     8    2
    12     5     1    1
    13     3     2    1
    14     1     2    1
    15     2     4    2
