@<TRIPOS>MOLECULE
/home/cewinharhar/GITHUB/reincatalyze/data/processed/docking_pred/2023-May-22-2206_sub9_nm5_bs15_s42_ex16_mel10_mts10000_k50_ec02_g099_lra9e-4_lrc1e-3/82066193004a6cdbe54a2a950d109d8cafa96b54_ligand_9.pdbqt
 14 15 0 0 0
SMALL
GASTEIGER

@<TRIPOS>ATOM
      1  C          5.8480    1.4210   -0.2630 C.3     1  UNL1        0.0800
      2  C          5.1860    1.2850    1.0640 C.2     1  UNL1        0.1300
      3  C          5.4240    0.1050    1.9380 C.3     1  UNL1        0.0870
      4  O          4.4240    2.1450    1.4750 O.2     1  UNL1       -0.3000
      5  C          7.3310    1.1180   -0.1720 C.3     1  UNL1        0.0430
      6  C          7.6640   -0.1760   -0.7940 C.2     1  UNL1       -0.0440
      7  C          7.6730   -0.3400   -2.1840 C.2     1  UNL1        0.0080
      8  C          7.9770   -1.2540    0.0010 C.2     1  UNL1        0.0540
      9  C          7.9940   -1.5780   -2.7120 C.2     1  UNL1        0.0510
     10  C          8.3020   -2.5030   -0.5370 C.2     1  UNL1        0.1660
     11  C          8.3100   -2.6660   -1.9050 C.2     1  UNL1        0.1650
     12  O          8.6440   -3.7120    0.0320 O.2     1  UNL1       -0.4540
     13  O          8.6610   -3.9850   -2.1490 O.2     1  UNL1       -0.4540
     14  C          8.9700   -4.6590   -0.9530 C.3     1  UNL1        0.4680
@<TRIPOS>BOND
     1     9     7    1
     2     9    11    2
     3     7     6    2
     4    13    11    1
     5    13    14    1
     6    11    10    1
     7    14    12    1
     8     6     5    1
     9     6     8    1
    10    10     8    2
    11    10    12    1
    12     1     5    1
    13     1     2    1
    14     2     4    2
    15     2     3    1
