@<TRIPOS>MOLECULE
/home/cewinharhar/GITHUB/reincatalyze/data/processed/docking_pred/2023-May-22-2206_sub9_nm5_bs15_s42_ex16_mel10_mts10000_k50_ec02_g099_lra9e-4_lrc1e-3/87c24324279ed01ab1d4888e5c128f335f215516_ligand_9.pdbqt
 14 15 0 0 0
SMALL
GASTEIGER

@<TRIPOS>ATOM
      1  C          5.3280   -0.0840    1.9580 C.3     1  UNL1        0.0800
      2  C          4.4450    1.1040    1.7870 C.2     1  UNL1        0.1300
      3  C          4.7240    2.1420    0.7580 C.3     1  UNL1        0.0870
      4  O          3.4620    1.2610    2.4920 O.2     1  UNL1       -0.3000
      5  C          6.7920    0.3050    1.9020 C.3     1  UNL1        0.0430
      6  C          7.4010   -0.0430    0.6060 C.2     1  UNL1       -0.0440
      7  C          7.9040    0.9390   -0.2550 C.2     1  UNL1        0.0080
      8  C          7.4850   -1.3620    0.2240 C.2     1  UNL1        0.0540
      9  C          8.4650    0.5530   -1.4580 C.2     1  UNL1        0.0510
     10  C          8.0540   -1.7480   -0.9930 C.2     1  UNL1        0.1660
     11  C          8.5480   -0.7820   -1.8410 C.2     1  UNL1        0.1650
     12  O          8.2510   -2.9740   -1.5920 O.2     1  UNL1       -0.4540
     13  O          9.0450   -1.4420   -2.9540 O.2     1  UNL1       -0.4540
     14  C          8.9590   -2.8380   -2.7970 C.3     1  UNL1        0.4680
@<TRIPOS>BOND
     1    13    14    1
     2    13    11    1
     3    14    12    1
     4    11     9    2
     5    11    10    1
     6    12    10    1
     7     9     7    1
     8    10     8    2
     9     7     6    2
    10     8     6    1
    11     6     5    1
    12     3     2    1
    13     2     1    1
    14     2     4    2
    15     5     1    1
