@<TRIPOS>MOLECULE
/home/cewinharhar/GITHUB/reincatalyze/data/processed/docking_pred/2023-May-22-2206_sub9_nm5_bs15_s42_ex16_mel10_mts10000_k50_ec02_g099_lra9e-4_lrc1e-3/87c24324279ed01ab1d4888e5c128f335f215516_ligand_9.pdbqt
 14 15 0 0 0
SMALL
GASTEIGER

@<TRIPOS>ATOM
      1  C          6.4050    1.1800    0.9460 C.3     1  UNL1        0.0800
      2  C          5.6550    0.3610    1.9380 C.2     1  UNL1        0.1300
      3  C          6.2350   -0.8730    2.5310 C.3     1  UNL1        0.0870
      4  O          4.5330    0.6830    2.2950 O.2     1  UNL1       -0.3000
      5  C          5.9060    0.9310   -0.4640 C.3     1  UNL1        0.0430
      6  C          6.8430    0.0950   -1.2350 C.2     1  UNL1       -0.0440
      7  C          7.5230    0.5950   -2.3520 C.2     1  UNL1        0.0080
      8  C          7.0650   -1.2090   -0.8560 C.2     1  UNL1        0.0540
      9  C          8.3910   -0.2350   -3.0370 C.2     1  UNL1        0.0510
     10  C          7.9450   -2.0450   -1.5520 C.2     1  UNL1        0.1660
     11  C          8.6120   -1.5540   -2.6510 C.2     1  UNL1        0.1650
     12  O          8.3300   -3.3570   -1.3770 O.2     1  UNL1       -0.4540
     13  O          9.4030   -2.5850   -3.1340 O.2     1  UNL1       -0.4540
     14  C          9.3230   -3.7180   -2.3020 C.3     1  UNL1        0.4680
@<TRIPOS>BOND
     1    13    11    1
     2    13    14    1
     3     9    11    2
     4     9     7    1
     5    11    10    1
     6     7     6    2
     7    14    12    1
     8    10    12    1
     9    10     8    2
    10     6     8    1
    11     6     5    1
    12     5     1    1
    13     1     2    1
    14     2     4    2
    15     2     3    1
