MODEL 1
REMARK VINA RESULT:      -7.6      0.000      0.000
REMARK SMILES CC(=O)CCc1ccc2c(c1)OCO2
REMARK SMILES IDX 4 1 2 2 1 3 3 4 5 5 6 6 7 7 11 8 8 9 10 10 9 11 12 12 14 13
REMARK SMILES IDX 13 14
REMARK H PARENT
REMARK Flexibility Score: inf
ROOT
ATOM      1  C   UNL     1       5.526   1.916   1.263  1.00  0.00     0.080 C 
ENDROOT
BRANCH   1   2
ATOM      2  C   UNL     1       5.079   0.704   2.004  1.00  0.00     0.130 C 
ATOM      3  C   UNL     1       5.966  -0.479   2.172  1.00  0.00     0.087 C 
ATOM      4  O   UNL     1       3.965   0.645   2.497  1.00  0.00    -0.300 OA
ENDBRANCH   1   2
BRANCH   1   5
ATOM      5  C   UNL     1       5.397   1.724  -0.235  1.00  0.00     0.043 C 
BRANCH   5   6
ATOM      6  C   UNL     1       6.564   1.022  -0.799  1.00  0.00    -0.044 A 
ATOM      7  C   UNL     1       7.871   1.458  -0.552  1.00  0.00     0.008 A 
ATOM      8  C   UNL     1       6.376  -0.091  -1.585  1.00  0.00     0.054 A 
ATOM      9  C   UNL     1       8.928   0.759  -1.106  1.00  0.00     0.051 A 
ATOM     10  C   UNL     1       7.447  -0.795  -2.143  1.00  0.00     0.166 A 
ATOM     11  C   UNL     1       8.734  -0.366  -1.902  1.00  0.00     0.165 A 
ATOM     12  O   UNL     1       7.521  -1.913  -2.947  1.00  0.00    -0.454 OA
ATOM     13  O   UNL     1       9.579  -1.239  -2.569  1.00  0.00    -0.454 OA
ATOM     14  C   UNL     1       8.856  -2.287  -3.170  1.00  0.00     0.468 C 
ENDBRANCH   5   6
ENDBRANCH   1   5
TORSDOF 3
ENDMDL
MODEL 2
REMARK VINA RESULT:      -7.4      1.926      2.406
REMARK SMILES CC(=O)CCc1ccc2c(c1)OCO2
REMARK SMILES IDX 4 1 2 2 1 3 3 4 5 5 6 6 7 7 11 8 8 9 10 10 9 11 12 12 14 13
REMARK SMILES IDX 13 14
REMARK H PARENT
REMARK Flexibility Score: inf
ROOT
ATOM      1  C   UNL     1       5.744   1.255  -0.286  1.00  0.00     0.080 C 
ENDROOT
BRANCH   1   2
ATOM      2  C   UNL     1       5.197   1.199   1.098  1.00  0.00     0.130 C 
ATOM      3  C   UNL     1       5.358  -0.007   1.954  1.00  0.00     0.087 C 
ATOM      4  O   UNL     1       4.597   2.150   1.573  1.00  0.00    -0.300 OA
ENDBRANCH   1   2
BRANCH   1   5
ATOM      5  C   UNL     1       7.246   1.050  -0.294  1.00  0.00     0.043 C 
BRANCH   5   6
ATOM      6  C   UNL     1       7.618  -0.241  -0.900  1.00  0.00    -0.044 A 
ATOM      7  C   UNL     1       7.679  -0.407  -2.289  1.00  0.00     0.008 A 
ATOM      8  C   UNL     1       7.918  -1.314  -0.092  1.00  0.00     0.054 A 
ATOM      9  C   UNL     1       8.036  -1.642  -2.801  1.00  0.00     0.051 A 
ATOM     10  C   UNL     1       8.279  -2.559  -0.615  1.00  0.00     0.166 A 
ATOM     11  C   UNL     1       8.337  -2.724  -1.981  1.00  0.00     0.165 A 
ATOM     12  O   UNL     1       8.616  -3.761  -0.031  1.00  0.00    -0.454 OA
ATOM     13  O   UNL     1       8.715  -4.038  -2.210  1.00  0.00    -0.454 OA
ATOM     14  C   UNL     1       8.991  -4.706  -1.001  1.00  0.00     0.468 C 
ENDBRANCH   5   6
ENDBRANCH   1   5
TORSDOF 3
ENDMDL
MODEL 3
REMARK VINA RESULT:      -7.2      2.046      2.604
REMARK SMILES CC(=O)CCc1ccc2c(c1)OCO2
REMARK SMILES IDX 4 1 2 2 1 3 3 4 5 5 6 6 7 7 11 8 8 9 10 10 9 11 12 12 14 13
REMARK SMILES IDX 13 14
REMARK H PARENT
REMARK Flexibility Score: inf
ROOT
ATOM      1  C   UNL     1       5.461  -0.016   2.027  1.00  0.00     0.080 C 
ENDROOT
BRANCH   1   2
ATOM      2  C   UNL     1       4.567   1.147   1.773  1.00  0.00     0.130 C 
ATOM      3  C   UNL     1       4.857   2.136   0.701  1.00  0.00     0.087 C 
ATOM      4  O   UNL     1       3.562   1.323   2.444  1.00  0.00    -0.300 OA
ENDBRANCH   1   2
BRANCH   1   5
ATOM      5  C   UNL     1       6.873   0.261   1.550  1.00  0.00     0.043 C 
BRANCH   5   6
ATOM      6  C   UNL     1       7.289  -0.683   0.497  1.00  0.00    -0.044 A 
ATOM      7  C   UNL     1       7.158  -0.370  -0.861  1.00  0.00     0.008 A 
ATOM      8  C   UNL     1       7.822  -1.903   0.846  1.00  0.00     0.054 A 
ATOM      9  C   UNL     1       7.566  -1.295  -1.805  1.00  0.00     0.051 A 
ATOM     10  C   UNL     1       8.233  -2.834  -0.113  1.00  0.00     0.166 A 
ATOM     11  C   UNL     1       8.104  -2.528  -1.449  1.00  0.00     0.165 A 
ATOM     12  O   UNL     1       8.784  -4.095  -0.022  1.00  0.00    -0.454 OA
ATOM     13  O   UNL     1       8.584  -3.617  -2.158  1.00  0.00    -0.454 OA
ATOM     14  C   UNL     1       9.109  -4.596  -1.293  1.00  0.00     0.468 C 
ENDBRANCH   5   6
ENDBRANCH   1   5
TORSDOF 3
ENDMDL
MODEL 4
REMARK VINA RESULT:      -7.1      1.262      1.478
REMARK SMILES CC(=O)CCc1ccc2c(c1)OCO2
REMARK SMILES IDX 4 1 2 2 1 3 3 4 5 5 6 6 7 7 11 8 8 9 10 10 9 11 12 12 14 13
REMARK SMILES IDX 13 14
REMARK H PARENT
REMARK Flexibility Score: inf
ROOT
ATOM      1  C   UNL     1       6.405   1.180   0.946  1.00  0.00     0.080 C 
ENDROOT
BRANCH   1   2
ATOM      2  C   UNL     1       5.655   0.361   1.938  1.00  0.00     0.130 C 
ATOM      3  C   UNL     1       6.235  -0.873   2.531  1.00  0.00     0.087 C 
ATOM      4  O   UNL     1       4.533   0.683   2.295  1.00  0.00    -0.300 OA
ENDBRANCH   1   2
BRANCH   1   5
ATOM      5  C   UNL     1       5.906   0.931  -0.464  1.00  0.00     0.043 C 
BRANCH   5   6
ATOM      6  C   UNL     1       6.843   0.095  -1.235  1.00  0.00    -0.044 A 
ATOM      7  C   UNL     1       7.523   0.595  -2.352  1.00  0.00     0.008 A 
ATOM      8  C   UNL     1       7.065  -1.209  -0.856  1.00  0.00     0.054 A 
ATOM      9  C   UNL     1       8.391  -0.235  -3.037  1.00  0.00     0.051 A 
ATOM     10  C   UNL     1       7.945  -2.045  -1.552  1.00  0.00     0.166 A 
ATOM     11  C   UNL     1       8.612  -1.554  -2.651  1.00  0.00     0.165 A 
ATOM     12  O   UNL     1       8.330  -3.357  -1.377  1.00  0.00    -0.454 OA
ATOM     13  O   UNL     1       9.403  -2.585  -3.134  1.00  0.00    -0.454 OA
ATOM     14  C   UNL     1       9.323  -3.718  -2.302  1.00  0.00     0.468 C 
ENDBRANCH   5   6
ENDBRANCH   1   5
TORSDOF 3
ENDMDL
MODEL 5
REMARK VINA RESULT:      -6.8      1.250      1.745
REMARK SMILES CC(=O)CCc1ccc2c(c1)OCO2
REMARK SMILES IDX 4 1 2 2 1 3 3 4 5 5 6 6 7 7 11 8 8 9 10 10 9 11 12 12 14 13
REMARK SMILES IDX 13 14
REMARK H PARENT
REMARK Flexibility Score: inf
ROOT
ATOM      1  C   UNL     1       5.328  -0.084   1.958  1.00  0.00     0.080 C 
ENDROOT
BRANCH   1   2
ATOM      2  C   UNL     1       4.445   1.104   1.787  1.00  0.00     0.130 C 
ATOM      3  C   UNL     1       4.724   2.142   0.758  1.00  0.00     0.087 C 
ATOM      4  O   UNL     1       3.462   1.261   2.492  1.00  0.00    -0.300 OA
ENDBRANCH   1   2
BRANCH   1   5
ATOM      5  C   UNL     1       6.792   0.305   1.902  1.00  0.00     0.043 C 
BRANCH   5   6
ATOM      6  C   UNL     1       7.401  -0.043   0.606  1.00  0.00    -0.044 A 
ATOM      7  C   UNL     1       7.904   0.939  -0.255  1.00  0.00     0.008 A 
ATOM      8  C   UNL     1       7.485  -1.362   0.224  1.00  0.00     0.054 A 
ATOM      9  C   UNL     1       8.465   0.553  -1.458  1.00  0.00     0.051 A 
ATOM     10  C   UNL     1       8.054  -1.748  -0.993  1.00  0.00     0.166 A 
ATOM     11  C   UNL     1       8.548  -0.782  -1.841  1.00  0.00     0.165 A 
ATOM     12  O   UNL     1       8.251  -2.974  -1.592  1.00  0.00    -0.454 OA
ATOM     13  O   UNL     1       9.045  -1.442  -2.954  1.00  0.00    -0.454 OA
ATOM     14  C   UNL     1       8.959  -2.838  -2.797  1.00  0.00     0.468 C 
ENDBRANCH   5   6
ENDBRANCH   1   5
TORSDOF 3
ENDMDL
