@<TRIPOS>MOLECULE
/home/cewinharhar/GITHUB/reincatalyze/data/processed/docking_pred/2023-May-22-2206_sub9_nm5_bs15_s42_ex16_mel10_mts10000_k50_ec02_g099_lra9e-4_lrc1e-3/87c24324279ed01ab1d4888e5c128f335f215516_ligand_9.pdbqt
 14 15 0 0 0
SMALL
GASTEIGER

@<TRIPOS>ATOM
      1  C          5.5260    1.9160    1.2630 C.3     1  UNL1        0.0800
      2  C          5.0790    0.7040    2.0040 C.2     1  UNL1        0.1300
      3  C          5.9660   -0.4790    2.1720 C.3     1  UNL1        0.0870
      4  O          3.9650    0.6450    2.4970 O.2     1  UNL1       -0.3000
      5  C          5.3970    1.7240   -0.2350 C.3     1  UNL1        0.0430
      6  C          6.5640    1.0220   -0.7990 C.2     1  UNL1       -0.0440
      7  C          7.8710    1.4580   -0.5520 C.2     1  UNL1        0.0080
      8  C          6.3760   -0.0910   -1.5850 C.2     1  UNL1        0.0540
      9  C          8.9280    0.7590   -1.1060 C.2     1  UNL1        0.0510
     10  C          7.4470   -0.7950   -2.1430 C.2     1  UNL1        0.1660
     11  C          8.7340   -0.3660   -1.9020 C.2     1  UNL1        0.1650
     12  O          7.5210   -1.9130   -2.9470 O.2     1  UNL1       -0.4540
     13  O          9.5790   -1.2390   -2.5690 O.2     1  UNL1       -0.4540
     14  C          8.8560   -2.2870   -3.1700 C.3     1  UNL1        0.4680
@<TRIPOS>BOND
     1    14    12    1
     2    14    13    1
     3    12    10    1
     4    13    11    1
     5    10    11    2
     6    10     8    1
     7    11     9    1
     8     8     6    2
     9     9     7    2
    10     6     7    1
    11     6     5    1
    12     5     1    1
    13     1     2    1
    14     2     3    1
    15     2     4    2
