@<TRIPOS>MOLECULE
/home/cewinharhar/GITHUB/reincatalyze/data/processed/docking_pred/2023-May-22-2206_sub9_nm5_bs15_s42_ex16_mel10_mts10000_k50_ec02_g099_lra9e-4_lrc1e-3/87c24324279ed01ab1d4888e5c128f335f215516_ligand_9.pdbqt
 14 15 0 0 0
SMALL
GASTEIGER

@<TRIPOS>ATOM
      1  C          5.4610   -0.0160    2.0270 C.3     1  UNL1        0.0800
      2  C          4.5670    1.1470    1.7730 C.2     1  UNL1        0.1300
      3  C          4.8570    2.1360    0.7010 C.3     1  UNL1        0.0870
      4  O          3.5620    1.3230    2.4440 O.2     1  UNL1       -0.3000
      5  C          6.8730    0.2610    1.5500 C.3     1  UNL1        0.0430
      6  C          7.2890   -0.6830    0.4970 C.2     1  UNL1       -0.0440
      7  C          7.1580   -0.3700   -0.8610 C.2     1  UNL1        0.0080
      8  C          7.8220   -1.9030    0.8460 C.2     1  UNL1        0.0540
      9  C          7.5660   -1.2950   -1.8050 C.2     1  UNL1        0.0510
     10  C          8.2330   -2.8340   -0.1130 C.2     1  UNL1        0.1660
     11  C          8.1040   -2.5280   -1.4490 C.2     1  UNL1        0.1650
     12  O          8.7840   -4.0950   -0.0220 O.2     1  UNL1       -0.4540
     13  O          8.5840   -3.6170   -2.1580 O.2     1  UNL1       -0.4540
     14  C          9.1090   -4.5960   -1.2930 C.3     1  UNL1        0.4680
@<TRIPOS>BOND
     1    13    11    1
     2    13    14    1
     3     9    11    2
     4     9     7    1
     5    11    10    1
     6    14    12    1
     7     7     6    2
     8    10    12    1
     9    10     8    2
    10     6     8    1
    11     6     5    1
    12     3     2    1
    13     5     1    1
    14     2     1    1
    15     2     4    2
