@<TRIPOS>MOLECULE
/home/cewinharhar/GITHUB/reincatalyze/data/processed/docking_pred/2023-May-22-2206_sub9_nm5_bs15_s42_ex16_mel10_mts10000_k50_ec02_g099_lra9e-4_lrc1e-3/88c4e0f8a026884e113c16f062f94e0c253125d7_ligand_9.pdbqt
 14 15 0 0 0
SMALL
GASTEIGER

@<TRIPOS>ATOM
      1  C          5.9330    1.0640   -0.3200 C.3     1  UNL1        0.0800
      2  C          5.8290    1.1950    1.1600 C.2     1  UNL1        0.1300
      3  C          4.9780    0.2790    1.9670 C.3     1  UNL1        0.0870
      4  O          6.4430    2.0640    1.7570 O.2     1  UNL1       -0.3000
      5  C          7.3660    0.8290   -0.7520 C.3     1  UNL1        0.0430
      6  C          7.8040   -0.5500   -0.4680 C.2     1  UNL1       -0.0440
      7  C          8.0510   -0.9860    0.8390 C.2     1  UNL1        0.0080
      8  C          7.9750   -1.4380   -1.5050 C.2     1  UNL1        0.0540
      9  C          8.4580   -2.2910    1.0450 C.2     1  UNL1        0.0510
     10  C          8.3860   -2.7570   -1.2920 C.2     1  UNL1        0.1660
     11  C          8.6310   -3.1870   -0.0060 C.2     1  UNL1        0.1650
     12  O          8.6260   -3.8160   -2.1410 O.2     1  UNL1       -0.4540
     13  O          9.0170   -4.5150   -0.0940 O.2     1  UNL1       -0.4540
     14  C          8.9410   -4.9800   -1.4210 C.3     1  UNL1        0.4680
@<TRIPOS>BOND
     1    12    14    1
     2    12    10    1
     3     8    10    1
     4     8     6    2
     5    14    13    1
     6    10    11    2
     7     5     6    1
     8     5     1    1
     9     6     7    1
    10     1     2    1
    11    13    11    1
    12    11     9    1
    13     7     9    2
    14     2     4    2
    15     2     3    1
