@<TRIPOS>MOLECULE
/home/cewinharhar/GITHUB/reincatalyze/data/processed/docking_pred/2023-May-22-2206_sub9_nm5_bs15_s42_ex16_mel10_mts10000_k50_ec02_g099_lra9e-4_lrc1e-3/88c4e0f8a026884e113c16f062f94e0c253125d7_ligand_9.pdbqt
 14 15 0 0 0
SMALL
GASTEIGER

@<TRIPOS>ATOM
      1  C          6.3540    1.1730    0.9610 C.3     1  UNL1        0.0800
      2  C          5.6810    0.3080    1.9690 C.2     1  UNL1        0.1300
      3  C          6.3500   -0.8930    2.5380 C.3     1  UNL1        0.0870
      4  O          4.5530    0.5610    2.3590 O.2     1  UNL1       -0.3000
      5  C          5.8370    0.8950   -0.4370 C.3     1  UNL1        0.0430
      6  C          6.7910    0.0940   -1.2240 C.2     1  UNL1       -0.0440
      7  C          7.4730    0.6350   -2.3200 C.2     1  UNL1        0.0080
      8  C          7.0280   -1.2170   -0.8790 C.2     1  UNL1        0.0540
      9  C          8.3570   -0.1650   -3.0210 C.2     1  UNL1        0.0510
     10  C          7.9240   -2.0210   -1.5900 C.2     1  UNL1        0.1660
     11  C          8.5930   -1.4910   -2.6700 C.2     1  UNL1        0.1650
     12  O          8.3250   -3.3330   -1.4500 O.2     1  UNL1       -0.4540
     13  O          9.4010   -2.4980   -3.1750 O.2     1  UNL1       -0.4540
     14  C          9.3300   -3.6550   -2.3760 C.3     1  UNL1        0.4680
@<TRIPOS>BOND
     1    13    11    1
     2    13    14    1
     3     9    11    2
     4     9     7    1
     5    11    10    1
     6    14    12    1
     7     7     6    2
     8    10    12    1
     9    10     8    2
    10     6     8    1
    11     6     5    1
    12     5     1    1
    13     1     2    1
    14     2     4    2
    15     2     3    1
