@<TRIPOS>MOLECULE
/home/cewinharhar/GITHUB/reincatalyze/data/processed/docking_pred/2023-May-22-2206_sub9_nm5_bs15_s42_ex16_mel10_mts10000_k50_ec02_g099_lra9e-4_lrc1e-3/88c4e0f8a026884e113c16f062f94e0c253125d7_ligand_9.pdbqt
 14 15 0 0 0
SMALL
GASTEIGER

@<TRIPOS>ATOM
      1  C          5.9730    1.1490   -0.2000 C.3     1  UNL1        0.0800
      2  C          5.9450    1.0890    1.2880 C.2     1  UNL1        0.1300
      3  C          5.2820   -0.0280    2.0110 C.3     1  UNL1        0.0870
      4  O          6.4690    1.9620    1.9600 O.2     1  UNL1       -0.3000
      5  C          7.3950    1.1240   -0.7260 C.3     1  UNL1        0.0430
      6  C          7.7770   -0.2170   -1.2030 C.2     1  UNL1       -0.0440
      7  C          7.9740   -0.4820   -2.5630 C.2     1  UNL1        0.0080
      8  C          7.9490   -1.2400   -0.2990 C.2     1  UNL1        0.0540
      9  C          8.3320   -1.7600   -2.9530 C.2     1  UNL1        0.0510
     10  C          8.3120   -2.5300   -0.6970 C.2     1  UNL1        0.1660
     11  C          8.5050   -2.7920   -2.0350 C.2     1  UNL1        0.1650
     12  O          8.5410   -3.6990   -0.0030 O.2     1  UNL1       -0.4540
     13  O          8.8520   -4.1300   -2.1360 O.2     1  UNL1       -0.4540
     14  C          8.9750   -4.7200   -0.8640 C.3     1  UNL1        0.4680
@<TRIPOS>BOND
     1     9     7    1
     2     9    11    2
     3     7     6    2
     4    13    11    1
     5    13    14    1
     6    11    10    1
     7     6     5    1
     8     6     8    1
     9    14    12    1
    10     5     1    1
    11    10     8    2
    12    10    12    1
    13     1     2    1
    14     2     4    2
    15     2     3    1
