MODEL 1
REMARK VINA RESULT:      -7.3      0.000      0.000
REMARK SMILES CC(=O)CCc1ccc2c(c1)OCO2
REMARK SMILES IDX 4 1 2 2 1 3 3 4 5 5 6 6 7 7 11 8 8 9 10 10 9 11 12 12 14 13
REMARK SMILES IDX 13 14
REMARK H PARENT
REMARK Flexibility Score: inf
ROOT
ATOM      1  C   UNL     1       6.354   1.173   0.961  1.00  0.00     0.080 C 
ENDROOT
BRANCH   1   2
ATOM      2  C   UNL     1       5.681   0.308   1.969  1.00  0.00     0.130 C 
ATOM      3  C   UNL     1       6.350  -0.893   2.538  1.00  0.00     0.087 C 
ATOM      4  O   UNL     1       4.553   0.561   2.359  1.00  0.00    -0.300 OA
ENDBRANCH   1   2
BRANCH   1   5
ATOM      5  C   UNL     1       5.837   0.895  -0.437  1.00  0.00     0.043 C 
BRANCH   5   6
ATOM      6  C   UNL     1       6.791   0.094  -1.224  1.00  0.00    -0.044 A 
ATOM      7  C   UNL     1       7.473   0.635  -2.320  1.00  0.00     0.008 A 
ATOM      8  C   UNL     1       7.028  -1.217  -0.879  1.00  0.00     0.054 A 
ATOM      9  C   UNL     1       8.357  -0.165  -3.021  1.00  0.00     0.051 A 
ATOM     10  C   UNL     1       7.924  -2.021  -1.590  1.00  0.00     0.166 A 
ATOM     11  C   UNL     1       8.593  -1.491  -2.670  1.00  0.00     0.165 A 
ATOM     12  O   UNL     1       8.325  -3.333  -1.450  1.00  0.00    -0.454 OA
ATOM     13  O   UNL     1       9.401  -2.498  -3.175  1.00  0.00    -0.454 OA
ATOM     14  C   UNL     1       9.330  -3.655  -2.376  1.00  0.00     0.468 C 
ENDBRANCH   5   6
ENDBRANCH   1   5
TORSDOF 3
ENDMDL
MODEL 2
REMARK VINA RESULT:      -7.2      1.024      1.034
REMARK SMILES CC(=O)CCc1ccc2c(c1)OCO2
REMARK SMILES IDX 4 1 2 2 1 3 3 4 5 5 6 6 7 7 11 8 8 9 10 10 9 11 12 12 14 13
REMARK SMILES IDX 13 14
REMARK H PARENT
REMARK Flexibility Score: inf
ROOT
ATOM      1  C   UNL     1       5.947   1.494   1.238  1.00  0.00     0.080 C 
ENDROOT
BRANCH   1   2
ATOM      2  C   UNL     1       5.406   0.355   2.031  1.00  0.00     0.130 C 
ATOM      3  C   UNL     1       6.207  -0.874   2.280  1.00  0.00     0.087 C 
ATOM      4  O   UNL     1       4.282   0.399   2.504  1.00  0.00    -0.300 OA
ENDBRANCH   1   2
BRANCH   1   5
ATOM      5  C   UNL     1       5.708   1.293  -0.246  1.00  0.00     0.043 C 
BRANCH   5   6
ATOM      6  C   UNL     1       6.847   0.620  -0.896  1.00  0.00    -0.044 A 
ATOM      7  C   UNL     1       8.119   1.202  -0.933  1.00  0.00     0.008 A 
ATOM      8  C   UNL     1       6.667  -0.613  -1.482  1.00  0.00     0.054 A 
ATOM      9  C   UNL     1       9.150   0.523  -1.557  1.00  0.00     0.051 A 
ATOM     10  C   UNL     1       7.712  -1.296  -2.110  1.00  0.00     0.166 A 
ATOM     11  C   UNL     1       8.964  -0.723  -2.149  1.00  0.00     0.165 A 
ATOM     12  O   UNL     1       7.786  -2.512  -2.756  1.00  0.00    -0.454 OA
ATOM     13  O   UNL     1       9.790  -1.609  -2.823  1.00  0.00    -0.454 OA
ATOM     14  C   UNL     1       9.105  -2.796  -3.146  1.00  0.00     0.468 C 
ENDBRANCH   5   6
ENDBRANCH   1   5
TORSDOF 3
ENDMDL
MODEL 3
REMARK VINA RESULT:      -7.0      1.232      1.528
REMARK SMILES CC(=O)CCc1ccc2c(c1)OCO2
REMARK SMILES IDX 4 1 2 2 1 3 3 4 5 5 6 6 7 7 11 8 8 9 10 10 9 11 12 12 14 13
REMARK SMILES IDX 13 14
REMARK H PARENT
REMARK Flexibility Score: inf
ROOT
ATOM      1  C   UNL     1       5.973   1.149  -0.200  1.00  0.00     0.080 C 
ENDROOT
BRANCH   1   2
ATOM      2  C   UNL     1       5.945   1.089   1.288  1.00  0.00     0.130 C 
ATOM      3  C   UNL     1       5.282  -0.028   2.011  1.00  0.00     0.087 C 
ATOM      4  O   UNL     1       6.469   1.962   1.960  1.00  0.00    -0.300 OA
ENDBRANCH   1   2
BRANCH   1   5
ATOM      5  C   UNL     1       7.395   1.124  -0.726  1.00  0.00     0.043 C 
BRANCH   5   6
ATOM      6  C   UNL     1       7.777  -0.217  -1.203  1.00  0.00    -0.044 A 
ATOM      7  C   UNL     1       7.974  -0.482  -2.563  1.00  0.00     0.008 A 
ATOM      8  C   UNL     1       7.949  -1.240  -0.299  1.00  0.00     0.054 A 
ATOM      9  C   UNL     1       8.332  -1.760  -2.953  1.00  0.00     0.051 A 
ATOM     10  C   UNL     1       8.312  -2.530  -0.697  1.00  0.00     0.166 A 
ATOM     11  C   UNL     1       8.505  -2.792  -2.035  1.00  0.00     0.165 A 
ATOM     12  O   UNL     1       8.541  -3.699  -0.003  1.00  0.00    -0.454 OA
ATOM     13  O   UNL     1       8.852  -4.130  -2.136  1.00  0.00    -0.454 OA
ATOM     14  C   UNL     1       8.975  -4.720  -0.864  1.00  0.00     0.468 C 
ENDBRANCH   5   6
ENDBRANCH   1   5
TORSDOF 3
ENDMDL
MODEL 4
REMARK VINA RESULT:      -6.5      1.398      2.068
REMARK SMILES CC(=O)CCc1ccc2c(c1)OCO2
REMARK SMILES IDX 4 1 2 2 1 3 3 4 5 5 6 6 7 7 11 8 8 9 10 10 9 11 12 12 14 13
REMARK SMILES IDX 13 14
REMARK H PARENT
REMARK Flexibility Score: inf
ROOT
ATOM      1  C   UNL     1       6.268  -0.434   2.316  1.00  0.00     0.080 C 
ENDROOT
BRANCH   1   2
ATOM      2  C   UNL     1       5.165   0.466   1.876  1.00  0.00     0.130 C 
ATOM      3  C   UNL     1       5.277   1.295   0.646  1.00  0.00     0.087 C 
ATOM      4  O   UNL     1       4.131   0.549   2.518  1.00  0.00    -0.300 OA
ENDBRANCH   1   2
BRANCH   1   5
ATOM      5  C   UNL     1       7.561  -0.115   1.591  1.00  0.00     0.043 C 
BRANCH   5   6
ATOM      6  C   UNL     1       7.831  -1.076   0.506  1.00  0.00    -0.044 A 
ATOM      7  C   UNL     1       7.685  -0.722  -0.840  1.00  0.00     0.008 A 
ATOM      8  C   UNL     1       8.239  -2.354   0.813  1.00  0.00     0.054 A 
ATOM      9  C   UNL     1       7.954  -1.665  -1.815  1.00  0.00     0.051 A 
ATOM     10  C   UNL     1       8.509  -3.304  -0.176  1.00  0.00     0.166 A 
ATOM     11  C   UNL     1       8.365  -2.957  -1.501  1.00  0.00     0.165 A 
ATOM     12  O   UNL     1       8.921  -4.619  -0.128  1.00  0.00    -0.454 OA
ATOM     13  O   UNL     1       8.696  -4.077  -2.247  1.00  0.00    -0.454 OA
ATOM     14  C   UNL     1       9.141  -5.126  -1.420  1.00  0.00     0.468 C 
ENDBRANCH   5   6
ENDBRANCH   1   5
TORSDOF 3
ENDMDL
MODEL 5
REMARK VINA RESULT:      -6.2      1.540      2.405
REMARK SMILES CC(=O)CCc1ccc2c(c1)OCO2
REMARK SMILES IDX 4 1 2 2 1 3 3 4 5 5 6 6 7 7 11 8 8 9 10 10 9 11 12 12 14 13
REMARK SMILES IDX 13 14
REMARK H PARENT
REMARK Flexibility Score: inf
ROOT
ATOM      1  C   UNL     1       5.933   1.064  -0.320  1.00  0.00     0.080 C 
ENDROOT
BRANCH   1   2
ATOM      2  C   UNL     1       5.829   1.195   1.160  1.00  0.00     0.130 C 
ATOM      3  C   UNL     1       4.978   0.279   1.967  1.00  0.00     0.087 C 
ATOM      4  O   UNL     1       6.443   2.064   1.757  1.00  0.00    -0.300 OA
ENDBRANCH   1   2
BRANCH   1   5
ATOM      5  C   UNL     1       7.366   0.829  -0.752  1.00  0.00     0.043 C 
BRANCH   5   6
ATOM      6  C   UNL     1       7.804  -0.550  -0.468  1.00  0.00    -0.044 A 
ATOM      7  C   UNL     1       8.051  -0.986   0.839  1.00  0.00     0.008 A 
ATOM      8  C   UNL     1       7.975  -1.438  -1.505  1.00  0.00     0.054 A 
ATOM      9  C   UNL     1       8.458  -2.291   1.045  1.00  0.00     0.051 A 
ATOM     10  C   UNL     1       8.386  -2.757  -1.292  1.00  0.00     0.166 A 
ATOM     11  C   UNL     1       8.631  -3.187  -0.006  1.00  0.00     0.165 A 
ATOM     12  O   UNL     1       8.626  -3.816  -2.141  1.00  0.00    -0.454 OA
ATOM     13  O   UNL     1       9.017  -4.515  -0.094  1.00  0.00    -0.454 OA
ATOM     14  C   UNL     1       8.941  -4.980  -1.421  1.00  0.00     0.468 C 
ENDBRANCH   5   6
ENDBRANCH   1   5
TORSDOF 3
ENDMDL
