@<TRIPOS>MOLECULE
/home/cewinharhar/GITHUB/reincatalyze/data/processed/docking_pred/2023-May-22-2206_sub9_nm5_bs15_s42_ex16_mel10_mts10000_k50_ec02_g099_lra9e-4_lrc1e-3/895ea28dab147140afd805a2e235fc395d2e1c3a_ligand_9.pdbqt
 14 15 0 0 0
SMALL
GASTEIGER

@<TRIPOS>ATOM
      1  C          5.7270    1.4040   -0.2790 C.3     1  UNL1        0.0800
      2  C          5.1010    1.2870    1.0680 C.2     1  UNL1        0.1300
      3  C          5.4270    0.1620    1.9850 C.3     1  UNL1        0.0870
      4  O          4.2970    2.1170    1.4600 O.2     1  UNL1       -0.3000
      5  C          7.2210    1.1510   -0.2160 C.3     1  UNL1        0.0430
      6  C          7.5820   -0.1380   -0.8310 C.2     1  UNL1       -0.0440
      7  C          7.6130   -0.3040   -2.2210 C.2     1  UNL1        0.0080
      8  C          7.9020   -1.2110   -0.0310 C.2     1  UNL1        0.0540
      9  C          7.9610   -1.5370   -2.7420 C.2     1  UNL1        0.0510
     10  C          8.2540   -2.4550   -0.5620 C.2     1  UNL1        0.1660
     11  C          8.2830   -2.6200   -1.9290 C.2     1  UNL1        0.1650
     12  O          8.6070   -3.6570    0.0130 O.2     1  UNL1       -0.4540
     13  O          8.6590   -3.9320   -2.1670 O.2     1  UNL1       -0.4540
     14  C          8.9620   -4.6000   -0.9650 C.3     1  UNL1        0.4680
@<TRIPOS>BOND
     1     9     7    1
     2     9    11    2
     3     7     6    2
     4    13    11    1
     5    13    14    1
     6    11    10    1
     7    14    12    1
     8     6     5    1
     9     6     8    1
    10    10     8    2
    11    10    12    1
    12     1     5    1
    13     1     2    1
    14     2     4    2
    15     2     3    1
