MODEL 1
REMARK VINA RESULT:      -7.7      0.000      0.000
REMARK SMILES CC(=O)CCc1ccc2c(c1)OCO2
REMARK SMILES IDX 4 1 2 2 1 3 3 4 5 5 6 6 7 7 11 8 8 9 10 10 9 11 12 12 14 13
REMARK SMILES IDX 13 14
REMARK H PARENT
REMARK Flexibility Score: inf
ROOT
ATOM      1  C   UNL     1       5.533   1.919   1.263  1.00  0.00     0.080 C 
ENDROOT
BRANCH   1   2
ATOM      2  C   UNL     1       5.091   0.705   2.004  1.00  0.00     0.130 C 
ATOM      3  C   UNL     1       5.984  -0.472   2.178  1.00  0.00     0.087 C 
ATOM      4  O   UNL     1       3.975   0.641   2.495  1.00  0.00    -0.300 OA
ENDBRANCH   1   2
BRANCH   1   5
ATOM      5  C   UNL     1       5.403   1.725  -0.235  1.00  0.00     0.043 C 
BRANCH   5   6
ATOM      6  C   UNL     1       6.571   1.024  -0.799  1.00  0.00    -0.044 A 
ATOM      7  C   UNL     1       7.878   1.456  -0.546  1.00  0.00     0.008 A 
ATOM      8  C   UNL     1       6.383  -0.084  -1.592  1.00  0.00     0.054 A 
ATOM      9  C   UNL     1       8.935   0.758  -1.101  1.00  0.00     0.051 A 
ATOM     10  C   UNL     1       7.455  -0.787  -2.151  1.00  0.00     0.166 A 
ATOM     11  C   UNL     1       8.741  -0.362  -1.903  1.00  0.00     0.165 A 
ATOM     12  O   UNL     1       7.529  -1.901  -2.961  1.00  0.00    -0.454 OA
ATOM     13  O   UNL     1       9.587  -1.233  -2.572  1.00  0.00    -0.454 OA
ATOM     14  C   UNL     1       8.864  -2.276  -3.181  1.00  0.00     0.468 C 
ENDBRANCH   5   6
ENDBRANCH   1   5
TORSDOF 3
ENDMDL
MODEL 2
REMARK VINA RESULT:      -7.5      1.908      2.359
REMARK SMILES CC(=O)CCc1ccc2c(c1)OCO2
REMARK SMILES IDX 4 1 2 2 1 3 3 4 5 5 6 6 7 7 11 8 8 9 10 10 9 11 12 12 14 13
REMARK SMILES IDX 13 14
REMARK H PARENT
REMARK Flexibility Score: inf
ROOT
ATOM      1  C   UNL     1       5.727   1.404  -0.279  1.00  0.00     0.080 C 
ENDROOT
BRANCH   1   2
ATOM      2  C   UNL     1       5.101   1.287   1.068  1.00  0.00     0.130 C 
ATOM      3  C   UNL     1       5.427   0.162   1.985  1.00  0.00     0.087 C 
ATOM      4  O   UNL     1       4.297   2.117   1.460  1.00  0.00    -0.300 OA
ENDBRANCH   1   2
BRANCH   1   5
ATOM      5  C   UNL     1       7.221   1.151  -0.216  1.00  0.00     0.043 C 
BRANCH   5   6
ATOM      6  C   UNL     1       7.582  -0.138  -0.831  1.00  0.00    -0.044 A 
ATOM      7  C   UNL     1       7.613  -0.304  -2.221  1.00  0.00     0.008 A 
ATOM      8  C   UNL     1       7.902  -1.211  -0.031  1.00  0.00     0.054 A 
ATOM      9  C   UNL     1       7.961  -1.537  -2.742  1.00  0.00     0.051 A 
ATOM     10  C   UNL     1       8.254  -2.455  -0.562  1.00  0.00     0.166 A 
ATOM     11  C   UNL     1       8.283  -2.620  -1.929  1.00  0.00     0.165 A 
ATOM     12  O   UNL     1       8.607  -3.657   0.013  1.00  0.00    -0.454 OA
ATOM     13  O   UNL     1       8.659  -3.932  -2.167  1.00  0.00    -0.454 OA
ATOM     14  C   UNL     1       8.962  -4.600  -0.965  1.00  0.00     0.468 C 
ENDBRANCH   5   6
ENDBRANCH   1   5
TORSDOF 3
ENDMDL
MODEL 3
REMARK VINA RESULT:      -7.2      2.066      2.634
REMARK SMILES CC(=O)CCc1ccc2c(c1)OCO2
REMARK SMILES IDX 4 1 2 2 1 3 3 4 5 5 6 6 7 7 11 8 8 9 10 10 9 11 12 12 14 13
REMARK SMILES IDX 13 14
REMARK H PARENT
REMARK Flexibility Score: inf
ROOT
ATOM      1  C   UNL     1       5.424  -0.046   2.003  1.00  0.00     0.080 C 
ENDROOT
BRANCH   1   2
ATOM      2  C   UNL     1       4.575   1.153   1.758  1.00  0.00     0.130 C 
ATOM      3  C   UNL     1       4.905   2.139   0.693  1.00  0.00     0.087 C 
ATOM      4  O   UNL     1       3.578   1.364   2.430  1.00  0.00    -0.300 OA
ENDBRANCH   1   2
BRANCH   1   5
ATOM      5  C   UNL     1       6.860   0.200   1.585  1.00  0.00     0.043 C 
BRANCH   5   6
ATOM      6  C   UNL     1       7.288  -0.731   0.526  1.00  0.00    -0.044 A 
ATOM      7  C   UNL     1       7.167  -0.406  -0.829  1.00  0.00     0.008 A 
ATOM      8  C   UNL     1       7.825  -1.952   0.868  1.00  0.00     0.054 A 
ATOM      9  C   UNL     1       7.587  -1.319  -1.779  1.00  0.00     0.051 A 
ATOM     10  C   UNL     1       8.249  -2.871  -0.096  1.00  0.00     0.166 A 
ATOM     11  C   UNL     1       8.128  -2.553  -1.430  1.00  0.00     0.165 A 
ATOM     12  O   UNL     1       8.806  -4.130  -0.013  1.00  0.00    -0.454 OA
ATOM     13  O   UNL     1       8.620  -3.633  -2.146  1.00  0.00    -0.454 OA
ATOM     14  C   UNL     1       9.143  -4.617  -1.286  1.00  0.00     0.468 C 
ENDBRANCH   5   6
ENDBRANCH   1   5
TORSDOF 3
ENDMDL
MODEL 4
REMARK VINA RESULT:      -7.1      1.252      1.448
REMARK SMILES CC(=O)CCc1ccc2c(c1)OCO2
REMARK SMILES IDX 4 1 2 2 1 3 3 4 5 5 6 6 7 7 11 8 8 9 10 10 9 11 12 12 14 13
REMARK SMILES IDX 13 14
REMARK H PARENT
REMARK Flexibility Score: inf
ROOT
ATOM      1  C   UNL     1       6.368   1.207   0.962  1.00  0.00     0.080 C 
ENDROOT
BRANCH   1   2
ATOM      2  C   UNL     1       5.647   0.369   1.960  1.00  0.00     0.130 C 
ATOM      3  C   UNL     1       6.263  -0.852   2.545  1.00  0.00     0.087 C 
ATOM      4  O   UNL     1       4.522   0.663   2.330  1.00  0.00    -0.300 OA
ENDBRANCH   1   2
BRANCH   1   5
ATOM      5  C   UNL     1       5.860   0.948  -0.443  1.00  0.00     0.043 C 
BRANCH   5   6
ATOM      6  C   UNL     1       6.803   0.125  -1.222  1.00  0.00    -0.044 A 
ATOM      7  C   UNL     1       7.474   0.638  -2.337  1.00  0.00     0.008 A 
ATOM      8  C   UNL     1       7.037  -1.179  -0.851  1.00  0.00     0.054 A 
ATOM      9  C   UNL     1       8.348  -0.181  -3.029  1.00  0.00     0.051 A 
ATOM     10  C   UNL     1       7.922  -2.003  -1.553  1.00  0.00     0.166 A 
ATOM     11  C   UNL     1       8.582  -1.499  -2.652  1.00  0.00     0.165 A 
ATOM     12  O   UNL     1       8.319  -3.312  -1.388  1.00  0.00    -0.454 OA
ATOM     13  O   UNL     1       9.381  -2.521  -3.142  1.00  0.00    -0.454 OA
ATOM     14  C   UNL     1       9.313  -3.659  -2.317  1.00  0.00     0.468 C 
ENDBRANCH   5   6
ENDBRANCH   1   5
TORSDOF 3
ENDMDL
MODEL 5
REMARK VINA RESULT:      -7.0      1.962      2.505
REMARK SMILES CC(=O)CCc1ccc2c(c1)OCO2
REMARK SMILES IDX 4 1 2 2 1 3 3 4 5 5 6 6 7 7 11 8 8 9 10 10 9 11 12 12 14 13
REMARK SMILES IDX 13 14
REMARK H PARENT
REMARK Flexibility Score: inf
ROOT
ATOM      1  C   UNL     1       6.826   0.856   1.365  1.00  0.00     0.080 C 
ENDROOT
BRANCH   1   2
ATOM      2  C   UNL     1       5.360   1.112   1.437  1.00  0.00     0.130 C 
ATOM      3  C   UNL     1       4.695   2.099   0.546  1.00  0.00     0.087 C 
ATOM      4  O   UNL     1       4.659   0.514   2.237  1.00  0.00    -0.300 OA
ENDBRANCH   1   2
BRANCH   1   5
ATOM      5  C   UNL     1       7.353   1.068  -0.040  1.00  0.00     0.043 C 
BRANCH   5   6
ATOM      6  C   UNL     1       7.671  -0.209  -0.703  1.00  0.00    -0.044 A 
ATOM      7  C   UNL     1       7.654  -0.336  -2.097  1.00  0.00     0.008 A 
ATOM      8  C   UNL     1       7.997  -1.309   0.057  1.00  0.00     0.054 A 
ATOM      9  C   UNL     1       7.963  -1.560  -2.663  1.00  0.00     0.051 A 
ATOM     10  C   UNL     1       8.309  -2.544  -0.520  1.00  0.00     0.166 A 
ATOM     11  C   UNL     1       8.291  -2.670  -1.892  1.00  0.00     0.165 A 
ATOM     12  O   UNL     1       8.659  -3.768   0.010  1.00  0.00    -0.454 OA
ATOM     13  O   UNL     1       8.635  -3.982  -2.178  1.00  0.00    -0.454 OA
ATOM     14  C   UNL     1       8.965  -4.688  -1.006  1.00  0.00     0.468 C 
ENDBRANCH   5   6
ENDBRANCH   1   5
TORSDOF 3
ENDMDL
