@<TRIPOS>MOLECULE
/home/cewinharhar/GITHUB/reincatalyze/data/processed/docking_pred/2023-May-22-2206_sub9_nm5_bs15_s42_ex16_mel10_mts10000_k50_ec02_g099_lra9e-4_lrc1e-3/895ea28dab147140afd805a2e235fc395d2e1c3a_ligand_9.pdbqt
 14 15 0 0 0
SMALL
GASTEIGER

@<TRIPOS>ATOM
      1  C          6.3680    1.2070    0.9620 C.3     1  UNL1        0.0800
      2  C          5.6470    0.3690    1.9600 C.2     1  UNL1        0.1300
      3  C          6.2630   -0.8520    2.5450 C.3     1  UNL1        0.0870
      4  O          4.5220    0.6630    2.3300 O.2     1  UNL1       -0.3000
      5  C          5.8600    0.9480   -0.4430 C.3     1  UNL1        0.0430
      6  C          6.8030    0.1250   -1.2220 C.2     1  UNL1       -0.0440
      7  C          7.4740    0.6380   -2.3370 C.2     1  UNL1        0.0080
      8  C          7.0370   -1.1790   -0.8510 C.2     1  UNL1        0.0540
      9  C          8.3480   -0.1810   -3.0290 C.2     1  UNL1        0.0510
     10  C          7.9220   -2.0030   -1.5530 C.2     1  UNL1        0.1660
     11  C          8.5820   -1.4990   -2.6520 C.2     1  UNL1        0.1650
     12  O          8.3190   -3.3120   -1.3880 O.2     1  UNL1       -0.4540
     13  O          9.3810   -2.5210   -3.1420 O.2     1  UNL1       -0.4540
     14  C          9.3130   -3.6590   -2.3170 C.3     1  UNL1        0.4680
@<TRIPOS>BOND
     1    13    11    1
     2    13    14    1
     3     9    11    2
     4     9     7    1
     5    11    10    1
     6     7     6    2
     7    14    12    1
     8    10    12    1
     9    10     8    2
    10     6     8    1
    11     6     5    1
    12     5     1    1
    13     1     2    1
    14     2     4    2
    15     2     3    1
