@<TRIPOS>MOLECULE
/home/cewinharhar/GITHUB/reincatalyze/data/processed/docking_pred/2023-May-22-2206_sub9_nm5_bs15_s42_ex16_mel10_mts10000_k50_ec02_g099_lra9e-4_lrc1e-3/895ea28dab147140afd805a2e235fc395d2e1c3a_ligand_9.pdbqt
 14 15 0 0 0
SMALL
GASTEIGER

@<TRIPOS>ATOM
      1  C          5.5330    1.9190    1.2630 C.3     1  UNL1        0.0800
      2  C          5.0910    0.7050    2.0040 C.2     1  UNL1        0.1300
      3  C          5.9840   -0.4720    2.1780 C.3     1  UNL1        0.0870
      4  O          3.9750    0.6410    2.4950 O.2     1  UNL1       -0.3000
      5  C          5.4030    1.7250   -0.2350 C.3     1  UNL1        0.0430
      6  C          6.5710    1.0240   -0.7990 C.2     1  UNL1       -0.0440
      7  C          7.8780    1.4560   -0.5460 C.2     1  UNL1        0.0080
      8  C          6.3830   -0.0840   -1.5920 C.2     1  UNL1        0.0540
      9  C          8.9350    0.7580   -1.1010 C.2     1  UNL1        0.0510
     10  C          7.4550   -0.7870   -2.1510 C.2     1  UNL1        0.1660
     11  C          8.7410   -0.3620   -1.9030 C.2     1  UNL1        0.1650
     12  O          7.5290   -1.9010   -2.9610 O.2     1  UNL1       -0.4540
     13  O          9.5870   -1.2330   -2.5720 O.2     1  UNL1       -0.4540
     14  C          8.8640   -2.2760   -3.1810 C.3     1  UNL1        0.4680
@<TRIPOS>BOND
     1    14    12    1
     2    14    13    1
     3    12    10    1
     4    13    11    1
     5    10    11    2
     6    10     8    1
     7    11     9    1
     8     8     6    2
     9     9     7    2
    10     6     7    1
    11     6     5    1
    12     5     1    1
    13     1     2    1
    14     2     3    1
    15     2     4    2
