@<TRIPOS>MOLECULE
/home/cewinharhar/GITHUB/reincatalyze/data/processed/docking_pred/2023-May-22-2206_sub9_nm5_bs15_s42_ex16_mel10_mts10000_k50_ec02_g099_lra9e-4_lrc1e-3/895ea28dab147140afd805a2e235fc395d2e1c3a_ligand_9.pdbqt
 14 15 0 0 0
SMALL
GASTEIGER

@<TRIPOS>ATOM
      1  C          6.8260    0.8560    1.3650 C.3     1  UNL1        0.0800
      2  C          5.3600    1.1120    1.4370 C.2     1  UNL1        0.1300
      3  C          4.6950    2.0990    0.5460 C.3     1  UNL1        0.0870
      4  O          4.6590    0.5140    2.2370 O.2     1  UNL1       -0.3000
      5  C          7.3530    1.0680   -0.0400 C.3     1  UNL1        0.0430
      6  C          7.6710   -0.2090   -0.7030 C.2     1  UNL1       -0.0440
      7  C          7.6540   -0.3360   -2.0970 C.2     1  UNL1        0.0080
      8  C          7.9970   -1.3090    0.0570 C.2     1  UNL1        0.0540
      9  C          7.9630   -1.5600   -2.6630 C.2     1  UNL1        0.0510
     10  C          8.3090   -2.5440   -0.5200 C.2     1  UNL1        0.1660
     11  C          8.2910   -2.6700   -1.8920 C.2     1  UNL1        0.1650
     12  O          8.6590   -3.7680    0.0100 O.2     1  UNL1       -0.4540
     13  O          8.6350   -3.9820   -2.1780 O.2     1  UNL1       -0.4540
     14  C          8.9650   -4.6880   -1.0060 C.3     1  UNL1        0.4680
@<TRIPOS>BOND
     1     9     7    1
     2     9    11    2
     3    13    11    1
     4    13    14    1
     5     7     6    2
     6    11    10    1
     7    14    12    1
     8     6     5    1
     9     6     8    1
    10    10    12    1
    11    10     8    2
    12     5     1    1
    13     3     2    1
    14     1     2    1
    15     2     4    2
