@<TRIPOS>MOLECULE
/home/cewinharhar/GITHUB/reincatalyze/data/processed/docking_pred/2023-May-22-2206_sub9_nm5_bs15_s42_ex16_mel10_mts10000_k50_ec02_g099_lra9e-4_lrc1e-3/8a11bcf53d23875e79cb17a52aa7b3de0dc85e7d_ligand_9.pdbqt
 14 15 0 0 0
SMALL
GASTEIGER

@<TRIPOS>ATOM
      1  C          5.4350   -0.0560    2.0160 C.3     1  UNL1        0.0800
      2  C          4.5860    1.1430    1.7710 C.2     1  UNL1        0.1300
      3  C          4.9180    2.1310    0.7100 C.3     1  UNL1        0.0870
      4  O          3.5880    1.3510    2.4410 O.2     1  UNL1       -0.3000
      5  C          6.8710    0.1900    1.5970 C.3     1  UNL1        0.0430
      6  C          7.2970   -0.7370    0.5330 C.2     1  UNL1       -0.0440
      7  C          7.1740   -0.4050   -0.8210 C.2     1  UNL1        0.0080
      8  C          7.8310   -1.9600    0.8690 C.2     1  UNL1        0.0540
      9  C          7.5910   -1.3150   -1.7750 C.2     1  UNL1        0.0510
     10  C          8.2530   -2.8760   -0.1000 C.2     1  UNL1        0.1660
     11  C          8.1310   -2.5510   -1.4320 C.2     1  UNL1        0.1650
     12  O          8.8070   -4.1360   -0.0230 O.2     1  UNL1       -0.4540
     13  O          8.6200   -3.6290   -2.1540 O.2     1  UNL1       -0.4540
     14  C          9.1420   -4.6180   -1.2990 C.3     1  UNL1        0.4680
@<TRIPOS>BOND
     1    13    11    1
     2    13    14    1
     3     9    11    2
     4     9     7    1
     5    11    10    1
     6    14    12    1
     7     7     6    2
     8    10    12    1
     9    10     8    2
    10     6     8    1
    11     6     5    1
    12     3     2    1
    13     5     1    1
    14     2     1    1
    15     2     4    2
