@<TRIPOS>MOLECULE
/home/cewinharhar/GITHUB/reincatalyze/data/processed/docking_pred/2023-May-22-2206_sub9_nm5_bs15_s42_ex16_mel10_mts10000_k50_ec02_g099_lra9e-4_lrc1e-3/8a11bcf53d23875e79cb17a52aa7b3de0dc85e7d_ligand_9.pdbqt
 14 15 0 0 0
SMALL
GASTEIGER

@<TRIPOS>ATOM
      1  C          5.5580    1.4170   -0.0890 C.3     1  UNL1        0.0800
      2  C          5.0070    1.1910    1.2760 C.2     1  UNL1        0.1300
      3  C          5.4630    0.0600    2.1260 C.3     1  UNL1        0.0870
      4  O          4.1570    1.9350    1.7390 O.2     1  UNL1       -0.3000
      5  C          7.0620    1.2250   -0.1130 C.3     1  UNL1        0.0430
      6  C          7.4400   -0.0550   -0.7380 C.2     1  UNL1       -0.0440
      7  C          7.4160   -0.2290   -2.1260 C.2     1  UNL1        0.0080
      8  C          7.8300   -1.1110    0.0540 C.2     1  UNL1        0.0540
      9  C          7.7820   -1.4530   -2.6560 C.2     1  UNL1        0.0510
     10  C          8.2000   -2.3470   -0.4870 C.2     1  UNL1        0.1660
     11  C          8.1750   -2.5190   -1.8530 C.2     1  UNL1        0.1650
     12  O          8.6180   -3.5320    0.0780 O.2     1  UNL1       -0.4540
     13  O          8.5840   -3.8200   -2.1010 O.2     1  UNL1       -0.4540
     14  C          8.9610   -4.4690   -0.9100 C.3     1  UNL1        0.4680
@<TRIPOS>BOND
     1     9     7    1
     2     9    11    2
     3     7     6    2
     4    13    11    1
     5    13    14    1
     6    11    10    1
     7    14    12    1
     8     6     5    1
     9     6     8    1
    10    10     8    2
    11    10    12    1
    12     5     1    1
    13     1     2    1
    14     2     4    2
    15     2     3    1
