@<TRIPOS>MOLECULE
/home/cewinharhar/GITHUB/reincatalyze/data/processed/docking_pred/2023-May-22-2206_sub9_nm5_bs15_s42_ex16_mel10_mts10000_k50_ec02_g099_lra9e-4_lrc1e-3/8d3077df06d226cded71bc62a2223dd87f430218_ligand_9.pdbqt
 14 15 0 0 0
SMALL
GASTEIGER

@<TRIPOS>ATOM
      1  C          6.3970    1.2120    0.9230 C.3     1  UNL1        0.0800
      2  C          5.6680    0.3820    1.9220 C.2     1  UNL1        0.1300
      3  C          6.2670   -0.8530    2.4970 C.3     1  UNL1        0.0870
      4  O          4.5500    0.6930    2.3000 O.2     1  UNL1       -0.3000
      5  C          5.8950    0.9490   -0.4830 C.3     1  UNL1        0.0430
      6  C          6.8350    0.1130   -1.2520 C.2     1  UNL1       -0.0440
      7  C          7.5240    0.6160   -2.3610 C.2     1  UNL1        0.0080
      8  C          7.0490   -1.1940   -0.8770 C.2     1  UNL1        0.0540
      9  C          8.3940   -0.2140   -3.0430 C.2     1  UNL1        0.0510
     10  C          7.9310   -2.0290   -1.5690 C.2     1  UNL1        0.1660
     11  C          8.6080   -1.5350   -2.6620 C.2     1  UNL1        0.1650
     12  O          8.3100   -3.3440   -1.3980 O.2     1  UNL1       -0.4540
     13  O          9.3980   -2.5670   -3.1430 O.2     1  UNL1       -0.4540
     14  C          9.3080   -3.7040   -2.3180 C.3     1  UNL1        0.4680
@<TRIPOS>BOND
     1    13    11    1
     2    13    14    1
     3     9    11    2
     4     9     7    1
     5    11    10    1
     6     7     6    2
     7    14    12    1
     8    10    12    1
     9    10     8    2
    10     6     8    1
    11     6     5    1
    12     5     1    1
    13     1     2    1
    14     2     4    2
    15     2     3    1
