@<TRIPOS>MOLECULE
/home/cewinharhar/GITHUB/reincatalyze/data/processed/docking_pred/2023-May-22-2206_sub9_nm5_bs15_s42_ex16_mel10_mts10000_k50_ec02_g099_lra9e-4_lrc1e-3/8f258178c278a1f8efc989ef7d8625b520fa90c8_ligand_9.pdbqt
 14 15 0 0 0
SMALL
GASTEIGER

@<TRIPOS>ATOM
      1  C          6.7240    0.8600    1.3580 C.3     1  UNL1        0.0800
      2  C          5.2760    1.1990    1.4340 C.2     1  UNL1        0.1300
      3  C          4.6440    2.1450    0.4760 C.3     1  UNL1        0.0870
      4  O          4.5610    0.7070    2.2920 O.2     1  UNL1       -0.3000
      5  C          7.2680    1.0790   -0.0400 C.3     1  UNL1        0.0430
      6  C          7.6210   -0.1940   -0.6940 C.2     1  UNL1       -0.0440
      7  C          7.6270   -0.3260   -2.0870 C.2     1  UNL1        0.0080
      8  C          7.9560   -1.2860    0.0750 C.2     1  UNL1        0.0540
      9  C          7.9670   -1.5450   -2.6450 C.2     1  UNL1        0.0510
     10  C          8.3000   -2.5160   -0.4940 C.2     1  UNL1        0.1660
     11  C          8.3050   -2.6460   -1.8650 C.2     1  UNL1        0.1650
     12  O          8.6650   -3.7310    0.0450 O.2     1  UNL1       -0.4540
     13  O          8.6780   -3.9520   -2.1420 O.2     1  UNL1       -0.4540
     14  C          9.0040   -4.6490   -0.9630 C.3     1  UNL1        0.4680
@<TRIPOS>BOND
     1     9     7    1
     2     9    11    2
     3    13    11    1
     4    13    14    1
     5     7     6    2
     6    11    10    1
     7    14    12    1
     8     6     5    1
     9     6     8    1
    10    10    12    1
    11    10     8    2
    12     5     1    1
    13     3     2    1
    14     1     2    1
    15     2     4    2
