MODEL 1
REMARK VINA RESULT:      -7.5      0.000      0.000
REMARK SMILES CC(=O)CCc1ccc2c(c1)OCO2
REMARK SMILES IDX 4 1 2 2 1 3 3 4 5 5 6 6 7 7 11 8 8 9 10 10 9 11 12 12 14 13
REMARK SMILES IDX 13 14
REMARK H PARENT
REMARK Flexibility Score: inf
ROOT
ATOM      1  C   UNL     1       5.533   1.882   1.293  1.00  0.00     0.080 C 
ENDROOT
BRANCH   1   2
ATOM      2  C   UNL     1       5.087   0.659   2.017  1.00  0.00     0.130 C 
ATOM      3  C   UNL     1       5.970  -0.530   2.160  1.00  0.00     0.087 C 
ATOM      4  O   UNL     1       3.976   0.598   2.518  1.00  0.00    -0.300 OA
ENDBRANCH   1   2
BRANCH   1   5
ATOM      5  C   UNL     1       5.403   1.711  -0.208  1.00  0.00     0.043 C 
BRANCH   5   6
ATOM      6  C   UNL     1       6.572   1.021  -0.782  1.00  0.00    -0.044 A 
ATOM      7  C   UNL     1       7.877   1.469  -0.547  1.00  0.00     0.008 A 
ATOM      8  C   UNL     1       6.387  -0.094  -1.568  1.00  0.00     0.054 A 
ATOM      9  C   UNL     1       8.935   0.780  -1.112  1.00  0.00     0.051 A 
ATOM     10  C   UNL     1       7.460  -0.787  -2.137  1.00  0.00     0.166 A 
ATOM     11  C   UNL     1       8.744  -0.346  -1.907  1.00  0.00     0.165 A 
ATOM     12  O   UNL     1       7.537  -1.903  -2.943  1.00  0.00    -0.454 OA
ATOM     13  O   UNL     1       9.592  -1.210  -2.583  1.00  0.00    -0.454 OA
ATOM     14  C   UNL     1       8.873  -2.265  -3.178  1.00  0.00     0.468 C 
ENDBRANCH   5   6
ENDBRANCH   1   5
TORSDOF 3
ENDMDL
MODEL 2
REMARK VINA RESULT:      -7.3      1.866      2.344
REMARK SMILES CC(=O)CCc1ccc2c(c1)OCO2
REMARK SMILES IDX 4 1 2 2 1 3 3 4 5 5 6 6 7 7 11 8 8 9 10 10 9 11 12 12 14 13
REMARK SMILES IDX 13 14
REMARK H PARENT
REMARK Flexibility Score: inf
ROOT
ATOM      1  C   UNL     1       5.712   1.338  -0.322  1.00  0.00     0.080 C 
ENDROOT
BRANCH   1   2
ATOM      2  C   UNL     1       5.128   1.267   1.046  1.00  0.00     0.130 C 
ATOM      3  C   UNL     1       5.410   0.125   1.957  1.00  0.00     0.087 C 
ATOM      4  O   UNL     1       4.395   2.150   1.461  1.00  0.00    -0.300 OA
ENDBRANCH   1   2
BRANCH   1   5
ATOM      5  C   UNL     1       7.212   1.124  -0.292  1.00  0.00     0.043 C 
BRANCH   5   6
ATOM      6  C   UNL     1       7.596  -0.151  -0.923  1.00  0.00    -0.044 A 
ATOM      7  C   UNL     1       7.666  -0.289  -2.314  1.00  0.00     0.008 A 
ATOM      8  C   UNL     1       7.896  -1.239  -0.135  1.00  0.00     0.054 A 
ATOM      9  C   UNL     1       8.033  -1.510  -2.850  1.00  0.00     0.051 A 
ATOM     10  C   UNL     1       8.266  -2.471  -0.681  1.00  0.00     0.166 A 
ATOM     11  C   UNL     1       8.335  -2.608  -2.050  1.00  0.00     0.165 A 
ATOM     12  O   UNL     1       8.607  -3.684  -0.120  1.00  0.00    -0.454 OA
ATOM     13  O   UNL     1       8.721  -3.915  -2.303  1.00  0.00    -0.454 OA
ATOM     14  C   UNL     1       8.992  -4.606  -1.107  1.00  0.00     0.468 C 
ENDBRANCH   5   6
ENDBRANCH   1   5
TORSDOF 3
ENDMDL
MODEL 3
REMARK VINA RESULT:      -7.0      1.261      1.489
REMARK SMILES CC(=O)CCc1ccc2c(c1)OCO2
REMARK SMILES IDX 4 1 2 2 1 3 3 4 5 5 6 6 7 7 11 8 8 9 10 10 9 11 12 12 14 13
REMARK SMILES IDX 13 14
REMARK H PARENT
REMARK Flexibility Score: inf
ROOT
ATOM      1  C   UNL     1       6.398   1.181   0.907  1.00  0.00     0.080 C 
ENDROOT
BRANCH   1   2
ATOM      2  C   UNL     1       5.691   0.360   1.929  1.00  0.00     0.130 C 
ATOM      3  C   UNL     1       6.316  -0.849   2.529  1.00  0.00     0.087 C 
ATOM      4  O   UNL     1       4.569   0.658   2.305  1.00  0.00    -0.300 OA
ENDBRANCH   1   2
BRANCH   1   5
ATOM      5  C   UNL     1       5.885   0.884  -0.489  1.00  0.00     0.043 C 
BRANCH   5   6
ATOM      6  C   UNL     1       6.836   0.062  -1.257  1.00  0.00    -0.044 A 
ATOM      7  C   UNL     1       7.527   0.578  -2.360  1.00  0.00     0.008 A 
ATOM      8  C   UNL     1       7.061  -1.245  -0.888  1.00  0.00     0.054 A 
ATOM      9  C   UNL     1       8.408  -0.241  -3.042  1.00  0.00     0.051 A 
ATOM     10  C   UNL     1       7.954  -2.068  -1.581  1.00  0.00     0.166 A 
ATOM     11  C   UNL     1       8.633  -1.562  -2.667  1.00  0.00     0.165 A 
ATOM     12  O   UNL     1       8.344  -3.380  -1.416  1.00  0.00    -0.454 OA
ATOM     13  O   UNL     1       9.435  -2.584  -3.151  1.00  0.00    -0.454 OA
ATOM     14  C   UNL     1       9.351  -3.726  -2.332  1.00  0.00     0.468 C 
ENDBRANCH   5   6
ENDBRANCH   1   5
TORSDOF 3
ENDMDL
MODEL 4
REMARK VINA RESULT:      -7.0      2.030      2.597
REMARK SMILES CC(=O)CCc1ccc2c(c1)OCO2
REMARK SMILES IDX 4 1 2 2 1 3 3 4 5 5 6 6 7 7 11 8 8 9 10 10 9 11 12 12 14 13
REMARK SMILES IDX 13 14
REMARK H PARENT
REMARK Flexibility Score: inf
ROOT
ATOM      1  C   UNL     1       5.473  -0.063   1.954  1.00  0.00     0.080 C 
ENDROOT
BRANCH   1   2
ATOM      2  C   UNL     1       4.622   1.134   1.704  1.00  0.00     0.130 C 
ATOM      3  C   UNL     1       4.929   2.096   0.613  1.00  0.00     0.087 C 
ATOM      4  O   UNL     1       3.642   1.360   2.395  1.00  0.00    -0.300 OA
ENDBRANCH   1   2
BRANCH   1   5
ATOM      5  C   UNL     1       6.906   0.181   1.524  1.00  0.00     0.043 C 
BRANCH   5   6
ATOM      6  C   UNL     1       7.319  -0.737   0.448  1.00  0.00    -0.044 A 
ATOM      7  C   UNL     1       7.151  -0.407  -0.901  1.00  0.00     0.008 A 
ATOM      8  C   UNL     1       7.886  -1.951   0.767  1.00  0.00     0.054 A 
ATOM      9  C   UNL     1       7.558  -1.309  -1.868  1.00  0.00     0.051 A 
ATOM     10  C   UNL     1       8.296  -2.858  -0.214  1.00  0.00     0.166 A 
ATOM     11  C   UNL     1       8.130  -2.535  -1.543  1.00  0.00     0.165 A 
ATOM     12  O   UNL     1       8.876  -4.108  -0.155  1.00  0.00    -0.454 OA
ATOM     13  O   UNL     1       8.618  -3.603  -2.279  1.00  0.00    -0.454 OA
ATOM     14  C   UNL     1       9.183  -4.583  -1.440  1.00  0.00     0.468 C 
ENDBRANCH   5   6
ENDBRANCH   1   5
TORSDOF 3
ENDMDL
MODEL 5
REMARK VINA RESULT:      -6.8      1.952      2.497
REMARK SMILES CC(=O)CCc1ccc2c(c1)OCO2
REMARK SMILES IDX 4 1 2 2 1 3 3 4 5 5 6 6 7 7 11 8 8 9 10 10 9 11 12 12 14 13
REMARK SMILES IDX 13 14
REMARK H PARENT
REMARK Flexibility Score: inf
ROOT
ATOM      1  C   UNL     1       6.724   0.860   1.358  1.00  0.00     0.080 C 
ENDROOT
BRANCH   1   2
ATOM      2  C   UNL     1       5.276   1.199   1.434  1.00  0.00     0.130 C 
ATOM      3  C   UNL     1       4.644   2.145   0.476  1.00  0.00     0.087 C 
ATOM      4  O   UNL     1       4.561   0.707   2.292  1.00  0.00    -0.300 OA
ENDBRANCH   1   2
BRANCH   1   5
ATOM      5  C   UNL     1       7.268   1.079  -0.040  1.00  0.00     0.043 C 
BRANCH   5   6
ATOM      6  C   UNL     1       7.621  -0.194  -0.694  1.00  0.00    -0.044 A 
ATOM      7  C   UNL     1       7.627  -0.326  -2.087  1.00  0.00     0.008 A 
ATOM      8  C   UNL     1       7.956  -1.286   0.075  1.00  0.00     0.054 A 
ATOM      9  C   UNL     1       7.967  -1.545  -2.645  1.00  0.00     0.051 A 
ATOM     10  C   UNL     1       8.300  -2.516  -0.494  1.00  0.00     0.166 A 
ATOM     11  C   UNL     1       8.305  -2.646  -1.865  1.00  0.00     0.165 A 
ATOM     12  O   UNL     1       8.665  -3.731   0.045  1.00  0.00    -0.454 OA
ATOM     13  O   UNL     1       8.678  -3.952  -2.142  1.00  0.00    -0.454 OA
ATOM     14  C   UNL     1       9.004  -4.649  -0.963  1.00  0.00     0.468 C 
ENDBRANCH   5   6
ENDBRANCH   1   5
TORSDOF 3
ENDMDL
