@<TRIPOS>MOLECULE
/home/cewinharhar/GITHUB/reincatalyze/data/processed/docking_pred/2023-May-22-2206_sub9_nm5_bs15_s42_ex16_mel10_mts10000_k50_ec02_g099_lra9e-4_lrc1e-3/8f3f3cc121b2e0b9b67c9595347d7d2b0dd21437_ligand_9.pdbqt
 14 15 0 0 0
SMALL
GASTEIGER

@<TRIPOS>ATOM
      1  C          5.5030    1.9240    1.2560 C.3     1  UNL1        0.0800
      2  C          5.0690    0.7070    1.9980 C.2     1  UNL1        0.1300
      3  C          5.9650   -0.4680    2.1630 C.3     1  UNL1        0.0870
      4  O          3.9560    0.6400    2.4950 O.2     1  UNL1       -0.3000
      5  C          5.3820    1.7270   -0.2420 C.3     1  UNL1        0.0430
      6  C          6.5520    1.0240   -0.7970 C.2     1  UNL1       -0.0440
      7  C          7.8580    1.4520   -0.5320 C.2     1  UNL1        0.0080
      8  C          6.3680   -0.0820   -1.5950 C.2     1  UNL1        0.0540
      9  C          8.9180    0.7530   -1.0810 C.2     1  UNL1        0.0510
     10  C          7.4430   -0.7860   -2.1470 C.2     1  UNL1        0.1660
     11  C          8.7280   -0.3650   -1.8870 C.2     1  UNL1        0.1650
     12  O          7.5200   -1.8980   -2.9590 O.2     1  UNL1       -0.4540
     13  O          9.5770   -1.2360   -2.5520 O.2     1  UNL1       -0.4540
     14  C          8.8560   -2.2760   -3.1690 C.3     1  UNL1        0.4680
@<TRIPOS>BOND
     1    14    12    1
     2    14    13    1
     3    12    10    1
     4    13    11    1
     5    10    11    2
     6    10     8    1
     7    11     9    1
     8     8     6    2
     9     9     7    2
    10     6     7    1
    11     6     5    1
    12     5     1    1
    13     1     2    1
    14     2     3    1
    15     2     4    2
