@<TRIPOS>MOLECULE
/home/cewinharhar/GITHUB/reincatalyze/data/processed/docking_pred/2023-May-22-2206_sub9_nm5_bs15_s42_ex16_mel10_mts10000_k50_ec02_g099_lra9e-4_lrc1e-3/8f7c925e970cb887b69f6e81c5db99fda922d0ae_ligand_9.pdbqt
 14 15 0 0 0
SMALL
GASTEIGER

@<TRIPOS>ATOM
      1  C          5.6420    1.4590   -0.2140 C.3     1  UNL1        0.0800
      2  C          5.0320    1.2720    1.1320 C.2     1  UNL1        0.1300
      3  C          5.4370    0.1530    2.0240 C.3     1  UNL1        0.0870
      4  O          4.1750    2.0370    1.5440 O.2     1  UNL1       -0.3000
      5  C          7.1380    1.2200   -0.1780 C.3     1  UNL1        0.0430
      6  C          7.4980   -0.0790   -0.7750 C.2     1  UNL1       -0.0440
      7  C          7.4540   -0.2860   -2.1590 C.2     1  UNL1        0.0080
      8  C          7.8920   -1.1180    0.0370 C.2     1  UNL1        0.0540
      9  C          7.8040   -1.5260   -2.6630 C.2     1  UNL1        0.0510
     10  C          8.2450   -2.3690   -0.4780 C.2     1  UNL1        0.1660
     11  C          8.2010   -2.5740   -1.8390 C.2     1  UNL1        0.1650
     12  O          8.6630   -3.5430    0.1110 O.2     1  UNL1       -0.4540
     13  O          8.5970   -3.8840   -2.0590 O.2     1  UNL1       -0.4540
     14  C          8.9860   -4.5070   -0.8580 C.3     1  UNL1        0.4680
@<TRIPOS>BOND
     1     9     7    1
     2     9    11    2
     3     7     6    2
     4    13    11    1
     5    13    14    1
     6    11    10    1
     7    14    12    1
     8     6     5    1
     9     6     8    1
    10    10     8    2
    11    10    12    1
    12     1     5    1
    13     1     2    1
    14     2     4    2
    15     2     3    1
