@<TRIPOS>MOLECULE
/home/cewinharhar/GITHUB/reincatalyze/data/processed/docking_pred/2023-May-22-2206_sub9_nm5_bs15_s42_ex16_mel10_mts10000_k50_ec02_g099_lra9e-4_lrc1e-3/8f7c925e970cb887b69f6e81c5db99fda922d0ae_ligand_9.pdbqt
 14 15 0 0 0
SMALL
GASTEIGER

@<TRIPOS>ATOM
      1  C          6.3800    1.2100    0.9320 C.3     1  UNL1        0.0800
      2  C          5.6950    0.3620    1.9470 C.2     1  UNL1        0.1300
      3  C          6.3500   -0.8380    2.5330 C.3     1  UNL1        0.0870
      4  O          4.5680    0.6300    2.3300 O.2     1  UNL1       -0.3000
      5  C          5.8630    0.9220   -0.4640 C.3     1  UNL1        0.0430
      6  C          6.8100    0.1010   -1.2390 C.2     1  UNL1       -0.0440
      7  C          7.4920    0.6170   -2.3470 C.2     1  UNL1        0.0080
      8  C          7.0390   -1.2060   -0.8720 C.2     1  UNL1        0.0540
      9  C          8.3690   -0.2010   -3.0350 C.2     1  UNL1        0.0510
     10  C          7.9270   -2.0280   -1.5710 C.2     1  UNL1        0.1660
     11  C          8.5980   -1.5220   -2.6620 C.2     1  UNL1        0.1650
     12  O          8.3200   -3.3400   -1.4080 O.2     1  UNL1       -0.4540
     13  O          9.3980   -2.5430   -3.1500 O.2     1  UNL1       -0.4540
     14  C          9.3210   -3.6850   -2.3310 C.3     1  UNL1        0.4680
@<TRIPOS>BOND
     1    13    11    1
     2    13    14    1
     3     9    11    2
     4     9     7    1
     5    11    10    1
     6     7     6    2
     7    14    12    1
     8    10    12    1
     9    10     8    2
    10     6     8    1
    11     6     5    1
    12     5     1    1
    13     1     2    1
    14     2     4    2
    15     2     3    1
