@<TRIPOS>MOLECULE
/home/cewinharhar/GITHUB/reincatalyze/data/processed/docking_pred/2023-May-22-2206_sub9_nm5_bs15_s42_ex16_mel10_mts10000_k50_ec02_g099_lra9e-4_lrc1e-3/8f7e92428ebbeefdf44ae8ea1c0956f20f305f25_ligand_9.pdbqt
 14 15 0 0 0
SMALL
GASTEIGER

@<TRIPOS>ATOM
      1  C          5.7760    0.9080    0.3770 C.3     1  UNL1        0.0800
      2  C          5.4610    0.2530    1.6770 C.2     1  UNL1        0.1300
      3  C          6.2550   -0.8980    2.1850 C.3     1  UNL1        0.0870
      4  O          4.5340    0.6450    2.3680 O.2     1  UNL1       -0.3000
      5  C          6.6220    2.1500    0.5770 C.3     1  UNL1        0.0430
      6  C          8.0400    1.8160    0.7980 C.2     1  UNL1       -0.0440
      7  C          8.8200    1.2330   -0.2070 C.2     1  UNL1        0.0080
      8  C          8.6220    2.0820    2.0160 C.2     1  UNL1        0.0540
      9  C         10.1470    0.9420    0.0570 C.2     1  UNL1        0.0510
     10  C          9.9630    1.7870    2.2780 C.2     1  UNL1        0.1660
     11  C         10.7320    1.2110    1.2900 C.2     1  UNL1        0.1650
     12  O         10.7620    1.9510    3.3900 O.2     1  UNL1       -0.4540
     13  O         11.9990    1.0340    1.8210 O.2     1  UNL1       -0.4540
     14  C         12.0870    1.5720    3.1190 C.3     1  UNL1        0.4680
@<TRIPOS>BOND
     1     7     9    1
     2     7     6    2
     3     9    11    2
     4     1     5    1
     5     1     2    1
     6     5     6    1
     7     6     8    1
     8    11    13    1
     9    11    10    1
    10     2     3    1
    11     2     4    2
    12    13    14    1
    13     8    10    2
    14    10    12    1
    15    14    12    1
