MODEL 1
REMARK VINA RESULT:      -7.7      0.000      0.000
REMARK SMILES CC(=O)CCc1ccc2c(c1)OCO2
REMARK SMILES IDX 4 1 2 2 1 3 3 4 5 5 6 6 7 7 11 8 8 9 10 10 9 11 12 12 14 13
REMARK SMILES IDX 13 14
REMARK H PARENT
REMARK Flexibility Score: inf
ROOT
ATOM      1  C   UNL     1       5.530   1.892   1.285  1.00  0.00     0.080 C 
ENDROOT
BRANCH   1   2
ATOM      2  C   UNL     1       5.081   0.671   2.010  1.00  0.00     0.130 C 
ATOM      3  C   UNL     1       5.967  -0.512   2.169  1.00  0.00     0.087 C 
ATOM      4  O   UNL     1       3.964   0.606   2.496  1.00  0.00    -0.300 OA
ENDBRANCH   1   2
BRANCH   1   5
ATOM      5  C   UNL     1       5.403   1.720  -0.216  1.00  0.00     0.043 C 
BRANCH   5   6
ATOM      6  C   UNL     1       6.570   1.023  -0.786  1.00  0.00    -0.044 A 
ATOM      7  C   UNL     1       7.876   1.464  -0.547  1.00  0.00     0.008 A 
ATOM      8  C   UNL     1       6.382  -0.091  -1.573  1.00  0.00     0.054 A 
ATOM      9  C   UNL     1       8.932   0.769  -1.108  1.00  0.00     0.051 A 
ATOM     10  C   UNL     1       7.453  -0.790  -2.137  1.00  0.00     0.166 A 
ATOM     11  C   UNL     1       8.739  -0.356  -1.903  1.00  0.00     0.165 A 
ATOM     12  O   UNL     1       7.526  -1.907  -2.943  1.00  0.00    -0.454 OA
ATOM     13  O   UNL     1       9.584  -1.225  -2.575  1.00  0.00    -0.454 OA
ATOM     14  C   UNL     1       8.862  -2.276  -3.173  1.00  0.00     0.468 C 
ENDBRANCH   5   6
ENDBRANCH   1   5
TORSDOF 3
ENDMDL
MODEL 2
REMARK VINA RESULT:      -7.5      1.924      2.360
REMARK SMILES CC(=O)CCc1ccc2c(c1)OCO2
REMARK SMILES IDX 4 1 2 2 1 3 3 4 5 5 6 6 7 7 11 8 8 9 10 10 9 11 12 12 14 13
REMARK SMILES IDX 13 14
REMARK H PARENT
REMARK Flexibility Score: inf
ROOT
ATOM      1  C   UNL     1       5.763   1.426  -0.209  1.00  0.00     0.080 C 
ENDROOT
BRANCH   1   2
ATOM      2  C   UNL     1       5.081   1.268   1.106  1.00  0.00     0.130 C 
ATOM      3  C   UNL     1       5.372   0.118   2.003  1.00  0.00     0.087 C 
ATOM      4  O   UNL     1       4.257   2.083   1.487  1.00  0.00    -0.300 OA
ENDBRANCH   1   2
BRANCH   1   5
ATOM      5  C   UNL     1       7.246   1.133  -0.098  1.00  0.00     0.043 C 
BRANCH   5   6
ATOM      6  C   UNL     1       7.599  -0.148  -0.737  1.00  0.00    -0.044 A 
ATOM      7  C   UNL     1       7.616  -0.293  -2.129  1.00  0.00     0.008 A 
ATOM      8  C   UNL     1       7.924  -1.233   0.045  1.00  0.00     0.054 A 
ATOM      9  C   UNL     1       7.955  -1.518  -2.672  1.00  0.00     0.051 A 
ATOM     10  C   UNL     1       8.267  -2.470  -0.509  1.00  0.00     0.166 A 
ATOM     11  C   UNL     1       8.283  -2.614  -1.879  1.00  0.00     0.165 A 
ATOM     12  O   UNL     1       8.623  -3.681   0.045  1.00  0.00    -0.454 OA
ATOM     13  O   UNL     1       8.653  -3.924  -2.140  1.00  0.00    -0.454 OA
ATOM     14  C   UNL     1       8.966  -4.610  -0.952  1.00  0.00     0.468 C 
ENDBRANCH   5   6
ENDBRANCH   1   5
TORSDOF 3
ENDMDL
MODEL 3
REMARK VINA RESULT:      -7.2      2.065      2.632
REMARK SMILES CC(=O)CCc1ccc2c(c1)OCO2
REMARK SMILES IDX 4 1 2 2 1 3 3 4 5 5 6 6 7 7 11 8 8 9 10 10 9 11 12 12 14 13
REMARK SMILES IDX 13 14
REMARK H PARENT
REMARK Flexibility Score: inf
ROOT
ATOM      1  C   UNL     1       5.442  -0.027   2.011  1.00  0.00     0.080 C 
ENDROOT
BRANCH   1   2
ATOM      2  C   UNL     1       4.589   1.158   1.717  1.00  0.00     0.130 C 
ATOM      3  C   UNL     1       4.926   2.111   0.626  1.00  0.00     0.087 C 
ATOM      4  O   UNL     1       3.582   1.382   2.368  1.00  0.00    -0.300 OA
ENDBRANCH   1   2
BRANCH   1   5
ATOM      5  C   UNL     1       6.879   0.211   1.590  1.00  0.00     0.043 C 
BRANCH   5   6
ATOM      6  C   UNL     1       7.300  -0.724   0.531  1.00  0.00    -0.044 A 
ATOM      7  C   UNL     1       7.161  -0.405  -0.825  1.00  0.00     0.008 A 
ATOM      8  C   UNL     1       7.846  -1.940   0.872  1.00  0.00     0.054 A 
ATOM      9  C   UNL     1       7.574  -1.322  -1.775  1.00  0.00     0.051 A 
ATOM     10  C   UNL     1       8.262  -2.863  -0.092  1.00  0.00     0.166 A 
ATOM     11  C   UNL     1       8.125  -2.551  -1.427  1.00  0.00     0.165 A 
ATOM     12  O   UNL     1       8.826  -4.119  -0.010  1.00  0.00    -0.454 OA
ATOM     13  O   UNL     1       8.613  -3.633  -2.143  1.00  0.00    -0.454 OA
ATOM     14  C   UNL     1       9.150  -4.610  -1.285  1.00  0.00     0.468 C 
ENDBRANCH   5   6
ENDBRANCH   1   5
TORSDOF 3
ENDMDL
MODEL 4
REMARK VINA RESULT:      -7.1      1.238      1.421
REMARK SMILES CC(=O)CCc1ccc2c(c1)OCO2
REMARK SMILES IDX 4 1 2 2 1 3 3 4 5 5 6 6 7 7 11 8 8 9 10 10 9 11 12 12 14 13
REMARK SMILES IDX 13 14
REMARK H PARENT
REMARK Flexibility Score: inf
ROOT
ATOM      1  C   UNL     1       6.331   1.230   0.950  1.00  0.00     0.080 C 
ENDROOT
BRANCH   1   2
ATOM      2  C   UNL     1       5.657   0.369   1.961  1.00  0.00     0.130 C 
ATOM      3  C   UNL     1       6.310  -0.850   2.509  1.00  0.00     0.087 C 
ATOM      4  O   UNL     1       4.541   0.641   2.372  1.00  0.00    -0.300 OA
ENDBRANCH   1   2
BRANCH   1   5
ATOM      5  C   UNL     1       5.814   0.947  -0.447  1.00  0.00     0.043 C 
BRANCH   5   6
ATOM      6  C   UNL     1       6.766   0.138  -1.228  1.00  0.00    -0.044 A 
ATOM      7  C   UNL     1       7.444   0.668  -2.333  1.00  0.00     0.008 A 
ATOM      8  C   UNL     1       7.005  -1.169  -0.871  1.00  0.00     0.054 A 
ATOM      9  C   UNL     1       8.327  -0.138  -3.028  1.00  0.00     0.051 A 
ATOM     10  C   UNL     1       7.899  -1.980  -1.577  1.00  0.00     0.166 A 
ATOM     11  C   UNL     1       8.565  -1.460  -2.664  1.00  0.00     0.165 A 
ATOM     12  O   UNL     1       8.302  -3.290  -1.423  1.00  0.00    -0.454 OA
ATOM     13  O   UNL     1       9.372  -2.472  -3.161  1.00  0.00    -0.454 OA
ATOM     14  C   UNL     1       9.305  -3.620  -2.350  1.00  0.00     0.468 C 
ENDBRANCH   5   6
ENDBRANCH   1   5
TORSDOF 3
ENDMDL
MODEL 5
REMARK VINA RESULT:      -6.8      1.185      5.170
REMARK SMILES CC(=O)CCc1ccc2c(c1)OCO2
REMARK SMILES IDX 4 1 2 2 1 3 3 4 5 5 6 6 7 7 11 8 8 9 10 10 9 11 12 12 14 13
REMARK SMILES IDX 13 14
REMARK H PARENT
REMARK Flexibility Score: inf
ROOT
ATOM      1  C   UNL     1       8.361   0.227  -2.601  1.00  0.00     0.080 C 
ENDROOT
BRANCH   1   2
ATOM      2  C   UNL     1       8.027  -1.220  -2.712  1.00  0.00     0.130 C 
ATOM      3  C   UNL     1       9.065  -2.239  -3.026  1.00  0.00     0.087 C 
ATOM      4  O   UNL     1       6.884  -1.614  -2.549  1.00  0.00    -0.300 OA
ENDBRANCH   1   2
BRANCH   1   5
ATOM      5  C   UNL     1       8.874   0.569  -1.216  1.00  0.00     0.043 C 
BRANCH   5   6
ATOM      6  C   UNL     1       7.822   0.428  -0.194  1.00  0.00    -0.044 A 
ATOM      7  C   UNL     1       7.901  -0.543   0.811  1.00  0.00     0.008 A 
ATOM      8  C   UNL     1       6.733   1.269  -0.216  1.00  0.00     0.054 A 
ATOM      9  C   UNL     1       6.884  -0.628   1.744  1.00  0.00     0.051 A 
ATOM     10  C   UNL     1       5.707   1.180   0.731  1.00  0.00     0.166 A 
ATOM     11  C   UNL     1       5.784   0.223   1.718  1.00  0.00     0.165 A 
ATOM     12  O   UNL     1       4.539   1.887   0.920  1.00  0.00    -0.454 OA
ATOM     13  O   UNL     1       4.649   0.365   2.502  1.00  0.00    -0.454 OA
ATOM     14  C   UNL     1       3.878   1.467   2.085  1.00  0.00     0.468 C 
ENDBRANCH   5   6
ENDBRANCH   1   5
TORSDOF 3
ENDMDL
