@<TRIPOS>MOLECULE
/home/cewinharhar/GITHUB/reincatalyze/data/processed/docking_pred/2023-May-22-2206_sub9_nm5_bs15_s42_ex16_mel10_mts10000_k50_ec02_g099_lra9e-4_lrc1e-3/90bec1d2941dc3e2c4ee946d92d9c3e8ec331448_ligand_9.pdbqt
 14 15 0 0 0
SMALL
GASTEIGER

@<TRIPOS>ATOM
      1  C          5.4420   -0.0270    2.0110 C.3     1  UNL1        0.0800
      2  C          4.5890    1.1580    1.7170 C.2     1  UNL1        0.1300
      3  C          4.9260    2.1110    0.6260 C.3     1  UNL1        0.0870
      4  O          3.5820    1.3820    2.3680 O.2     1  UNL1       -0.3000
      5  C          6.8790    0.2110    1.5900 C.3     1  UNL1        0.0430
      6  C          7.3000   -0.7240    0.5310 C.2     1  UNL1       -0.0440
      7  C          7.1610   -0.4050   -0.8250 C.2     1  UNL1        0.0080
      8  C          7.8460   -1.9400    0.8720 C.2     1  UNL1        0.0540
      9  C          7.5740   -1.3220   -1.7750 C.2     1  UNL1        0.0510
     10  C          8.2620   -2.8630   -0.0920 C.2     1  UNL1        0.1660
     11  C          8.1250   -2.5510   -1.4270 C.2     1  UNL1        0.1650
     12  O          8.8260   -4.1190   -0.0100 O.2     1  UNL1       -0.4540
     13  O          8.6130   -3.6330   -2.1430 O.2     1  UNL1       -0.4540
     14  C          9.1500   -4.6100   -1.2850 C.3     1  UNL1        0.4680
@<TRIPOS>BOND
     1    13    11    1
     2    13    14    1
     3     9    11    2
     4     9     7    1
     5    11    10    1
     6    14    12    1
     7     7     6    2
     8    10    12    1
     9    10     8    2
    10     6     8    1
    11     6     5    1
    12     3     2    1
    13     5     1    1
    14     2     1    1
    15     2     4    2
