@<TRIPOS>MOLECULE
/home/cewinharhar/GITHUB/reincatalyze/data/processed/docking_pred/2023-May-22-2206_sub9_nm5_bs15_s42_ex16_mel10_mts10000_k50_ec02_g099_lra9e-4_lrc1e-3/90bec1d2941dc3e2c4ee946d92d9c3e8ec331448_ligand_9.pdbqt
 14 15 0 0 0
SMALL
GASTEIGER

@<TRIPOS>ATOM
      1  C          5.7630    1.4260   -0.2090 C.3     1  UNL1        0.0800
      2  C          5.0810    1.2680    1.1060 C.2     1  UNL1        0.1300
      3  C          5.3720    0.1180    2.0030 C.3     1  UNL1        0.0870
      4  O          4.2570    2.0830    1.4870 O.2     1  UNL1       -0.3000
      5  C          7.2460    1.1330   -0.0980 C.3     1  UNL1        0.0430
      6  C          7.5990   -0.1480   -0.7370 C.2     1  UNL1       -0.0440
      7  C          7.6160   -0.2930   -2.1290 C.2     1  UNL1        0.0080
      8  C          7.9240   -1.2330    0.0450 C.2     1  UNL1        0.0540
      9  C          7.9550   -1.5180   -2.6720 C.2     1  UNL1        0.0510
     10  C          8.2670   -2.4700   -0.5090 C.2     1  UNL1        0.1660
     11  C          8.2830   -2.6140   -1.8790 C.2     1  UNL1        0.1650
     12  O          8.6230   -3.6810    0.0450 O.2     1  UNL1       -0.4540
     13  O          8.6530   -3.9240   -2.1400 O.2     1  UNL1       -0.4540
     14  C          8.9660   -4.6100   -0.9520 C.3     1  UNL1        0.4680
@<TRIPOS>BOND
     1     9     7    1
     2     9    11    2
     3    13    11    1
     4    13    14    1
     5     7     6    2
     6    11    10    1
     7    14    12    1
     8     6     5    1
     9     6     8    1
    10    10     8    2
    11    10    12    1
    12     1     5    1
    13     1     2    1
    14     2     4    2
    15     2     3    1
