@<TRIPOS>MOLECULE
/home/cewinharhar/GITHUB/reincatalyze/data/processed/docking_pred/2023-May-22-2206_sub9_nm5_bs15_s42_ex16_mel10_mts10000_k50_ec02_g099_lra9e-4_lrc1e-3/90bec1d2941dc3e2c4ee946d92d9c3e8ec331448_ligand_9.pdbqt
 14 15 0 0 0
SMALL
GASTEIGER

@<TRIPOS>ATOM
      1  C          5.5300    1.8920    1.2850 C.3     1  UNL1        0.0800
      2  C          5.0810    0.6710    2.0100 C.2     1  UNL1        0.1300
      3  C          5.9670   -0.5120    2.1690 C.3     1  UNL1        0.0870
      4  O          3.9640    0.6060    2.4960 O.2     1  UNL1       -0.3000
      5  C          5.4030    1.7200   -0.2160 C.3     1  UNL1        0.0430
      6  C          6.5700    1.0230   -0.7860 C.2     1  UNL1       -0.0440
      7  C          7.8760    1.4640   -0.5470 C.2     1  UNL1        0.0080
      8  C          6.3820   -0.0910   -1.5730 C.2     1  UNL1        0.0540
      9  C          8.9320    0.7690   -1.1080 C.2     1  UNL1        0.0510
     10  C          7.4530   -0.7900   -2.1370 C.2     1  UNL1        0.1660
     11  C          8.7390   -0.3560   -1.9030 C.2     1  UNL1        0.1650
     12  O          7.5260   -1.9070   -2.9430 O.2     1  UNL1       -0.4540
     13  O          9.5840   -1.2250   -2.5750 O.2     1  UNL1       -0.4540
     14  C          8.8620   -2.2760   -3.1730 C.3     1  UNL1        0.4680
@<TRIPOS>BOND
     1    14    12    1
     2    14    13    1
     3    12    10    1
     4    13    11    1
     5    10    11    2
     6    10     8    1
     7    11     9    1
     8     8     6    2
     9     9     7    2
    10     6     7    1
    11     6     5    1
    12     5     1    1
    13     1     2    1
    14     2     3    1
    15     2     4    2
