@<TRIPOS>MOLECULE
/home/cewinharhar/GITHUB/reincatalyze/data/processed/docking_pred/2023-May-22-2206_sub9_nm5_bs15_s42_ex16_mel10_mts10000_k50_ec02_g099_lra9e-4_lrc1e-3/9282b18981f6708324b0af4486d36de930a99903_ligand_9.pdbqt
 14 15 0 0 0
SMALL
GASTEIGER

@<TRIPOS>ATOM
      1  C          3.1600   -8.5300   -0.7680 C.3     1  UNL1        0.0800
      2  C          2.5500   -7.5230    0.1440 C.2     1  UNL1        0.1300
      3  C          2.3190   -6.1180   -0.2870 C.3     1  UNL1        0.0870
      4  O          2.2210   -7.8240    1.2800 O.2     1  UNL1       -0.3000
      5  C          2.0970   -9.3190   -1.5060 C.3     1  UNL1        0.0430
      6  C          1.0280   -9.7760   -0.6010 C.2     1  UNL1       -0.0440
      7  C         -0.1740   -9.0710   -0.4700 C.2     1  UNL1        0.0080
      8  C          1.2030  -10.9250    0.1370 C.2     1  UNL1        0.0540
      9  C         -1.1420   -9.5480    0.3950 C.2     1  UNL1        0.0510
     10  C          0.2210  -11.4040    1.0100 C.2     1  UNL1        0.1660
     11  C         -0.9610  -10.7090    1.1400 C.2     1  UNL1        0.1650
     12  O          0.1580  -12.5020    1.8410 O.2     1  UNL1       -0.4540
     13  O         -1.7340  -11.4030    2.0570 O.2     1  UNL1       -0.4540
     14  C         -1.1010  -12.5950    2.4580 C.3     1  UNL1        0.4680
@<TRIPOS>BOND
     1     5     1    1
     2     5     6    1
     3     1     2    1
     4     6     7    2
     5     6     8    1
     6     7     9    1
     7     3     2    1
     8     8    10    2
     9     2     4    2
    10     9    11    2
    11    10    11    1
    12    10    12    1
    13    11    13    1
    14    12    14    1
    15    13    14    1
