@<TRIPOS>MOLECULE
/home/cewinharhar/GITHUB/reincatalyze/data/processed/docking_pred/2023-May-22-2206_sub9_nm5_bs15_s42_ex16_mel10_mts10000_k50_ec02_g099_lra9e-4_lrc1e-3/9282b18981f6708324b0af4486d36de930a99903_ligand_9.pdbqt
 14 15 0 0 0
SMALL
GASTEIGER

@<TRIPOS>ATOM
      1  C          3.0150   -8.4090   -1.0000 C.3     1  UNL1        0.0800
      2  C          2.4420   -7.4350   -0.0300 C.2     1  UNL1        0.1300
      3  C          2.3020   -5.9920   -0.3620 C.3     1  UNL1        0.0870
      4  O          2.0680   -7.7970    1.0740 O.2     1  UNL1       -0.3000
      5  C          1.9700   -9.4060   -1.4610 C.3     1  UNL1        0.0430
      6  C          1.4980  -10.2540   -0.3520 C.2     1  UNL1       -0.0440
      7  C          2.3910  -10.8660    0.5350 C.2     1  UNL1        0.0080
      8  C          0.1480  -10.4550   -0.1740 C.2     1  UNL1        0.0540
      9  C          1.8890  -11.6500    1.5580 C.2     1  UNL1        0.0510
     10  C         -0.3540  -11.2480    0.8620 C.2     1  UNL1        0.1660
     11  C          0.5240  -11.8510    1.7350 C.2     1  UNL1        0.1650
     12  O         -1.6330  -11.5970    1.2430 O.2     1  UNL1       -0.4540
     13  O         -0.2420  -12.5640    2.6440 O.2     1  UNL1       -0.4540
     14  C         -1.6170  -12.3570    2.4240 C.3     1  UNL1        0.4680
@<TRIPOS>BOND
     1     5     1    1
     2     5     6    1
     3     1     2    1
     4     3     2    1
     5     6     8    2
     6     6     7    1
     7     8    10    1
     8     2     4    2
     9     7     9    2
    10    10    12    1
    11    10    11    2
    12    12    14    1
    13     9    11    1
    14    11    13    1
    15    14    13    1
