@<TRIPOS>MOLECULE
/home/cewinharhar/GITHUB/reincatalyze/data/processed/docking_pred/2023-May-22-2206_sub9_nm5_bs15_s42_ex16_mel10_mts10000_k50_ec02_g099_lra9e-4_lrc1e-3/9282b18981f6708324b0af4486d36de930a99903_ligand_9.pdbqt
 14 15 0 0 0
SMALL
GASTEIGER

@<TRIPOS>ATOM
      1  C          2.3840   -7.8680   -1.0960 C.3     1  UNL1        0.0800
      2  C          2.4170   -6.6330   -0.2650 C.2     1  UNL1        0.1300
      3  C          2.4010   -5.2780   -0.8780 C.3     1  UNL1        0.0870
      4  O          2.4590   -6.6980    0.9530 O.2     1  UNL1       -0.3000
      5  C          3.0520   -9.0280   -0.3850 C.3     1  UNL1        0.0430
      6  C          2.0670   -9.9180    0.2550 C.2     1  UNL1       -0.0440
      7  C          2.4370  -11.1560    0.7920 C.2     1  UNL1        0.0080
      8  C          0.7490   -9.5300    0.3340 C.2     1  UNL1        0.0540
      9  C          1.4690  -11.9480    1.3810 C.2     1  UNL1        0.0510
     10  C         -0.2260  -10.3350    0.9320 C.2     1  UNL1        0.1660
     11  C          0.1370  -11.5540    1.4590 C.2     1  UNL1        0.1650
     12  O         -1.5810  -10.1770    1.1320 O.2     1  UNL1       -0.4540
     13  O         -1.0140  -12.1250    1.9790 O.2     1  UNL1       -0.4540
     14  C         -2.1090  -11.2470    1.8730 C.3     1  UNL1        0.4680
@<TRIPOS>BOND
     1     1     5    1
     2     1     2    1
     3     3     2    1
     4     5     6    1
     5     2     4    2
     6     6     8    2
     7     6     7    1
     8     8    10    1
     9     7     9    2
    10    10    12    1
    11    10    11    2
    12    12    14    1
    13     9    11    1
    14    11    13    1
    15    14    13    1
