MODEL 1
REMARK VINA RESULT:      -1.5      0.000      0.000
REMARK SMILES CC(=O)CCc1ccc2c(c1)OCO2
REMARK SMILES IDX 4 1 2 2 1 3 3 4 5 5 6 6 7 7 11 8 8 9 10 10 9 11 12 12 14 13
REMARK SMILES IDX 13 14
REMARK H PARENT
REMARK Flexibility Score: inf
ROOT
ATOM      1  C   UNL     1      -0.223 -11.874   2.302  1.00  0.00     0.080 C 
ENDROOT
BRANCH   1   2
ATOM      2  C   UNL     1      -1.407 -11.568   1.451  1.00  0.00     0.130 C 
ATOM      3  C   UNL     1      -2.035 -10.219   1.443  1.00  0.00     0.087 C 
ATOM      4  O   UNL     1      -1.899 -12.421   0.731  1.00  0.00    -0.300 OA
ENDBRANCH   1   2
BRANCH   1   5
ATOM      5  C   UNL     1       1.014 -12.113   1.459  1.00  0.00     0.043 C 
BRANCH   5   6
ATOM      6  C   UNL     1       1.381 -10.919   0.677  1.00  0.00    -0.044 A 
ATOM      7  C   UNL     1       1.483 -10.960  -0.719  1.00  0.00     0.008 A 
ATOM      8  C   UNL     1       1.629  -9.730   1.323  1.00  0.00     0.054 A 
ATOM      9  C   UNL     1       1.830  -9.808  -1.400  1.00  0.00     0.051 A 
ATOM     10  C   UNL     1       1.980  -8.567   0.630  1.00  0.00     0.166 A 
ATOM     11  C   UNL     1       2.082  -8.607  -0.743  1.00  0.00     0.165 A 
ATOM     12  O   UNL     1       2.273  -7.283   1.036  1.00  0.00    -0.454 OA
ATOM     13  O   UNL     1       2.437  -7.332  -1.156  1.00  0.00    -0.454 OA
ATOM     14  C   UNL     1       2.481  -6.440  -0.068  1.00  0.00     0.468 C 
ENDBRANCH   5   6
ENDBRANCH   1   5
TORSDOF 3
ENDMDL
MODEL 2
REMARK VINA RESULT:       0.8      1.239      5.036
REMARK SMILES CC(=O)CCc1ccc2c(c1)OCO2
REMARK SMILES IDX 4 1 2 2 1 3 3 4 5 5 6 6 7 7 11 8 8 9 10 10 9 11 12 12 14 13
REMARK SMILES IDX 13 14
REMARK H PARENT
REMARK Flexibility Score: inf
ROOT
ATOM      1  C   UNL     1       2.384  -7.868  -1.096  1.00  0.00     0.080 C 
ENDROOT
BRANCH   1   2
ATOM      2  C   UNL     1       2.417  -6.633  -0.265  1.00  0.00     0.130 C 
ATOM      3  C   UNL     1       2.401  -5.278  -0.878  1.00  0.00     0.087 C 
ATOM      4  O   UNL     1       2.459  -6.698   0.953  1.00  0.00    -0.300 OA
ENDBRANCH   1   2
BRANCH   1   5
ATOM      5  C   UNL     1       3.052  -9.028  -0.385  1.00  0.00     0.043 C 
BRANCH   5   6
ATOM      6  C   UNL     1       2.067  -9.918   0.255  1.00  0.00    -0.044 A 
ATOM      7  C   UNL     1       2.437 -11.156   0.792  1.00  0.00     0.008 A 
ATOM      8  C   UNL     1       0.749  -9.530   0.334  1.00  0.00     0.054 A 
ATOM      9  C   UNL     1       1.469 -11.948   1.381  1.00  0.00     0.051 A 
ATOM     10  C   UNL     1      -0.226 -10.335   0.932  1.00  0.00     0.166 A 
ATOM     11  C   UNL     1       0.137 -11.554   1.459  1.00  0.00     0.165 A 
ATOM     12  O   UNL     1      -1.581 -10.177   1.132  1.00  0.00    -0.454 OA
ATOM     13  O   UNL     1      -1.014 -12.125   1.979  1.00  0.00    -0.454 OA
ATOM     14  C   UNL     1      -2.109 -11.247   1.873  1.00  0.00     0.468 C 
ENDBRANCH   5   6
ENDBRANCH   1   5
TORSDOF 3
ENDMDL
MODEL 3
REMARK VINA RESULT:       0.8      0.978      1.128
REMARK SMILES CC(=O)CCc1ccc2c(c1)OCO2
REMARK SMILES IDX 4 1 2 2 1 3 3 4 5 5 6 6 7 7 11 8 8 9 10 10 9 11 12 12 14 13
REMARK SMILES IDX 13 14
REMARK H PARENT
REMARK Flexibility Score: inf
ROOT
ATOM      1  C   UNL     1      -0.173 -12.090   0.775  1.00  0.00     0.080 C 
ENDROOT
BRANCH   1   2
ATOM      2  C   UNL     1      -1.104 -11.435   1.735  1.00  0.00     0.130 C 
ATOM      3  C   UNL     1      -1.551 -12.118   2.979  1.00  0.00     0.087 C 
ATOM      4  O   UNL     1      -1.529 -10.310   1.528  1.00  0.00    -0.300 OA
ENDBRANCH   1   2
BRANCH   1   5
ATOM      5  C   UNL     1       1.264 -11.687   1.039  1.00  0.00     0.043 C 
BRANCH   5   6
ATOM      6  C   UNL     1       1.622 -10.445   0.330  1.00  0.00    -0.044 A 
ATOM      7  C   UNL     1       1.791 -10.417  -1.059  1.00  0.00     0.008 A 
ATOM      8  C   UNL     1       1.795  -9.279   1.040  1.00  0.00     0.054 A 
ATOM      9  C   UNL     1       2.126  -9.222  -1.670  1.00  0.00     0.051 A 
ATOM     10  C   UNL     1       2.133  -8.074   0.418  1.00  0.00     0.166 A 
ATOM     11  C   UNL     1       2.301  -8.046  -0.949  1.00  0.00     0.165 A 
ATOM     12  O   UNL     1       2.358  -6.800   0.896  1.00  0.00    -0.454 OA
ATOM     13  O   UNL     1       2.627  -6.741  -1.285  1.00  0.00    -0.454 OA
ATOM     14  C   UNL     1       2.585  -5.900  -0.158  1.00  0.00     0.468 C 
ENDBRANCH   5   6
ENDBRANCH   1   5
TORSDOF 3
ENDMDL
MODEL 4
REMARK VINA RESULT:       1.2      1.232      5.037
REMARK SMILES CC(=O)CCc1ccc2c(c1)OCO2
REMARK SMILES IDX 4 1 2 2 1 3 3 4 5 5 6 6 7 7 11 8 8 9 10 10 9 11 12 12 14 13
REMARK SMILES IDX 13 14
REMARK H PARENT
REMARK Flexibility Score: inf
ROOT
ATOM      1  C   UNL     1       3.015  -8.409  -1.000  1.00  0.00     0.080 C 
ENDROOT
BRANCH   1   2
ATOM      2  C   UNL     1       2.442  -7.435  -0.030  1.00  0.00     0.130 C 
ATOM      3  C   UNL     1       2.302  -5.992  -0.362  1.00  0.00     0.087 C 
ATOM      4  O   UNL     1       2.068  -7.797   1.074  1.00  0.00    -0.300 OA
ENDBRANCH   1   2
BRANCH   1   5
ATOM      5  C   UNL     1       1.970  -9.406  -1.461  1.00  0.00     0.043 C 
BRANCH   5   6
ATOM      6  C   UNL     1       1.498 -10.254  -0.352  1.00  0.00    -0.044 A 
ATOM      7  C   UNL     1       2.391 -10.866   0.535  1.00  0.00     0.008 A 
ATOM      8  C   UNL     1       0.148 -10.455  -0.174  1.00  0.00     0.054 A 
ATOM      9  C   UNL     1       1.889 -11.650   1.558  1.00  0.00     0.051 A 
ATOM     10  C   UNL     1      -0.354 -11.248   0.862  1.00  0.00     0.166 A 
ATOM     11  C   UNL     1       0.524 -11.851   1.735  1.00  0.00     0.165 A 
ATOM     12  O   UNL     1      -1.633 -11.597   1.243  1.00  0.00    -0.454 OA
ATOM     13  O   UNL     1      -0.242 -12.564   2.644  1.00  0.00    -0.454 OA
ATOM     14  C   UNL     1      -1.617 -12.357   2.424  1.00  0.00     0.468 C 
ENDBRANCH   5   6
ENDBRANCH   1   5
TORSDOF 3
ENDMDL
MODEL 5
REMARK VINA RESULT:       1.2      1.324      4.982
REMARK SMILES CC(=O)CCc1ccc2c(c1)OCO2
REMARK SMILES IDX 4 1 2 2 1 3 3 4 5 5 6 6 7 7 11 8 8 9 10 10 9 11 12 12 14 13
REMARK SMILES IDX 13 14
REMARK H PARENT
REMARK Flexibility Score: inf
ROOT
ATOM      1  C   UNL     1       3.160  -8.530  -0.768  1.00  0.00     0.080 C 
ENDROOT
BRANCH   1   2
ATOM      2  C   UNL     1       2.550  -7.523   0.144  1.00  0.00     0.130 C 
ATOM      3  C   UNL     1       2.319  -6.118  -0.287  1.00  0.00     0.087 C 
ATOM      4  O   UNL     1       2.221  -7.824   1.280  1.00  0.00    -0.300 OA
ENDBRANCH   1   2
BRANCH   1   5
ATOM      5  C   UNL     1       2.097  -9.319  -1.506  1.00  0.00     0.043 C 
BRANCH   5   6
ATOM      6  C   UNL     1       1.028  -9.776  -0.601  1.00  0.00    -0.044 A 
ATOM      7  C   UNL     1      -0.174  -9.071  -0.470  1.00  0.00     0.008 A 
ATOM      8  C   UNL     1       1.203 -10.925   0.137  1.00  0.00     0.054 A 
ATOM      9  C   UNL     1      -1.142  -9.548   0.395  1.00  0.00     0.051 A 
ATOM     10  C   UNL     1       0.221 -11.404   1.010  1.00  0.00     0.166 A 
ATOM     11  C   UNL     1      -0.961 -10.709   1.140  1.00  0.00     0.165 A 
ATOM     12  O   UNL     1       0.158 -12.502   1.841  1.00  0.00    -0.454 OA
ATOM     13  O   UNL     1      -1.734 -11.403   2.057  1.00  0.00    -0.454 OA
ATOM     14  C   UNL     1      -1.101 -12.595   2.458  1.00  0.00     0.468 C 
ENDBRANCH   5   6
ENDBRANCH   1   5
TORSDOF 3
ENDMDL
