@<TRIPOS>MOLECULE
/home/cewinharhar/GITHUB/reincatalyze/data/processed/docking_pred/2023-May-22-2206_sub9_nm5_bs15_s42_ex16_mel10_mts10000_k50_ec02_g099_lra9e-4_lrc1e-3/93729015d2eae5d77a57d6a320781fee3b96b201_ligand_9.pdbqt
 14 15 0 0 0
SMALL
GASTEIGER

@<TRIPOS>ATOM
      1  C          5.3290   -0.0600    1.9790 C.3     1  UNL1        0.0800
      2  C          4.4410    1.1210    1.7880 C.2     1  UNL1        0.1300
      3  C          4.7230    2.1500    0.7520 C.3     1  UNL1        0.0870
      4  O          3.4500    1.2780    2.4830 O.2     1  UNL1       -0.3000
      5  C          6.7910    0.3330    1.9080 C.3     1  UNL1        0.0430
      6  C          7.3910   -0.0290    0.6110 C.2     1  UNL1       -0.0440
      7  C          7.8830    0.9430   -0.2660 C.2     1  UNL1        0.0080
      8  C          7.4770   -1.3540    0.2460 C.2     1  UNL1        0.0540
      9  C          8.4370    0.5440   -1.4690 C.2     1  UNL1        0.0510
     10  C          8.0390   -1.7530   -0.9710 C.2     1  UNL1        0.1660
     11  C          8.5220   -0.7960   -1.8350 C.2     1  UNL1        0.1650
     12  O          8.2360   -2.9860   -1.5550 O.2     1  UNL1       -0.4540
     13  O          9.0120   -1.4690   -2.9440 O.2     1  UNL1       -0.4540
     14  C          8.9330   -2.8630   -2.7680 C.3     1  UNL1        0.4680
@<TRIPOS>BOND
     1    13    14    1
     2    13    11    1
     3    14    12    1
     4    11     9    2
     5    11    10    1
     6    12    10    1
     7     9     7    1
     8    10     8    2
     9     7     6    2
    10     8     6    1
    11     6     5    1
    12     3     2    1
    13     2     1    1
    14     2     4    2
    15     5     1    1
