@<TRIPOS>MOLECULE
/home/cewinharhar/GITHUB/reincatalyze/data/processed/docking_pred/2023-May-22-2206_sub9_nm5_bs15_s42_ex16_mel10_mts10000_k50_ec02_g099_lra9e-4_lrc1e-3/93729015d2eae5d77a57d6a320781fee3b96b201_ligand_9.pdbqt
 14 15 0 0 0
SMALL
GASTEIGER

@<TRIPOS>ATOM
      1  C          5.7150    1.3480   -0.2560 C.3     1  UNL1        0.0800
      2  C          5.1120    1.2620    1.1030 C.2     1  UNL1        0.1300
      3  C          5.4290    0.1430    2.0290 C.3     1  UNL1        0.0870
      4  O          4.3330    2.1150    1.4970 O.2     1  UNL1       -0.3000
      5  C          7.2130    1.1180   -0.2090 C.3     1  UNL1        0.0430
      6  C          7.5880   -0.1650   -0.8290 C.2     1  UNL1       -0.0440
      7  C          7.6530   -0.3160   -2.2190 C.2     1  UNL1        0.0080
      8  C          7.8870   -1.2460   -0.0320 C.2     1  UNL1        0.0540
      9  C          8.0130   -1.5440   -2.7450 C.2     1  UNL1        0.0510
     10  C          8.2510   -2.4850   -0.5680 C.2     1  UNL1        0.1660
     11  C          8.3140   -2.6350   -1.9360 C.2     1  UNL1        0.1650
     12  O          8.5880   -3.6940    0.0030 O.2     1  UNL1       -0.4540
     13  O          8.6940   -3.9460   -2.1780 O.2     1  UNL1       -0.4540
     14  C          8.9660   -4.6270   -0.9760 C.3     1  UNL1        0.4680
@<TRIPOS>BOND
     1     9     7    1
     2     9    11    2
     3     7     6    2
     4    13    11    1
     5    13    14    1
     6    11    10    1
     7    14    12    1
     8     6     5    1
     9     6     8    1
    10    10     8    2
    11    10    12    1
    12     1     5    1
    13     1     2    1
    14     2     4    2
    15     2     3    1
