@<TRIPOS>MOLECULE
/home/cewinharhar/GITHUB/reincatalyze/data/processed/docking_pred/2023-May-22-2206_sub9_nm5_bs15_s42_ex16_mel10_mts10000_k50_ec02_g099_lra9e-4_lrc1e-3/93729015d2eae5d77a57d6a320781fee3b96b201_ligand_9.pdbqt
 14 15 0 0 0
SMALL
GASTEIGER

@<TRIPOS>ATOM
      1  C          5.5720    0.0120    1.9410 C.3     1  UNL1        0.0800
      2  C          4.6730    1.1600    1.6360 C.2     1  UNL1        0.1300
      3  C          4.9460    2.0850    0.5030 C.3     1  UNL1        0.0870
      4  O          3.6810    1.3760    2.3120 O.2     1  UNL1       -0.3000
      5  C          6.9840    0.2730    1.4560 C.3     1  UNL1        0.0430
      6  C          7.3950   -0.6950    0.4230 C.2     1  UNL1       -0.0440
      7  C          7.3120   -0.3920   -0.9400 C.2     1  UNL1        0.0080
      8  C          7.8760   -1.9290    0.7980 C.2     1  UNL1        0.0540
      9  C          7.7140   -1.3400   -1.8640 C.2     1  UNL1        0.0510
     10  C          8.2810   -2.8830   -0.1390 C.2     1  UNL1        0.1660
     11  C          8.1990   -2.5860   -1.4810 C.2     1  UNL1        0.1650
     12  O          8.7850   -4.1610   -0.0220 O.2     1  UNL1       -0.4540
     13  O          8.6600   -3.6990   -2.1670 O.2     1  UNL1       -0.4540
     14  C          9.1270   -4.6860   -1.2790 C.3     1  UNL1        0.4680
@<TRIPOS>BOND
     1    13    11    1
     2    13    14    1
     3     9    11    2
     4     9     7    1
     5    11    10    1
     6    14    12    1
     7     7     6    2
     8    10    12    1
     9    10     8    2
    10     6     8    1
    11     6     5    1
    12     3     2    1
    13     5     1    1
    14     2     1    1
    15     2     4    2
