MODEL 1
REMARK VINA RESULT:      -7.6      0.000      0.000
REMARK SMILES CC(=O)CCc1ccc2c(c1)OCO2
REMARK SMILES IDX 4 1 2 2 1 3 3 4 5 5 6 6 7 7 11 8 8 9 10 10 9 11 12 12 14 13
REMARK SMILES IDX 13 14
REMARK H PARENT
REMARK Flexibility Score: inf
ROOT
ATOM      1  C   UNL     1       5.563   1.918   1.284  1.00  0.00     0.080 C 
ENDROOT
BRANCH   1   2
ATOM      2  C   UNL     1       5.128   0.700   2.024  1.00  0.00     0.130 C 
ATOM      3  C   UNL     1       6.032  -0.466   2.208  1.00  0.00     0.087 C 
ATOM      4  O   UNL     1       4.008   0.625   2.503  1.00  0.00    -0.300 OA
ENDBRANCH   1   2
BRANCH   1   5
ATOM      5  C   UNL     1       5.426   1.731  -0.214  1.00  0.00     0.043 C 
BRANCH   5   6
ATOM      6  C   UNL     1       6.588   1.027  -0.785  1.00  0.00    -0.044 A 
ATOM      7  C   UNL     1       7.898   1.459  -0.544  1.00  0.00     0.008 A 
ATOM      8  C   UNL     1       6.393  -0.084  -1.574  1.00  0.00     0.054 A 
ATOM      9  C   UNL     1       8.949   0.759  -1.106  1.00  0.00     0.051 A 
ATOM     10  C   UNL     1       7.460  -0.789  -2.139  1.00  0.00     0.166 A 
ATOM     11  C   UNL     1       8.749  -0.364  -1.903  1.00  0.00     0.165 A 
ATOM     12  O   UNL     1       7.526  -1.904  -2.947  1.00  0.00    -0.454 OA
ATOM     13  O   UNL     1       9.588  -1.237  -2.577  1.00  0.00    -0.454 OA
ATOM     14  C   UNL     1       8.860  -2.281  -3.177  1.00  0.00     0.468 C 
ENDBRANCH   5   6
ENDBRANCH   1   5
TORSDOF 3
ENDMDL
MODEL 2
REMARK VINA RESULT:      -7.4      1.911      2.358
REMARK SMILES CC(=O)CCc1ccc2c(c1)OCO2
REMARK SMILES IDX 4 1 2 2 1 3 3 4 5 5 6 6 7 7 11 8 8 9 10 10 9 11 12 12 14 13
REMARK SMILES IDX 13 14
REMARK H PARENT
REMARK Flexibility Score: inf
ROOT
ATOM      1  C   UNL     1       5.715   1.348  -0.256  1.00  0.00     0.080 C 
ENDROOT
BRANCH   1   2
ATOM      2  C   UNL     1       5.112   1.262   1.103  1.00  0.00     0.130 C 
ATOM      3  C   UNL     1       5.429   0.143   2.029  1.00  0.00     0.087 C 
ATOM      4  O   UNL     1       4.333   2.115   1.497  1.00  0.00    -0.300 OA
ENDBRANCH   1   2
BRANCH   1   5
ATOM      5  C   UNL     1       7.213   1.118  -0.209  1.00  0.00     0.043 C 
BRANCH   5   6
ATOM      6  C   UNL     1       7.588  -0.165  -0.829  1.00  0.00    -0.044 A 
ATOM      7  C   UNL     1       7.653  -0.316  -2.219  1.00  0.00     0.008 A 
ATOM      8  C   UNL     1       7.887  -1.246  -0.032  1.00  0.00     0.054 A 
ATOM      9  C   UNL     1       8.013  -1.544  -2.745  1.00  0.00     0.051 A 
ATOM     10  C   UNL     1       8.251  -2.485  -0.568  1.00  0.00     0.166 A 
ATOM     11  C   UNL     1       8.314  -2.635  -1.936  1.00  0.00     0.165 A 
ATOM     12  O   UNL     1       8.588  -3.694   0.003  1.00  0.00    -0.454 OA
ATOM     13  O   UNL     1       8.694  -3.946  -2.178  1.00  0.00    -0.454 OA
ATOM     14  C   UNL     1       8.966  -4.627  -0.976  1.00  0.00     0.468 C 
ENDBRANCH   5   6
ENDBRANCH   1   5
TORSDOF 3
ENDMDL
MODEL 3
REMARK VINA RESULT:      -7.1      2.093      2.622
REMARK SMILES CC(=O)CCc1ccc2c(c1)OCO2
REMARK SMILES IDX 4 1 2 2 1 3 3 4 5 5 6 6 7 7 11 8 8 9 10 10 9 11 12 12 14 13
REMARK SMILES IDX 13 14
REMARK H PARENT
REMARK Flexibility Score: inf
ROOT
ATOM      1  C   UNL     1       5.572   0.012   1.941  1.00  0.00     0.080 C 
ENDROOT
BRANCH   1   2
ATOM      2  C   UNL     1       4.673   1.160   1.636  1.00  0.00     0.130 C 
ATOM      3  C   UNL     1       4.946   2.085   0.503  1.00  0.00     0.087 C 
ATOM      4  O   UNL     1       3.681   1.376   2.312  1.00  0.00    -0.300 OA
ENDBRANCH   1   2
BRANCH   1   5
ATOM      5  C   UNL     1       6.984   0.273   1.456  1.00  0.00     0.043 C 
BRANCH   5   6
ATOM      6  C   UNL     1       7.395  -0.695   0.423  1.00  0.00    -0.044 A 
ATOM      7  C   UNL     1       7.312  -0.392  -0.940  1.00  0.00     0.008 A 
ATOM      8  C   UNL     1       7.876  -1.929   0.798  1.00  0.00     0.054 A 
ATOM      9  C   UNL     1       7.714  -1.340  -1.864  1.00  0.00     0.051 A 
ATOM     10  C   UNL     1       8.281  -2.883  -0.139  1.00  0.00     0.166 A 
ATOM     11  C   UNL     1       8.199  -2.586  -1.481  1.00  0.00     0.165 A 
ATOM     12  O   UNL     1       8.785  -4.161  -0.022  1.00  0.00    -0.454 OA
ATOM     13  O   UNL     1       8.660  -3.699  -2.167  1.00  0.00    -0.454 OA
ATOM     14  C   UNL     1       9.127  -4.686  -1.279  1.00  0.00     0.468 C 
ENDBRANCH   5   6
ENDBRANCH   1   5
TORSDOF 3
ENDMDL
MODEL 4
REMARK VINA RESULT:      -7.1      1.244      1.446
REMARK SMILES CC(=O)CCc1ccc2c(c1)OCO2
REMARK SMILES IDX 4 1 2 2 1 3 3 4 5 5 6 6 7 7 11 8 8 9 10 10 9 11 12 12 14 13
REMARK SMILES IDX 13 14
REMARK H PARENT
REMARK Flexibility Score: inf
ROOT
ATOM      1  C   UNL     1       6.354   1.231   0.925  1.00  0.00     0.080 C 
ENDROOT
BRANCH   1   2
ATOM      2  C   UNL     1       5.661   0.383   1.935  1.00  0.00     0.130 C 
ATOM      3  C   UNL     1       6.302  -0.829   2.510  1.00  0.00     0.087 C 
ATOM      4  O   UNL     1       4.537   0.662   2.322  1.00  0.00    -0.300 OA
ENDBRANCH   1   2
BRANCH   1   5
ATOM      5  C   UNL     1       5.851   0.941  -0.475  1.00  0.00     0.043 C 
BRANCH   5   6
ATOM      6  C   UNL     1       6.803   0.115  -1.239  1.00  0.00    -0.044 A 
ATOM      7  C   UNL     1       7.500   0.627  -2.339  1.00  0.00     0.008 A 
ATOM      8  C   UNL     1       7.023  -1.192  -0.868  1.00  0.00     0.054 A 
ATOM      9  C   UNL     1       8.382  -0.194  -3.017  1.00  0.00     0.051 A 
ATOM     10  C   UNL     1       7.916  -2.019  -1.555  1.00  0.00     0.166 A 
ATOM     11  C   UNL     1       8.601  -1.516  -2.639  1.00  0.00     0.165 A 
ATOM     12  O   UNL     1       8.302  -3.331  -1.387  1.00  0.00    -0.454 OA
ATOM     13  O   UNL     1       9.403  -2.540  -3.117  1.00  0.00    -0.454 OA
ATOM     14  C   UNL     1       9.312  -3.681  -2.298  1.00  0.00     0.468 C 
ENDBRANCH   5   6
ENDBRANCH   1   5
TORSDOF 3
ENDMDL
MODEL 5
REMARK VINA RESULT:      -6.7      1.266      1.752
REMARK SMILES CC(=O)CCc1ccc2c(c1)OCO2
REMARK SMILES IDX 4 1 2 2 1 3 3 4 5 5 6 6 7 7 11 8 8 9 10 10 9 11 12 12 14 13
REMARK SMILES IDX 13 14
REMARK H PARENT
REMARK Flexibility Score: inf
ROOT
ATOM      1  C   UNL     1       5.329  -0.060   1.979  1.00  0.00     0.080 C 
ENDROOT
BRANCH   1   2
ATOM      2  C   UNL     1       4.441   1.121   1.788  1.00  0.00     0.130 C 
ATOM      3  C   UNL     1       4.723   2.150   0.752  1.00  0.00     0.087 C 
ATOM      4  O   UNL     1       3.450   1.278   2.483  1.00  0.00    -0.300 OA
ENDBRANCH   1   2
BRANCH   1   5
ATOM      5  C   UNL     1       6.791   0.333   1.908  1.00  0.00     0.043 C 
BRANCH   5   6
ATOM      6  C   UNL     1       7.391  -0.029   0.611  1.00  0.00    -0.044 A 
ATOM      7  C   UNL     1       7.883   0.943  -0.266  1.00  0.00     0.008 A 
ATOM      8  C   UNL     1       7.477  -1.354   0.246  1.00  0.00     0.054 A 
ATOM      9  C   UNL     1       8.437   0.544  -1.469  1.00  0.00     0.051 A 
ATOM     10  C   UNL     1       8.039  -1.753  -0.971  1.00  0.00     0.166 A 
ATOM     11  C   UNL     1       8.522  -0.796  -1.835  1.00  0.00     0.165 A 
ATOM     12  O   UNL     1       8.236  -2.986  -1.555  1.00  0.00    -0.454 OA
ATOM     13  O   UNL     1       9.012  -1.469  -2.944  1.00  0.00    -0.454 OA
ATOM     14  C   UNL     1       8.933  -2.863  -2.768  1.00  0.00     0.468 C 
ENDBRANCH   5   6
ENDBRANCH   1   5
TORSDOF 3
ENDMDL
