@<TRIPOS>MOLECULE
/home/cewinharhar/GITHUB/reincatalyze/data/processed/docking_pred/2023-May-22-2206_sub9_nm5_bs15_s42_ex16_mel10_mts10000_k50_ec02_g099_lra9e-4_lrc1e-3/939bd1e5684a89eea32cbd4f4170b12915347732_ligand_9.pdbqt
 14 15 0 0 0
SMALL
GASTEIGER

@<TRIPOS>ATOM
      1  C          5.4370   -0.0500    1.9930 C.3     1  UNL1        0.0800
      2  C          4.5810    1.1450    1.7510 C.2     1  UNL1        0.1300
      3  C          4.8870    2.1170    0.6670 C.3     1  UNL1        0.0870
      4  O          3.5980    1.3630    2.4410 O.2     1  UNL1       -0.3000
      5  C          6.8680    0.2010    1.5620 C.3     1  UNL1        0.0430
      6  C          7.2900   -0.7300    0.5010 C.2     1  UNL1       -0.0440
      7  C          7.1570   -0.4060   -0.8540 C.2     1  UNL1        0.0080
      8  C          7.8330   -1.9490    0.8390 C.2     1  UNL1        0.0540
      9  C          7.5710   -1.3200   -1.8060 C.2     1  UNL1        0.0510
     10  C          8.2510   -2.8690   -0.1280 C.2     1  UNL1        0.1660
     11  C          8.1180   -2.5520   -1.4610 C.2     1  UNL1        0.1650
     12  O          8.8110   -4.1260   -0.0480 O.2     1  UNL1       -0.4540
     13  O          8.6060   -3.6310   -2.1800 O.2     1  UNL1       -0.4540
     14  C          9.1390   -4.6130   -1.3240 C.3     1  UNL1        0.4680
@<TRIPOS>BOND
     1    13    11    1
     2    13    14    1
     3     9    11    2
     4     9     7    1
     5    11    10    1
     6    14    12    1
     7     7     6    2
     8    10    12    1
     9    10     8    2
    10     6     8    1
    11     6     5    1
    12     3     2    1
    13     5     1    1
    14     2     1    1
    15     2     4    2
