@<TRIPOS>MOLECULE
/home/cewinharhar/GITHUB/reincatalyze/data/processed/docking_pred/2023-May-22-2206_sub9_nm5_bs15_s42_ex16_mel10_mts10000_k50_ec02_g099_lra9e-4_lrc1e-3/93b19c8378935853b44d27bbf459025f9fc44a5e_ligand_9.pdbqt
 14 15 0 0 0
SMALL
GASTEIGER

@<TRIPOS>ATOM
      1  C          5.3070   -0.0960    1.9360 C.3     1  UNL1        0.0800
      2  C          4.4420    1.1070    1.7850 C.2     1  UNL1        0.1300
      3  C          4.7270    2.1500    0.7630 C.3     1  UNL1        0.0870
      4  O          3.4690    1.2730    2.5020 O.2     1  UNL1       -0.3000
      5  C          6.7760    0.2740    1.9010 C.3     1  UNL1        0.0430
      6  C          7.3940   -0.0640    0.6060 C.2     1  UNL1       -0.0440
      7  C          7.9040    0.9250   -0.2430 C.2     1  UNL1        0.0080
      8  C          7.4800   -1.3800    0.2140 C.2     1  UNL1        0.0540
      9  C          8.4740    0.5480   -1.4460 C.2     1  UNL1        0.0510
     10  C          8.0570   -1.7560   -1.0030 C.2     1  UNL1        0.1660
     11  C          8.5580   -0.7840   -1.8390 C.2     1  UNL1        0.1650
     12  O          8.2580   -2.9780   -1.6100 O.2     1  UNL1       -0.4540
     13  O          9.0620   -1.4350   -2.9540 O.2     1  UNL1       -0.4540
     14  C          8.9740   -2.8330   -2.8100 C.3     1  UNL1        0.4680
@<TRIPOS>BOND
     1    13    14    1
     2    13    11    1
     3    14    12    1
     4    11     9    2
     5    11    10    1
     6    12    10    1
     7     9     7    1
     8    10     8    2
     9     7     6    2
    10     8     6    1
    11     6     5    1
    12     3     2    1
    13     2     1    1
    14     2     4    2
    15     5     1    1
