@<TRIPOS>MOLECULE
/home/cewinharhar/GITHUB/reincatalyze/data/processed/docking_pred/2023-May-22-2206_sub9_nm5_bs15_s42_ex16_mel10_mts10000_k50_ec02_g099_lra9e-4_lrc1e-3/93b19c8378935853b44d27bbf459025f9fc44a5e_ligand_9.pdbqt
 14 15 0 0 0
SMALL
GASTEIGER

@<TRIPOS>ATOM
      1  C          6.3500    1.2480    0.8720 C.3     1  UNL1        0.0800
      2  C          5.6520    0.4270    1.9000 C.2     1  UNL1        0.1300
      3  C          6.2760   -0.7920    2.4810 C.3     1  UNL1        0.0870
      4  O          4.5400    0.7340    2.2980 O.2     1  UNL1       -0.3000
      5  C          5.8470    0.9300   -0.5220 C.3     1  UNL1        0.0430
      6  C          6.8120    0.1130   -1.2780 C.2     1  UNL1       -0.0440
      7  C          7.5350    0.6410   -2.3540 C.2     1  UNL1        0.0080
      8  C          7.0160   -1.2020   -0.9250 C.2     1  UNL1        0.0540
      9  C          8.4280   -0.1740   -3.0260 C.2     1  UNL1        0.0510
     10  C          7.9210   -2.0210   -1.6080 C.2     1  UNL1        0.1660
     11  C          8.6320   -1.5030   -2.6670 C.2     1  UNL1        0.1650
     12  O          8.2960   -3.3390   -1.4540 O.2     1  UNL1       -0.4540
     13  O          9.4390   -2.5230   -3.1460 O.2     1  UNL1       -0.4540
     14  C          9.3240   -3.6780   -2.3490 C.3     1  UNL1        0.4680
@<TRIPOS>BOND
     1    13    11    1
     2    13    14    1
     3     9    11    2
     4     9     7    1
     5    11    10    1
     6     7     6    2
     7    14    12    1
     8    10    12    1
     9    10     8    2
    10     6     8    1
    11     6     5    1
    12     5     1    1
    13     1     2    1
    14     2     4    2
    15     2     3    1
