@<TRIPOS>MOLECULE
/home/cewinharhar/GITHUB/reincatalyze/data/processed/docking_pred/2023-May-22-2206_sub9_nm5_bs15_s42_ex16_mel10_mts10000_k50_ec02_g099_lra9e-4_lrc1e-3/93c3770ef064b633c902e85f3368d9330fbaaeb8_ligand_9.pdbqt
 14 15 0 0 0
SMALL
GASTEIGER

@<TRIPOS>ATOM
      1  C          5.5930    0.0800    2.0350 C.3     1  UNL1        0.0800
      2  C          4.6130    1.1600    1.7310 C.2     1  UNL1        0.1300
      3  C          4.8520    2.1480    0.6450 C.3     1  UNL1        0.0870
      4  O          3.5780    1.2660    2.3700 O.2     1  UNL1       -0.3000
      5  C          6.9550    0.3920    1.4490 C.3     1  UNL1        0.0430
      6  C          7.3480   -0.5920    0.4250 C.2     1  UNL1       -0.0440
      7  C          7.2220   -0.3180   -0.9410 C.2     1  UNL1        0.0080
      8  C          7.8540   -1.8130    0.8110 C.2     1  UNL1        0.0540
      9  C          7.6080   -1.2800   -1.8570 C.2     1  UNL1        0.0510
     10  C          8.2430   -2.7820   -0.1190 C.2     1  UNL1        0.1660
     11  C          8.1190   -2.5140   -1.4640 C.2     1  UNL1        0.1650
     12  O          8.7660   -4.0510    0.0100 O.2     1  UNL1       -0.4540
     13  O          8.5730   -3.6350   -2.1400 O.2     1  UNL1       -0.4540
     14  C          9.0770   -4.5980   -1.2460 C.3     1  UNL1        0.4680
@<TRIPOS>BOND
     1    13    11    1
     2    13    14    1
     3     9    11    2
     4     9     7    1
     5    11    10    1
     6    14    12    1
     7     7     6    2
     8    10    12    1
     9    10     8    2
    10     6     8    1
    11     6     5    1
    12     3     2    1
    13     5     1    1
    14     2     1    1
    15     2     4    2
