@<TRIPOS>MOLECULE
/home/cewinharhar/GITHUB/reincatalyze/data/processed/docking_pred/2023-May-22-2206_sub9_nm5_bs15_s42_ex16_mel10_mts10000_k50_ec02_g099_lra9e-4_lrc1e-3/9545d038953ad0bd3b50a81295f717fe73892d7b_ligand_9.pdbqt
 14 15 0 0 0
SMALL
GASTEIGER

@<TRIPOS>ATOM
      1  C          6.8710    0.8110    1.2710 C.3     1  UNL1        0.0800
      2  C          5.4270    1.1050    1.4870 C.2     1  UNL1        0.1300
      3  C          4.7160    2.1500    0.7020 C.3     1  UNL1        0.0870
      4  O          4.7810    0.4920    2.3210 O.2     1  UNL1       -0.3000
      5  C          7.2550    0.9810   -0.1860 C.3     1  UNL1        0.0430
      6  C          7.6110   -0.3060   -0.8110 C.2     1  UNL1       -0.0440
      7  C          7.6490   -0.4600   -2.2010 C.2     1  UNL1        0.0080
      8  C          7.9180   -1.3880   -0.0170 C.2     1  UNL1        0.0540
      9  C          7.9910   -1.6910   -2.7310 C.2     1  UNL1        0.0510
     10  C          8.2640   -2.6300   -0.5570 C.2     1  UNL1        0.1660
     11  C          8.3000   -2.7830   -1.9250 C.2     1  UNL1        0.1650
     12  O          8.6040   -3.8390    0.0100 O.2     1  UNL1       -0.4540
     13  O          8.6670   -4.0960   -2.1720 O.2     1  UNL1       -0.4540
     14  C          8.9580   -4.7760   -0.9750 C.3     1  UNL1        0.4680
@<TRIPOS>BOND
     1     9     7    1
     2     9    11    2
     3     7     6    2
     4    13    11    1
     5    13    14    1
     6    11    10    1
     7    14    12    1
     8     6     5    1
     9     6     8    1
    10    10     8    2
    11    10    12    1
    12     5     1    1
    13     3     2    1
    14     1     2    1
    15     2     4    2
