@<TRIPOS>MOLECULE
/home/cewinharhar/GITHUB/reincatalyze/data/processed/docking_pred/2023-May-22-2206_sub9_nm5_bs15_s42_ex16_mel10_mts10000_k50_ec02_g099_lra9e-4_lrc1e-3/955e59fc22a1e87e2ab10a68f3a5c98643a236a4_ligand_9.pdbqt
 14 15 0 0 0
SMALL
GASTEIGER

@<TRIPOS>ATOM
      1  C          5.7490    1.3760   -0.2650 C.3     1  UNL1        0.0800
      2  C          5.0990    1.2720    1.0720 C.2     1  UNL1        0.1300
      3  C          5.3690    0.1280    1.9840 C.3     1  UNL1        0.0870
      4  O          4.3210    2.1280    1.4580 O.2     1  UNL1       -0.3000
      5  C          7.2380    1.1060   -0.1750 C.3     1  UNL1        0.0430
      6  C          7.5990   -0.1810   -0.7940 C.2     1  UNL1       -0.0440
      7  C          7.6320   -0.3430   -2.1840 C.2     1  UNL1        0.0080
      8  C          7.9150   -1.2570    0.0040 C.2     1  UNL1        0.0540
      9  C          7.9790   -1.5750   -2.7090 C.2     1  UNL1        0.0510
     10  C          8.2650   -2.5010   -0.5310 C.2     1  UNL1        0.1660
     11  C          8.2970   -2.6600   -1.8990 C.2     1  UNL1        0.1650
     12  O          8.6150   -3.7050    0.0410 O.2     1  UNL1       -0.4540
     13  O          8.6710   -3.9730   -2.1400 O.2     1  UNL1       -0.4540
     14  C          8.9700   -4.6450   -0.9400 C.3     1  UNL1        0.4680
@<TRIPOS>BOND
     1     9     7    1
     2     9    11    2
     3     7     6    2
     4    13    11    1
     5    13    14    1
     6    11    10    1
     7    14    12    1
     8     6     5    1
     9     6     8    1
    10    10     8    2
    11    10    12    1
    12     1     5    1
    13     1     2    1
    14     2     4    2
    15     2     3    1
