@<TRIPOS>MOLECULE
/home/cewinharhar/GITHUB/reincatalyze/data/processed/docking_pred/2023-May-22-2206_sub9_nm5_bs15_s42_ex16_mel10_mts10000_k50_ec02_g099_lra9e-4_lrc1e-3/96aa1335557473cc7235c71144735280de1f686e_ligand_9.pdbqt
 14 15 0 0 0
SMALL
GASTEIGER

@<TRIPOS>ATOM
      1  C          6.4050    1.5270    0.6670 C.3     1  UNL1        0.0800
      2  C          5.9390    0.7410    1.8430 C.2     1  UNL1        0.1300
      3  C          6.8170   -0.2560    2.5130 C.3     1  UNL1        0.0870
      4  O          4.8150    0.8930    2.2940 O.2     1  UNL1       -0.3000
      5  C          5.8240    0.9840   -0.6230 C.3     1  UNL1        0.0430
      6  C          6.7960    0.1500   -1.3520 C.2     1  UNL1       -0.0440
      7  C          7.5390    0.6580   -2.4240 C.2     1  UNL1        0.0080
      8  C          6.9890   -1.1600   -0.9760 C.2     1  UNL1        0.0540
      9  C          8.4380   -0.1710   -3.0700 C.2     1  UNL1        0.0510
     10  C          7.9000   -1.9940   -1.6320 C.2     1  UNL1        0.1660
     11  C          8.6300   -1.4950   -2.6880 C.2     1  UNL1        0.1650
     12  O          8.2660   -3.3100   -1.4520 O.2     1  UNL1       -0.4540
     13  O          9.4390   -2.5260   -3.1380 O.2     1  UNL1       -0.4540
     14  C          9.3070   -3.6680   -2.3260 C.3     1  UNL1        0.4680
@<TRIPOS>BOND
     1    13    11    1
     2    13    14    1
     3     9    11    2
     4     9     7    1
     5    11    10    1
     6     7     6    2
     7    14    12    1
     8    10    12    1
     9    10     8    2
    10     6     8    1
    11     6     5    1
    12     5     1    1
    13     1     2    1
    14     2     4    2
    15     2     3    1
