@<TRIPOS>MOLECULE
/home/cewinharhar/GITHUB/reincatalyze/data/processed/docking_pred/2023-May-22-2206_sub9_nm5_bs15_s42_ex16_mel10_mts10000_k50_ec02_g099_lra9e-4_lrc1e-3/96aa1335557473cc7235c71144735280de1f686e_ligand_9.pdbqt
 14 15 0 0 0
SMALL
GASTEIGER

@<TRIPOS>ATOM
      1  C          5.6450    2.1180    1.1110 C.3     1  UNL1        0.0800
      2  C          5.4200    0.9410    1.9950 C.2     1  UNL1        0.1300
      3  C          6.5240    0.0120    2.3570 C.3     1  UNL1        0.0870
      4  O          4.3130    0.7030    2.4510 O.2     1  UNL1       -0.3000
      5  C          5.4470    1.7560   -0.3480 C.3     1  UNL1        0.0430
      6  C          6.6040    1.0210   -0.8910 C.2     1  UNL1       -0.0440
      7  C          7.9150    1.4660   -0.6890 C.2     1  UNL1        0.0080
      8  C          6.4010   -0.1330   -1.6120 C.2     1  UNL1        0.0540
      9  C          8.9610    0.7340   -1.2220 C.2     1  UNL1        0.0510
     10  C          7.4620   -0.8700   -2.1470 C.2     1  UNL1        0.1660
     11  C          8.7520   -0.4320   -1.9510 C.2     1  UNL1        0.1650
     12  O          7.5200   -2.0300   -2.8900 O.2     1  UNL1       -0.4540
     13  O          9.5850   -1.3430   -2.5830 O.2     1  UNL1       -0.4540
     14  C          8.8500   -2.4200   -3.1130 C.3     1  UNL1        0.4680
@<TRIPOS>BOND
     1    14    12    1
     2    14    13    1
     3    12    10    1
     4    13    11    1
     5    10    11    2
     6    10     8    1
     7    11     9    1
     8     8     6    2
     9     9     7    2
    10     6     7    1
    11     6     5    1
    12     5     1    1
    13     1     2    1
    14     2     3    1
    15     2     4    2
