@<TRIPOS>MOLECULE
/home/cewinharhar/GITHUB/reincatalyze/data/processed/docking_pred/2023-May-22-2206_sub9_nm5_bs15_s42_ex16_mel10_mts10000_k50_ec02_g099_lra9e-4_lrc1e-3/96aa1335557473cc7235c71144735280de1f686e_ligand_9.pdbqt
 14 15 0 0 0
SMALL
GASTEIGER

@<TRIPOS>ATOM
      1  C          6.4910    0.9420    1.2160 C.3     1  UNL1        0.0800
      2  C          5.2170    1.6140    0.8350 C.2     1  UNL1        0.1300
      3  C          4.9970    2.1500   -0.5350 C.3     1  UNL1        0.0870
      4  O          4.3120    1.7450    1.6430 O.2     1  UNL1       -0.3000
      5  C          7.5400    1.0950    0.1320 C.3     1  UNL1        0.0430
      6  C          7.7860   -0.1750   -0.5730 C.2     1  UNL1       -0.0440
      7  C          7.7310   -0.2610   -1.9690 C.2     1  UNL1        0.0080
      8  C          8.0800   -1.3100    0.1480 C.2     1  UNL1        0.0540
      9  C          7.9720   -1.4800   -2.5760 C.2     1  UNL1        0.0510
     10  C          8.3230   -2.5400   -0.4710 C.2     1  UNL1        0.1660
     11  C          8.2680   -2.6260   -1.8440 C.2     1  UNL1        0.1650
     12  O          8.6300   -3.7930    0.0170 O.2     1  UNL1       -0.4540
     13  O          8.5470   -3.9430   -2.1750 O.2     1  UNL1       -0.4540
     14  C          8.8710   -4.6960   -1.0310 C.3     1  UNL1        0.4680
@<TRIPOS>BOND
     1     9     7    1
     2     9    11    2
     3    13    11    1
     4    13    14    1
     5     7     6    2
     6    11    10    1
     7    14    12    1
     8     6     5    1
     9     6     8    1
    10     3     2    1
    11    10    12    1
    12    10     8    2
    13     5     1    1
    14     2     1    1
    15     2     4    2
