@<TRIPOS>MOLECULE
/home/cewinharhar/GITHUB/reincatalyze/data/processed/docking_pred/2023-May-22-2206_sub9_nm5_bs15_s42_ex16_mel10_mts10000_k50_ec02_g099_lra9e-4_lrc1e-3/96aa1335557473cc7235c71144735280de1f686e_ligand_9.pdbqt
 14 15 0 0 0
SMALL
GASTEIGER

@<TRIPOS>ATOM
      1  C          5.6970    1.3090   -0.3290 C.3     1  UNL1        0.0800
      2  C          5.2820    1.3590    1.1010 C.2     1  UNL1        0.1300
      3  C          5.9900    0.5730    2.1470 C.3     1  UNL1        0.0870
      4  O          4.3430    2.0520    1.4580 O.2     1  UNL1       -0.3000
      5  C          7.2020    1.1880   -0.4620 C.3     1  UNL1        0.0430
      6  C          7.5990   -0.1190   -1.0130 C.2     1  UNL1       -0.0440
      7  C          7.7450   -0.3200   -2.3910 C.2     1  UNL1        0.0080
      8  C          7.8360   -1.1750   -0.1630 C.2     1  UNL1        0.0540
      9  C          8.1200   -1.5690   -2.8510 C.2     1  UNL1        0.0510
     10  C          8.2160   -2.4360   -0.6330 C.2     1  UNL1        0.1660
     11  C          8.3590   -2.6340   -1.9880 C.2     1  UNL1        0.1650
     12  O          8.5040   -3.6270   -0.0010 O.2     1  UNL1       -0.4540
     13  O          8.7370   -3.9570   -2.1620 O.2     1  UNL1       -0.4540
     14  C          8.9290   -4.5970   -0.9230 C.3     1  UNL1        0.4680
@<TRIPOS>BOND
     1     9     7    1
     2     9    11    2
     3     7     6    2
     4    13    11    1
     5    13    14    1
     6    11    10    1
     7     6     5    1
     8     6     8    1
     9    14    12    1
    10    10     8    2
    11    10    12    1
    12     5     1    1
    13     1     2    1
    14     2     4    2
    15     2     3    1
