@<TRIPOS>MOLECULE
/home/cewinharhar/GITHUB/reincatalyze/data/processed/docking_pred/2023-May-22-2206_sub9_nm5_bs15_s42_ex16_mel10_mts10000_k50_ec02_g099_lra9e-4_lrc1e-3/96aa1335557473cc7235c71144735280de1f686e_ligand_9.pdbqt
 14 15 0 0 0
SMALL
GASTEIGER

@<TRIPOS>ATOM
      1  C          6.9730    1.1420    1.3210 C.3     1  UNL1        0.0800
      2  C          5.5930    1.6090    1.0080 C.2     1  UNL1        0.1300
      3  C          5.2370    2.1500   -0.3310 C.3     1  UNL1        0.0870
      4  O          4.7100    1.5610    1.8480 O.2     1  UNL1       -0.3000
      5  C          6.9830   -0.3240    1.7060 C.3     1  UNL1        0.0430
      6  C          7.4440   -1.1770    0.5960 C.2     1  UNL1       -0.0440
      7  C          7.3360   -0.7660   -0.7380 C.2     1  UNL1        0.0080
      8  C          7.9970   -2.4080    0.8660 C.2     1  UNL1        0.0540
      9  C          7.7850   -1.6090   -1.7380 C.2     1  UNL1        0.0510
     10  C          8.4500   -3.2560   -0.1490 C.2     1  UNL1        0.1660
     11  C          8.3430   -2.8540   -1.4610 C.2     1  UNL1        0.1650
     12  O          9.0280   -4.5080   -0.1390 O.2     1  UNL1       -0.4540
     13  O          8.8640   -3.8770   -2.2380 O.2     1  UNL1       -0.4540
     14  C          9.3920   -4.9060   -1.4360 C.3     1  UNL1        0.4680
@<TRIPOS>BOND
     1    13    11    1
     2    13    14    1
     3     9    11    2
     4     9     7    1
     5    11    10    1
     6    14    12    1
     7     7     6    2
     8     3     2    1
     9    10    12    1
    10    10     8    2
    11     6     8    1
    12     6     5    1
    13     2     1    1
    14     2     4    2
    15     1     5    1
