@<TRIPOS>MOLECULE
/home/cewinharhar/GITHUB/reincatalyze/data/processed/docking_pred/2023-May-22-2206_sub9_nm5_bs15_s42_ex16_mel10_mts10000_k50_ec02_g099_lra9e-4_lrc1e-3/98720eda2f8b5e3d73e45599e80051818594e19a_ligand_9.pdbqt
 14 15 0 0 0
SMALL
GASTEIGER

@<TRIPOS>ATOM
      1  C          5.7670    1.3910   -0.2540 C.3     1  UNL1        0.0800
      2  C          5.1250    1.2740    1.0860 C.2     1  UNL1        0.1300
      3  C          5.3910    0.1160    1.9800 C.3     1  UNL1        0.0870
      4  O          4.3570    2.1320    1.4900 O.2     1  UNL1       -0.3000
      5  C          7.2520    1.0990   -0.1800 C.3     1  UNL1        0.0430
      6  C          7.5870   -0.1910   -0.8080 C.2     1  UNL1       -0.0440
      7  C          7.5720   -0.3560   -2.1980 C.2     1  UNL1        0.0080
      8  C          7.9280   -1.2660   -0.0190 C.2     1  UNL1        0.0540
      9  C          7.8960   -1.5900   -2.7310 C.2     1  UNL1        0.0510
     10  C          8.2560   -2.5120   -0.5630 C.2     1  UNL1        0.1660
     11  C          8.2400   -2.6750   -1.9300 C.2     1  UNL1        0.1650
     12  O          8.6220   -3.7160    0.0000 O.2     1  UNL1       -0.4540
     13  O          8.6010   -3.9900   -2.1810 O.2     1  UNL1       -0.4540
     14  C          8.9400   -4.6600   -0.9900 C.3     1  UNL1        0.4680
@<TRIPOS>BOND
     1     9     7    1
     2     9    11    2
     3     7     6    2
     4    13    11    1
     5    13    14    1
     6    11    10    1
     7    14    12    1
     8     6     5    1
     9     6     8    1
    10    10     8    2
    11    10    12    1
    12     1     5    1
    13     1     2    1
    14     2     4    2
    15     2     3    1
