@<TRIPOS>MOLECULE
/home/cewinharhar/GITHUB/reincatalyze/data/processed/docking_pred/2023-May-22-2206_sub9_nm5_bs15_s42_ex16_mel10_mts10000_k50_ec02_g099_lra9e-4_lrc1e-3/98720eda2f8b5e3d73e45599e80051818594e19a_ligand_9.pdbqt
 14 15 0 0 0
SMALL
GASTEIGER

@<TRIPOS>ATOM
      1  C          5.3460   -0.1200    1.9450 C.3     1  UNL1        0.0800
      2  C          5.3240    1.0780    1.0590 C.2     1  UNL1        0.1300
      3  C          5.8400    1.0270   -0.3350 C.3     1  UNL1        0.0870
      4  O          4.8800    2.1430    1.4560 O.2     1  UNL1       -0.3000
      5  C          6.1050   -1.2650    1.3040 C.3     1  UNL1        0.0430
      6  C          7.3530   -1.5670    2.0280 C.2     1  UNL1       -0.0440
      7  C          8.3910   -2.2890    1.4300 C.2     1  UNL1        0.0080
      8  C          7.5120   -1.1300    3.3240 C.2     1  UNL1        0.0540
      9  C          9.5400   -2.5420    2.1580 C.2     1  UNL1        0.0510
     10  C          8.6750   -1.3870    4.0560 C.2     1  UNL1        0.1660
     11  C          9.6970   -2.1000    3.4680 C.2     1  UNL1        0.1650
     12  O          9.0690   -1.0670    5.3380 O.2     1  UNL1       -0.4540
     13  O         10.7080   -2.2020    4.4110 O.2     1  UNL1       -0.4540
     14  C         10.3890   -1.4840    5.5790 C.3     1  UNL1        0.4680
@<TRIPOS>BOND
     1     3     2    1
     2     2     4    2
     3     2     1    1
     4     5     1    1
     5     5     6    1
     6     7     6    2
     7     7     9    1
     8     6     8    1
     9     9    11    2
    10     8    10    2
    11    11    10    1
    12    11    13    1
    13    10    12    1
    14    13    14    1
    15    12    14    1
