@<TRIPOS>MOLECULE
/home/cewinharhar/GITHUB/reincatalyze/data/processed/docking_pred/2023-May-22-2206_sub9_nm5_bs15_s42_ex16_mel10_mts10000_k50_ec02_g099_lra9e-4_lrc1e-3/98720eda2f8b5e3d73e45599e80051818594e19a_ligand_9.pdbqt
 14 15 0 0 0
SMALL
GASTEIGER

@<TRIPOS>ATOM
      1  C          5.5920   -0.2480    1.9990 C.3     1  UNL1        0.0800
      2  C          5.2600    0.9540    1.1840 C.2     1  UNL1        0.1300
      3  C          5.7860    1.1310   -0.1960 C.3     1  UNL1        0.0870
      4  O          4.5430    1.8360    1.6300 O.2     1  UNL1       -0.3000
      5  C          6.5720   -1.1500    1.2760 C.3     1  UNL1        0.0430
      6  C          7.6910   -1.5510    2.1470 C.2     1  UNL1       -0.0440
      7  C          7.7260   -1.2020    3.5020 C.2     1  UNL1        0.0080
      8  C          8.7290   -2.2900    1.6280 C.2     1  UNL1        0.0540
      9  C          8.8020   -1.6070    4.2720 C.2     1  UNL1        0.0510
     10  C          9.8140   -2.6980    2.4100 C.2     1  UNL1        0.1660
     11  C          9.8500   -2.3530    3.7430 C.2     1  UNL1        0.1650
     12  O         10.9510   -3.4260    2.1330 O.2     1  UNL1       -0.4540
     13  O         11.0210   -2.8830    4.2620 O.2     1  UNL1       -0.4540
     14  C         11.7040   -3.6480    3.2970 C.3     1  UNL1        0.4680
@<TRIPOS>BOND
     1     3     2    1
     2     2     4    2
     3     2     1    1
     4     5     1    1
     5     5     6    1
     6     8     6    2
     7     8    10    1
     8    12    10    1
     9    12    14    1
    10     6     7    1
    11    10    11    2
    12    14    13    1
    13     7     9    2
    14    11    13    1
    15    11     9    1
