MODEL 1
REMARK VINA RESULT:      -6.6      0.000      0.000
REMARK SMILES CC(=O)CCc1ccc2c(c1)OCO2
REMARK SMILES IDX 4 1 2 2 1 3 3 4 5 5 6 6 7 7 11 8 8 9 10 10 9 11 12 12 14 13
REMARK SMILES IDX 13 14
REMARK H PARENT
REMARK Flexibility Score: inf
ROOT
ATOM      1  C   UNL     1       5.375  -0.294   2.123  1.00  0.00     0.080 C 
ENDROOT
BRANCH   1   2
ATOM      2  C   UNL     1       4.469   0.871   1.921  1.00  0.00     0.130 C 
ATOM      3  C   UNL     1       4.691   1.852   0.825  1.00  0.00     0.087 C 
ATOM      4  O   UNL     1       3.511   1.054   2.655  1.00  0.00    -0.300 OA
ENDBRANCH   1   2
BRANCH   1   5
ATOM      5  C   UNL     1       6.789   0.025   1.678  1.00  0.00     0.043 C 
BRANCH   5   6
ATOM      6  C   UNL     1       7.235  -0.868   0.594  1.00  0.00    -0.044 A 
ATOM      7  C   UNL     1       7.083  -0.519  -0.753  1.00  0.00     0.008 A 
ATOM      8  C   UNL     1       7.820  -2.076   0.902  1.00  0.00     0.054 A 
ATOM      9  C   UNL     1       7.522  -1.397  -1.727  1.00  0.00     0.051 A 
ATOM     10  C   UNL     1       8.262  -2.960  -0.086  1.00  0.00     0.166 A 
ATOM     11  C   UNL     1       8.112  -2.618  -1.412  1.00  0.00     0.165 A 
ATOM     12  O   UNL     1       8.864  -4.199  -0.037  1.00  0.00    -0.454 OA
ATOM     13  O   UNL     1       8.631  -3.665  -2.157  1.00  0.00    -0.454 OA
ATOM     14  C   UNL     1       9.201  -4.647  -1.325  1.00  0.00     0.468 C 
ENDBRANCH   5   6
ENDBRANCH   1   5
TORSDOF 3
ENDMDL
MODEL 2
REMARK VINA RESULT:      -5.9      1.037      1.969
REMARK SMILES CC(=O)CCc1ccc2c(c1)OCO2
REMARK SMILES IDX 4 1 2 2 1 3 3 4 5 5 6 6 7 7 11 8 8 9 10 10 9 11 12 12 14 13
REMARK SMILES IDX 13 14
REMARK H PARENT
REMARK Flexibility Score: inf
ROOT
ATOM      1  C   UNL     1       5.277  -0.189   2.296  1.00  0.00     0.080 C 
ENDROOT
BRANCH   1   2
ATOM      2  C   UNL     1       4.373   0.952   1.981  1.00  0.00     0.130 C 
ATOM      3  C   UNL     1       4.657   1.886   0.859  1.00  0.00     0.087 C 
ATOM      4  O   UNL     1       3.366   1.154   2.641  1.00  0.00    -0.300 OA
ENDBRANCH   1   2
BRANCH   1   5
ATOM      5  C   UNL     1       6.720   0.147   1.974  1.00  0.00     0.043 C 
BRANCH   5   6
ATOM      6  C   UNL     1       7.268  -0.742   0.934  1.00  0.00    -0.044 A 
ATOM      7  C   UNL     1       7.596  -2.075   1.207  1.00  0.00     0.008 A 
ATOM      8  C   UNL     1       7.465  -0.261  -0.341  1.00  0.00     0.054 A 
ATOM      9  C   UNL     1       8.106  -2.862   0.190  1.00  0.00     0.051 A 
ATOM     10  C   UNL     1       7.980  -1.061  -1.365  1.00  0.00     0.166 A 
ATOM     11  C   UNL     1       8.304  -2.372  -1.097  1.00  0.00     0.165 A 
ATOM     12  O   UNL     1       8.265  -0.820  -2.692  1.00  0.00    -0.454 OA
ATOM     13  O   UNL     1       8.784  -2.916  -2.278  1.00  0.00    -0.454 OA
ATOM     14  C   UNL     1       8.692  -1.993  -3.337  1.00  0.00     0.468 C 
ENDBRANCH   5   6
ENDBRANCH   1   5
TORSDOF 3
ENDMDL
MODEL 3
REMARK VINA RESULT:      -5.9      1.008      1.008
REMARK SMILES CC(=O)CCc1ccc2c(c1)OCO2
REMARK SMILES IDX 4 1 2 2 1 3 3 4 5 5 6 6 7 7 11 8 8 9 10 10 9 11 12 12 14 13
REMARK SMILES IDX 13 14
REMARK H PARENT
REMARK Flexibility Score: inf
ROOT
ATOM      1  C   UNL     1       5.493  -0.333   1.882  1.00  0.00     0.080 C 
ENDROOT
BRANCH   1   2
ATOM      2  C   UNL     1       5.487   1.147   1.710  1.00  0.00     0.130 C 
ATOM      3  C   UNL     1       4.357   1.851   1.047  1.00  0.00     0.087 C 
ATOM      4  O   UNL     1       6.417   1.828   2.110  1.00  0.00    -0.300 OA
ENDBRANCH   1   2
BRANCH   1   5
ATOM      5  C   UNL     1       6.905  -0.863   2.038  1.00  0.00     0.043 C 
BRANCH   5   6
ATOM      6  C   UNL     1       7.383  -1.515   0.805  1.00  0.00    -0.044 A 
ATOM      7  C   UNL     1       7.163  -0.949  -0.456  1.00  0.00     0.008 A 
ATOM      8  C   UNL     1       8.064  -2.708   0.885  1.00  0.00     0.054 A 
ATOM      9  C   UNL     1       7.635  -1.606  -1.577  1.00  0.00     0.051 A 
ATOM     10  C   UNL     1       8.540  -3.368  -0.252  1.00  0.00     0.166 A 
ATOM     11  C   UNL     1       8.323  -2.813  -1.493  1.00  0.00     0.165 A 
ATOM     12  O   UNL     1       9.233  -4.546  -0.433  1.00  0.00    -0.454 OA
ATOM     13  O   UNL     1       8.895  -3.669  -2.421  1.00  0.00    -0.454 OA
ATOM     14  C   UNL     1       9.562  -4.734  -1.786  1.00  0.00     0.468 C 
ENDBRANCH   5   6
ENDBRANCH   1   5
TORSDOF 3
ENDMDL
MODEL 4
REMARK VINA RESULT:      -5.8      1.336      6.119
REMARK SMILES CC(=O)CCc1ccc2c(c1)OCO2
REMARK SMILES IDX 4 1 2 2 1 3 3 4 5 5 6 6 7 7 11 8 8 9 10 10 9 11 12 12 14 13
REMARK SMILES IDX 13 14
REMARK H PARENT
REMARK Flexibility Score: inf
ROOT
ATOM      1  C   UNL     1       8.732  -3.939  -0.371  1.00  0.00     0.080 C 
ENDROOT
BRANCH   1   2
ATOM      2  C   UNL     1       9.267  -4.823  -1.444  1.00  0.00     0.130 C 
ATOM      3  C   UNL     1       8.904  -6.263  -1.523  1.00  0.00     0.087 C 
ATOM      4  O   UNL     1      10.027  -4.387  -2.294  1.00  0.00    -0.300 OA
ENDBRANCH   1   2
BRANCH   1   5
ATOM      5  C   UNL     1       8.327  -2.587  -0.923  1.00  0.00     0.043 C 
BRANCH   5   6
ATOM      6  C   UNL     1       7.489  -1.836   0.028  1.00  0.00    -0.044 A 
ATOM      7  C   UNL     1       7.428  -2.183   1.383  1.00  0.00     0.008 A 
ATOM      8  C   UNL     1       6.745  -0.766  -0.414  1.00  0.00     0.054 A 
ATOM      9  C   UNL     1       6.624  -1.442   2.230  1.00  0.00     0.051 A 
ATOM     10  C   UNL     1       5.934  -0.019   0.446  1.00  0.00     0.166 A 
ATOM     11  C   UNL     1       5.873  -0.360   1.779  1.00  0.00     0.165 A 
ATOM     12  O   UNL     1       5.112   1.070   0.253  1.00  0.00    -0.454 OA
ATOM     13  O   UNL     1       5.006   0.537   2.383  1.00  0.00    -0.454 OA
ATOM     14  C   UNL     1       4.572   1.516   1.470  1.00  0.00     0.468 C 
ENDBRANCH   5   6
ENDBRANCH   1   5
TORSDOF 3
ENDMDL
MODEL 5
REMARK VINA RESULT:      -5.8      1.851      5.440
REMARK SMILES CC(=O)CCc1ccc2c(c1)OCO2
REMARK SMILES IDX 4 1 2 2 1 3 3 4 5 5 6 6 7 7 11 8 8 9 10 10 9 11 12 12 14 13
REMARK SMILES IDX 13 14
REMARK H PARENT
REMARK Flexibility Score: inf
ROOT
ATOM      1  C   UNL     1       8.017  -1.749  -2.309  1.00  0.00     0.080 C 
ENDROOT
BRANCH   1   2
ATOM      2  C   UNL     1       8.748  -0.456  -2.425  1.00  0.00     0.130 C 
ATOM      3  C   UNL     1       8.237   0.657  -3.268  1.00  0.00     0.087 C 
ATOM      4  O   UNL     1       9.795  -0.273  -1.826  1.00  0.00    -0.300 OA
ENDBRANCH   1   2
BRANCH   1   5
ATOM      5  C   UNL     1       8.166  -2.344  -0.923  1.00  0.00     0.043 C 
BRANCH   5   6
ATOM      6  C   UNL     1       7.321  -1.649   0.065  1.00  0.00    -0.044 A 
ATOM      7  C   UNL     1       7.238  -2.082   1.393  1.00  0.00     0.008 A 
ATOM      8  C   UNL     1       6.592  -0.545  -0.318  1.00  0.00     0.054 A 
ATOM      9  C   UNL     1       6.429  -1.390   2.275  1.00  0.00     0.051 A 
ATOM     10  C   UNL     1       5.776   0.151   0.578  1.00  0.00     0.166 A 
ATOM     11  C   UNL     1       5.693  -0.275   1.885  1.00  0.00     0.165 A 
ATOM     12  O   UNL     1       4.965   1.259   0.445  1.00  0.00    -0.454 OA
ATOM     13  O   UNL     1       4.825   0.590   2.534  1.00  0.00    -0.454 OA
ATOM     14  C   UNL     1       4.412   1.630   1.681  1.00  0.00     0.468 C 
ENDBRANCH   5   6
ENDBRANCH   1   5
TORSDOF 3
ENDMDL
