@<TRIPOS>MOLECULE
/home/cewinharhar/GITHUB/reincatalyze/data/processed/docking_pred/2023-May-22-2206_sub9_nm5_bs15_s42_ex16_mel10_mts10000_k50_ec02_g099_lra9e-4_lrc1e-3/9a7d3f5f853688f06c0e35b58fb12e655ab1ce10_ligand_9.pdbqt
 14 15 0 0 0
SMALL
GASTEIGER

@<TRIPOS>ATOM
      1  C          5.4930   -0.3330    1.8820 C.3     1  UNL1        0.0800
      2  C          5.4870    1.1470    1.7100 C.2     1  UNL1        0.1300
      3  C          4.3570    1.8510    1.0470 C.3     1  UNL1        0.0870
      4  O          6.4170    1.8280    2.1100 O.2     1  UNL1       -0.3000
      5  C          6.9050   -0.8630    2.0380 C.3     1  UNL1        0.0430
      6  C          7.3830   -1.5150    0.8050 C.2     1  UNL1       -0.0440
      7  C          7.1630   -0.9490   -0.4560 C.2     1  UNL1        0.0080
      8  C          8.0640   -2.7080    0.8850 C.2     1  UNL1        0.0540
      9  C          7.6350   -1.6060   -1.5770 C.2     1  UNL1        0.0510
     10  C          8.5400   -3.3680   -0.2520 C.2     1  UNL1        0.1660
     11  C          8.3230   -2.8130   -1.4930 C.2     1  UNL1        0.1650
     12  O          9.2330   -4.5460   -0.4330 O.2     1  UNL1       -0.4540
     13  O          8.8950   -3.6690   -2.4210 O.2     1  UNL1       -0.4540
     14  C          9.5620   -4.7340   -1.7860 C.3     1  UNL1        0.4680
@<TRIPOS>BOND
     1    13    14    1
     2    13    11    1
     3    14    12    1
     4     9    11    2
     5     9     7    1
     6    11    10    1
     7     7     6    2
     8    12    10    1
     9    10     8    2
    10     6     8    1
    11     6     5    1
    12     3     2    1
    13     2     1    1
    14     2     4    2
    15     1     5    1
