@<TRIPOS>MOLECULE
/home/cewinharhar/GITHUB/reincatalyze/data/processed/docking_pred/2023-May-22-2206_sub9_nm5_bs15_s42_ex16_mel10_mts10000_k50_ec02_g099_lra9e-4_lrc1e-3/9c92d7019ca479aa147a964f0da84773825070a7_ligand_9.pdbqt
 14 15 0 0 0
SMALL
GASTEIGER

@<TRIPOS>ATOM
      1  C          5.5520    1.9050    1.2890 C.3     1  UNL1        0.0800
      2  C          5.0900    0.6890    2.0150 C.2     1  UNL1        0.1300
      3  C          5.9640   -0.5040    2.1760 C.3     1  UNL1        0.0870
      4  O          3.9720    0.6360    2.5010 O.2     1  UNL1       -0.3000
      5  C          5.4210    1.7340   -0.2110 C.3     1  UNL1        0.0430
      6  C          6.5820    1.0290   -0.7840 C.2     1  UNL1       -0.0440
      7  C          7.8920    1.4620   -0.5470 C.2     1  UNL1        0.0080
      8  C          6.3850   -0.0830   -1.5700 C.2     1  UNL1        0.0540
      9  C          8.9420    0.7610   -1.1100 C.2     1  UNL1        0.0510
     10  C          7.4510   -0.7890   -2.1370 C.2     1  UNL1        0.1660
     11  C          8.7400   -0.3630   -1.9050 C.2     1  UNL1        0.1650
     12  O          7.5150   -1.9060   -2.9430 O.2     1  UNL1       -0.4540
     13  O          9.5780   -1.2370   -2.5800 O.2     1  UNL1       -0.4540
     14  C          8.8480   -2.2830   -3.1760 C.3     1  UNL1        0.4680
@<TRIPOS>BOND
     1    14    12    1
     2    14    13    1
     3    12    10    1
     4    13    11    1
     5    10    11    2
     6    10     8    1
     7    11     9    1
     8     8     6    2
     9     9     7    2
    10     6     7    1
    11     6     5    1
    12     5     1    1
    13     1     2    1
    14     2     3    1
    15     2     4    2
