@<TRIPOS>MOLECULE
/home/cewinharhar/GITHUB/reincatalyze/data/processed/docking_pred/2023-May-22-2206_sub9_nm5_bs15_s42_ex16_mel10_mts10000_k50_ec02_g099_lra9e-4_lrc1e-3/9cf679a9c5542d052f5b9fd38195e755841f8057_ligand_9.pdbqt
 14 15 0 0 0
SMALL
GASTEIGER

@<TRIPOS>ATOM
      1  C          5.5190   -0.0270    1.9120 C.3     1  UNL1        0.0800
      2  C          4.6570    1.1530    1.6200 C.2     1  UNL1        0.1300
      3  C          4.9880    2.1120    0.5330 C.3     1  UNL1        0.0870
      4  O          3.6470    1.3670    2.2710 O.2     1  UNL1       -0.3000
      5  C          6.9460    0.2100    1.4600 C.3     1  UNL1        0.0430
      6  C          7.3570   -0.7500    0.4200 C.2     1  UNL1       -0.0440
      7  C          7.2310   -0.4530   -0.9420 C.2     1  UNL1        0.0080
      8  C          7.8790   -1.9700    0.7850 C.2     1  UNL1        0.0540
      9  C          7.6340   -1.3930   -1.8740 C.2     1  UNL1        0.0510
     10  C          8.2850   -2.9170   -0.1610 C.2     1  UNL1        0.1660
     11  C          8.1610   -2.6260   -1.5010 C.2     1  UNL1        0.1650
     12  O          8.8250   -4.1800   -0.0530 O.2     1  UNL1       -0.4540
     13  O          8.6330   -3.7280   -2.1960 O.2     1  UNL1       -0.4540
     14  C          9.1480   -4.7000   -1.3170 C.3     1  UNL1        0.4680
@<TRIPOS>BOND
     1    13    11    1
     2    13    14    1
     3     9    11    2
     4     9     7    1
     5    11    10    1
     6    14    12    1
     7     7     6    2
     8    10    12    1
     9    10     8    2
    10     6     8    1
    11     6     5    1
    12     3     2    1
    13     5     1    1
    14     2     1    1
    15     2     4    2
