@<TRIPOS>MOLECULE
/home/cewinharhar/GITHUB/reincatalyze/data/processed/docking_pred/2023-May-22-2206_sub9_nm5_bs15_s42_ex16_mel10_mts10000_k50_ec02_g099_lra9e-4_lrc1e-3/9cf679a9c5542d052f5b9fd38195e755841f8057_ligand_9.pdbqt
 14 15 0 0 0
SMALL
GASTEIGER

@<TRIPOS>ATOM
      1  C          6.3020    1.2740    0.9110 C.3     1  UNL1        0.0800
      2  C          5.6350    0.4070    1.9210 C.2     1  UNL1        0.1300
      3  C          6.2990   -0.8050    2.4710 C.3     1  UNL1        0.0870
      4  O          4.5150    0.6690    2.3300 O.2     1  UNL1       -0.3000
      5  C          5.8010    0.9740   -0.4880 C.3     1  UNL1        0.0430
      6  C          6.7640    0.1580   -1.2500 C.2     1  UNL1       -0.0440
      7  C          7.4730    0.6850   -2.3360 C.2     1  UNL1        0.0080
      8  C          6.9800   -1.1530   -0.8930 C.2     1  UNL1        0.0540
      9  C          8.3640   -0.1280   -3.0130 C.2     1  UNL1        0.0510
     10  C          7.8820   -1.9710   -1.5800 C.2     1  UNL1        0.1660
     11  C          8.5790   -1.4540   -2.6490 C.2     1  UNL1        0.1650
     12  O          8.2660   -3.2850   -1.4230 O.2     1  UNL1       -0.4540
     13  O          9.3870   -2.4720   -3.1310 O.2     1  UNL1       -0.4540
     14  C          9.2870   -3.6230   -2.3260 C.3     1  UNL1        0.4680
@<TRIPOS>BOND
     1    13    11    1
     2    13    14    1
     3     9    11    2
     4     9     7    1
     5    11    10    1
     6     7     6    2
     7    14    12    1
     8    10    12    1
     9    10     8    2
    10     6     8    1
    11     6     5    1
    12     5     1    1
    13     1     2    1
    14     2     4    2
    15     2     3    1
