MODEL 1
REMARK VINA RESULT:      -7.7      0.000      0.000
REMARK SMILES CC(=O)CCc1ccc2c(c1)OCO2
REMARK SMILES IDX 4 1 2 2 1 3 3 4 5 5 6 6 7 7 11 8 8 9 10 10 9 11 12 12 14 13
REMARK SMILES IDX 13 14
REMARK H PARENT
REMARK Flexibility Score: inf
ROOT
ATOM      1  C   UNL     1       5.503   1.924   1.256  1.00  0.00     0.080 C 
ENDROOT
BRANCH   1   2
ATOM      2  C   UNL     1       5.069   0.707   1.998  1.00  0.00     0.130 C 
ATOM      3  C   UNL     1       5.965  -0.468   2.163  1.00  0.00     0.087 C 
ATOM      4  O   UNL     1       3.956   0.640   2.495  1.00  0.00    -0.300 OA
ENDBRANCH   1   2
BRANCH   1   5
ATOM      5  C   UNL     1       5.382   1.727  -0.242  1.00  0.00     0.043 C 
BRANCH   5   6
ATOM      6  C   UNL     1       6.552   1.024  -0.797  1.00  0.00    -0.044 A 
ATOM      7  C   UNL     1       7.858   1.452  -0.532  1.00  0.00     0.008 A 
ATOM      8  C   UNL     1       6.368  -0.082  -1.595  1.00  0.00     0.054 A 
ATOM      9  C   UNL     1       8.918   0.753  -1.081  1.00  0.00     0.051 A 
ATOM     10  C   UNL     1       7.443  -0.786  -2.147  1.00  0.00     0.166 A 
ATOM     11  C   UNL     1       8.728  -0.365  -1.887  1.00  0.00     0.165 A 
ATOM     12  O   UNL     1       7.520  -1.898  -2.959  1.00  0.00    -0.454 OA
ATOM     13  O   UNL     1       9.577  -1.236  -2.552  1.00  0.00    -0.454 OA
ATOM     14  C   UNL     1       8.856  -2.276  -3.169  1.00  0.00     0.468 C 
ENDBRANCH   5   6
ENDBRANCH   1   5
TORSDOF 3
ENDMDL
MODEL 2
REMARK VINA RESULT:      -7.4      1.825      2.265
REMARK SMILES CC(=O)CCc1ccc2c(c1)OCO2
REMARK SMILES IDX 4 1 2 2 1 3 3 4 5 5 6 6 7 7 11 8 8 9 10 10 9 11 12 12 14 13
REMARK SMILES IDX 13 14
REMARK H PARENT
REMARK Flexibility Score: inf
ROOT
ATOM      1  C   UNL     1       5.665   1.450  -0.284  1.00  0.00     0.080 C 
ENDROOT
BRANCH   1   2
ATOM      2  C   UNL     1       5.080   1.276   1.074  1.00  0.00     0.130 C 
ATOM      3  C   UNL     1       5.465   0.138   1.951  1.00  0.00     0.087 C 
ATOM      4  O   UNL     1       4.260   2.068   1.510  1.00  0.00    -0.300 OA
ENDBRANCH   1   2
BRANCH   1   5
ATOM      5  C   UNL     1       7.167   1.242  -0.267  1.00  0.00     0.043 C 
BRANCH   5   6
ATOM      6  C   UNL     1       7.549  -0.035  -0.897  1.00  0.00    -0.044 A 
ATOM      7  C   UNL     1       7.621  -0.174  -2.287  1.00  0.00     0.008 A 
ATOM      8  C   UNL     1       7.846  -1.123  -0.107  1.00  0.00     0.054 A 
ATOM      9  C   UNL     1       7.986  -1.396  -2.822  1.00  0.00     0.051 A 
ATOM     10  C   UNL     1       8.215  -2.356  -0.653  1.00  0.00     0.166 A 
ATOM     11  C   UNL     1       8.285  -2.494  -2.021  1.00  0.00     0.165 A 
ATOM     12  O   UNL     1       8.553  -3.569  -0.090  1.00  0.00    -0.454 OA
ATOM     13  O   UNL     1       8.670  -3.801  -2.273  1.00  0.00    -0.454 OA
ATOM     14  C   UNL     1       8.938  -4.492  -1.076  1.00  0.00     0.468 C 
ENDBRANCH   5   6
ENDBRANCH   1   5
TORSDOF 3
ENDMDL
MODEL 3
REMARK VINA RESULT:      -7.2      2.097      2.645
REMARK SMILES CC(=O)CCc1ccc2c(c1)OCO2
REMARK SMILES IDX 4 1 2 2 1 3 3 4 5 5 6 6 7 7 11 8 8 9 10 10 9 11 12 12 14 13
REMARK SMILES IDX 13 14
REMARK H PARENT
REMARK Flexibility Score: inf
ROOT
ATOM      1  C   UNL     1       5.519  -0.027   1.912  1.00  0.00     0.080 C 
ENDROOT
BRANCH   1   2
ATOM      2  C   UNL     1       4.657   1.153   1.620  1.00  0.00     0.130 C 
ATOM      3  C   UNL     1       4.988   2.112   0.533  1.00  0.00     0.087 C 
ATOM      4  O   UNL     1       3.647   1.367   2.271  1.00  0.00    -0.300 OA
ENDBRANCH   1   2
BRANCH   1   5
ATOM      5  C   UNL     1       6.946   0.210   1.460  1.00  0.00     0.043 C 
BRANCH   5   6
ATOM      6  C   UNL     1       7.357  -0.750   0.420  1.00  0.00    -0.044 A 
ATOM      7  C   UNL     1       7.231  -0.453  -0.942  1.00  0.00     0.008 A 
ATOM      8  C   UNL     1       7.879  -1.970   0.785  1.00  0.00     0.054 A 
ATOM      9  C   UNL     1       7.634  -1.393  -1.874  1.00  0.00     0.051 A 
ATOM     10  C   UNL     1       8.285  -2.917  -0.161  1.00  0.00     0.166 A 
ATOM     11  C   UNL     1       8.161  -2.626  -1.501  1.00  0.00     0.165 A 
ATOM     12  O   UNL     1       8.825  -4.180  -0.053  1.00  0.00    -0.454 OA
ATOM     13  O   UNL     1       8.633  -3.728  -2.196  1.00  0.00    -0.454 OA
ATOM     14  C   UNL     1       9.148  -4.700  -1.317  1.00  0.00     0.468 C 
ENDBRANCH   5   6
ENDBRANCH   1   5
TORSDOF 3
ENDMDL
MODEL 4
REMARK VINA RESULT:      -7.1      1.232      1.415
REMARK SMILES CC(=O)CCc1ccc2c(c1)OCO2
REMARK SMILES IDX 4 1 2 2 1 3 3 4 5 5 6 6 7 7 11 8 8 9 10 10 9 11 12 12 14 13
REMARK SMILES IDX 13 14
REMARK H PARENT
REMARK Flexibility Score: inf
ROOT
ATOM      1  C   UNL     1       6.302   1.274   0.911  1.00  0.00     0.080 C 
ENDROOT
BRANCH   1   2
ATOM      2  C   UNL     1       5.635   0.407   1.921  1.00  0.00     0.130 C 
ATOM      3  C   UNL     1       6.299  -0.805   2.471  1.00  0.00     0.087 C 
ATOM      4  O   UNL     1       4.515   0.669   2.330  1.00  0.00    -0.300 OA
ENDBRANCH   1   2
BRANCH   1   5
ATOM      5  C   UNL     1       5.801   0.974  -0.488  1.00  0.00     0.043 C 
BRANCH   5   6
ATOM      6  C   UNL     1       6.764   0.158  -1.250  1.00  0.00    -0.044 A 
ATOM      7  C   UNL     1       7.473   0.685  -2.336  1.00  0.00     0.008 A 
ATOM      8  C   UNL     1       6.980  -1.153  -0.893  1.00  0.00     0.054 A 
ATOM      9  C   UNL     1       8.364  -0.128  -3.013  1.00  0.00     0.051 A 
ATOM     10  C   UNL     1       7.882  -1.971  -1.580  1.00  0.00     0.166 A 
ATOM     11  C   UNL     1       8.579  -1.454  -2.649  1.00  0.00     0.165 A 
ATOM     12  O   UNL     1       8.266  -3.285  -1.423  1.00  0.00    -0.454 OA
ATOM     13  O   UNL     1       9.387  -2.472  -3.131  1.00  0.00    -0.454 OA
ATOM     14  C   UNL     1       9.287  -3.623  -2.326  1.00  0.00     0.468 C 
ENDBRANCH   5   6
ENDBRANCH   1   5
TORSDOF 3
ENDMDL
MODEL 5
REMARK VINA RESULT:      -7.0      1.973      2.539
REMARK SMILES CC(=O)CCc1ccc2c(c1)OCO2
REMARK SMILES IDX 4 1 2 2 1 3 3 4 5 5 6 6 7 7 11 8 8 9 10 10 9 11 12 12 14 13
REMARK SMILES IDX 13 14
REMARK H PARENT
REMARK Flexibility Score: inf
ROOT
ATOM      1  C   UNL     1       6.916   0.920   1.105  1.00  0.00     0.080 C 
ENDROOT
BRANCH   1   2
ATOM      2  C   UNL     1       5.474   1.119   1.421  1.00  0.00     0.130 C 
ATOM      3  C   UNL     1       4.656   2.146   0.723  1.00  0.00     0.087 C 
ATOM      4  O   UNL     1       4.919   0.439   2.269  1.00  0.00    -0.300 OA
ENDBRANCH   1   2
BRANCH   1   5
ATOM      5  C   UNL     1       7.170   1.008  -0.387  1.00  0.00     0.043 C 
BRANCH   5   6
ATOM      6  C   UNL     1       7.607  -0.284  -0.944  1.00  0.00    -0.044 A 
ATOM      7  C   UNL     1       7.801  -0.462  -2.319  1.00  0.00     0.008 A 
ATOM      8  C   UNL     1       7.836  -1.348  -0.101  1.00  0.00     0.054 A 
ATOM      9  C   UNL     1       8.213  -1.697  -2.784  1.00  0.00     0.051 A 
ATOM     10  C   UNL     1       8.253  -2.595  -0.577  1.00  0.00     0.166 A 
ATOM     11  C   UNL     1       8.443  -2.771  -1.929  1.00  0.00     0.165 A 
ATOM     12  O   UNL     1       8.542  -3.790   0.047  1.00  0.00    -0.454 OA
ATOM     13  O   UNL     1       8.850  -4.083  -2.109  1.00  0.00    -0.454 OA
ATOM     14  C   UNL     1       9.013  -4.739  -0.874  1.00  0.00     0.468 C 
ENDBRANCH   5   6
ENDBRANCH   1   5
TORSDOF 3
ENDMDL
