MODEL 1
REMARK VINA RESULT:      -7.5      0.000      0.000
REMARK SMILES CC(=O)CCc1ccc2c(c1)OCO2
REMARK SMILES IDX 4 1 2 2 1 3 3 4 5 5 6 6 7 7 11 8 8 9 10 10 9 11 12 12 14 13
REMARK SMILES IDX 13 14
REMARK H PARENT
REMARK Flexibility Score: inf
ROOT
ATOM      1  C   UNL     1       5.544   1.800   1.169  1.00  0.00     0.080 C 
ENDROOT
BRANCH   1   2
ATOM      2  C   UNL     1       5.126   0.605   1.954  1.00  0.00     0.130 C 
ATOM      3  C   UNL     1       5.989  -0.602   2.058  1.00  0.00     0.087 C 
ATOM      4  O   UNL     1       4.054   0.582   2.536  1.00  0.00    -0.300 OA
ENDBRANCH   1   2
BRANCH   1   5
ATOM      5  C   UNL     1       5.434   1.547  -0.321  1.00  0.00     0.043 C 
BRANCH   5   6
ATOM      6  C   UNL     1       6.681   0.987  -0.874  1.00  0.00    -0.044 A 
ATOM      7  C   UNL     1       7.937   1.447  -0.462  1.00  0.00     0.008 A 
ATOM      8  C   UNL     1       6.620  -0.013  -1.817  1.00  0.00     0.054 A 
ATOM      9  C   UNL     1       9.072   0.884  -1.015  1.00  0.00     0.051 A 
ATOM     10  C   UNL     1       7.771  -0.580  -2.373  1.00  0.00     0.166 A 
ATOM     11  C   UNL     1       9.007  -0.127  -1.969  1.00  0.00     0.165 A 
ATOM     12  O   UNL     1       7.972  -1.570  -3.311  1.00  0.00    -0.454 OA
ATOM     13  O   UNL     1       9.951  -0.857  -2.674  1.00  0.00    -0.454 OA
ATOM     14  C   UNL     1       9.340  -1.845  -3.469  1.00  0.00     0.468 C 
ENDBRANCH   5   6
ENDBRANCH   1   5
TORSDOF 3
ENDMDL
MODEL 2
REMARK VINA RESULT:      -7.4      1.010      1.858
REMARK SMILES CC(=O)CCc1ccc2c(c1)OCO2
REMARK SMILES IDX 4 1 2 2 1 3 3 4 5 5 6 6 7 7 11 8 8 9 10 10 9 11 12 12 14 13
REMARK SMILES IDX 13 14
REMARK H PARENT
REMARK Flexibility Score: inf
ROOT
ATOM      1  C   UNL     1       6.072   1.372   1.089  1.00  0.00     0.080 C 
ENDROOT
BRANCH   1   2
ATOM      2  C   UNL     1       5.559   0.316   2.006  1.00  0.00     0.130 C 
ATOM      3  C   UNL     1       6.362  -0.893   2.332  1.00  0.00     0.087 C 
ATOM      4  O   UNL     1       4.456   0.414   2.519  1.00  0.00    -0.300 OA
ENDBRANCH   1   2
BRANCH   1   5
ATOM      5  C   UNL     1       5.683   1.089  -0.349  1.00  0.00     0.043 C 
BRANCH   5   6
ATOM      6  C   UNL     1       6.796   0.496  -1.110  1.00  0.00    -0.044 A 
ATOM      7  C   UNL     1       6.648  -0.709  -1.807  1.00  0.00     0.008 A 
ATOM      8  C   UNL     1       8.015   1.134  -1.145  1.00  0.00     0.054 A 
ATOM      9  C   UNL     1       7.728  -1.218  -2.505  1.00  0.00     0.051 A 
ATOM     10  C   UNL     1       9.104   0.615  -1.853  1.00  0.00     0.166 A 
ATOM     11  C   UNL     1       8.959  -0.570  -2.538  1.00  0.00     0.165 A 
ATOM     12  O   UNL     1      10.398   1.053  -2.039  1.00  0.00    -0.454 OA
ATOM     13  O   UNL     1      10.179  -0.839  -3.138  1.00  0.00    -0.454 OA
ATOM     14  C   UNL     1      11.093   0.210  -2.922  1.00  0.00     0.468 C 
ENDBRANCH   5   6
ENDBRANCH   1   5
TORSDOF 3
ENDMDL
MODEL 3
REMARK VINA RESULT:      -7.2      1.258      2.327
REMARK SMILES CC(=O)CCc1ccc2c(c1)OCO2
REMARK SMILES IDX 4 1 2 2 1 3 3 4 5 5 6 6 7 7 11 8 8 9 10 10 9 11 12 12 14 13
REMARK SMILES IDX 13 14
REMARK H PARENT
REMARK Flexibility Score: inf
ROOT
ATOM      1  C   UNL     1       5.836  -0.606   1.728  1.00  0.00     0.080 C 
ENDROOT
BRANCH   1   2
ATOM      2  C   UNL     1       5.009   0.632   1.764  1.00  0.00     0.130 C 
ATOM      3  C   UNL     1       5.268   1.771   0.842  1.00  0.00     0.087 C 
ATOM      4  O   UNL     1       4.089   0.749   2.557  1.00  0.00    -0.300 OA
ENDBRANCH   1   2
BRANCH   1   5
ATOM      5  C   UNL     1       7.295  -0.286   1.467  1.00  0.00     0.043 C 
BRANCH   5   6
ATOM      6  C   UNL     1       7.625  -0.373   0.033  1.00  0.00    -0.044 A 
ATOM      7  C   UNL     1       6.918  -1.216  -0.832  1.00  0.00     0.008 A 
ATOM      8  C   UNL     1       8.650   0.389  -0.479  1.00  0.00     0.054 A 
ATOM      9  C   UNL     1       7.272  -1.255  -2.169  1.00  0.00     0.051 A 
ATOM     10  C   UNL     1       9.004   0.346  -1.830  1.00  0.00     0.166 A 
ATOM     11  C   UNL     1       8.309  -0.483  -2.682  1.00  0.00     0.165 A 
ATOM     12  O   UNL     1       9.969   0.996  -2.570  1.00  0.00    -0.454 OA
ATOM     13  O   UNL     1       8.867  -0.323  -3.941  1.00  0.00    -0.454 OA
ATOM     14  C   UNL     1       9.863   0.672  -3.933  1.00  0.00     0.468 C 
ENDBRANCH   5   6
ENDBRANCH   1   5
TORSDOF 3
ENDMDL
MODEL 4
REMARK VINA RESULT:      -7.0      2.144      2.602
REMARK SMILES CC(=O)CCc1ccc2c(c1)OCO2
REMARK SMILES IDX 4 1 2 2 1 3 3 4 5 5 6 6 7 7 11 8 8 9 10 10 9 11 12 12 14 13
REMARK SMILES IDX 13 14
REMARK H PARENT
REMARK Flexibility Score: inf
ROOT
ATOM      1  C   UNL     1       5.679   1.260  -0.317  1.00  0.00     0.080 C 
ENDROOT
BRANCH   1   2
ATOM      2  C   UNL     1       5.159   1.266   1.079  1.00  0.00     0.130 C 
ATOM      3  C   UNL     1       5.544   0.215   2.060  1.00  0.00     0.087 C 
ATOM      4  O   UNL     1       4.397   2.139   1.461  1.00  0.00    -0.300 OA
ENDBRANCH   1   2
BRANCH   1   5
ATOM      5  C   UNL     1       7.184   1.084  -0.343  1.00  0.00     0.043 C 
BRANCH   5   6
ATOM      6  C   UNL     1       7.572  -0.217  -0.917  1.00  0.00    -0.044 A 
ATOM      7  C   UNL     1       7.652  -0.412  -2.301  1.00  0.00     0.008 A 
ATOM      8  C   UNL     1       7.868  -1.271  -0.083  1.00  0.00     0.054 A 
ATOM      9  C   UNL     1       8.023  -1.655  -2.783  1.00  0.00     0.051 A 
ATOM     10  C   UNL     1       8.242  -2.524  -0.575  1.00  0.00     0.166 A 
ATOM     11  C   UNL     1       8.320  -2.718  -1.936  1.00  0.00     0.165 A 
ATOM     12  O   UNL     1       8.580  -3.712   0.039  1.00  0.00    -0.454 OA
ATOM     13  O   UNL     1       8.708  -4.034  -2.132  1.00  0.00    -0.454 OA
ATOM     14  C   UNL     1       8.972  -4.674  -0.906  1.00  0.00     0.468 C 
ENDBRANCH   5   6
ENDBRANCH   1   5
TORSDOF 3
ENDMDL
MODEL 5
REMARK VINA RESULT:      -7.0      1.738      5.474
REMARK SMILES CC(=O)CCc1ccc2c(c1)OCO2
REMARK SMILES IDX 4 1 2 2 1 3 3 4 5 5 6 6 7 7 11 8 8 9 10 10 9 11 12 12 14 13
REMARK SMILES IDX 13 14
REMARK H PARENT
REMARK Flexibility Score: inf
ROOT
ATOM      1  C   UNL     1       8.729   0.405  -3.365  1.00  0.00     0.080 C 
ENDROOT
BRANCH   1   2
ATOM      2  C   UNL     1      10.160   0.640  -3.027  1.00  0.00     0.130 C 
ATOM      3  C   UNL     1      11.065   1.391  -3.939  1.00  0.00     0.087 C 
ATOM      4  O   UNL     1      10.635   0.220  -1.984  1.00  0.00    -0.300 OA
ENDBRANCH   1   2
BRANCH   1   5
ATOM      5  C   UNL     1       8.179  -0.798  -2.625  1.00  0.00     0.043 C 
BRANCH   5   6
ATOM      6  C   UNL     1       7.425  -0.402  -1.422  1.00  0.00    -0.044 A 
ATOM      7  C   UNL     1       7.582  -1.075  -0.205  1.00  0.00     0.008 A 
ATOM      8  C   UNL     1       6.546   0.655  -1.485  1.00  0.00     0.054 A 
ATOM      9  C   UNL     1       6.848  -0.658   0.891  1.00  0.00     0.051 A 
ATOM     10  C   UNL     1       5.808   1.073  -0.374  1.00  0.00     0.166 A 
ATOM     11  C   UNL     1       5.960   0.411   0.824  1.00  0.00     0.165 A 
ATOM     12  O   UNL     1       4.884   2.079  -0.184  1.00  0.00    -0.454 OA
ATOM     13  O   UNL     1       5.118   1.031   1.734  1.00  0.00    -0.454 OA
ATOM     14  C   UNL     1       4.485   2.150   1.161  1.00  0.00     0.468 C 
ENDBRANCH   5   6
ENDBRANCH   1   5
TORSDOF 3
ENDMDL
