@<TRIPOS>MOLECULE
/home/cewinharhar/GITHUB/reincatalyze/data/processed/docking_pred/2023-May-22-2206_sub9_nm5_bs15_s42_ex16_mel10_mts10000_k50_ec02_g099_lra9e-4_lrc1e-3/9f92c22f58037dfd31510195396f5f62a4e9f4e3_ligand_9.pdbqt
 14 15 0 0 0
SMALL
GASTEIGER

@<TRIPOS>ATOM
      1  C          5.8360   -0.6060    1.7280 C.3     1  UNL1        0.0800
      2  C          5.0090    0.6320    1.7640 C.2     1  UNL1        0.1300
      3  C          5.2680    1.7710    0.8420 C.3     1  UNL1        0.0870
      4  O          4.0890    0.7490    2.5570 O.2     1  UNL1       -0.3000
      5  C          7.2950   -0.2860    1.4670 C.3     1  UNL1        0.0430
      6  C          7.6250   -0.3730    0.0330 C.2     1  UNL1       -0.0440
      7  C          6.9180   -1.2160   -0.8320 C.2     1  UNL1        0.0080
      8  C          8.6500    0.3890   -0.4790 C.2     1  UNL1        0.0540
      9  C          7.2720   -1.2550   -2.1690 C.2     1  UNL1        0.0510
     10  C          9.0040    0.3460   -1.8300 C.2     1  UNL1        0.1660
     11  C          8.3090   -0.4830   -2.6820 C.2     1  UNL1        0.1650
     12  O          9.9690    0.9960   -2.5700 O.2     1  UNL1       -0.4540
     13  O          8.8670   -0.3230   -3.9410 O.2     1  UNL1       -0.4540
     14  C          9.8630    0.6720   -3.9330 C.3     1  UNL1        0.4680
@<TRIPOS>BOND
     1    13    14    1
     2    13    11    1
     3    14    12    1
     4    11     9    2
     5    11    10    1
     6    12    10    1
     7     9     7    1
     8    10     8    2
     9     7     6    2
    10     8     6    1
    11     6     5    1
    12     3     2    1
    13     5     1    1
    14     1     2    1
    15     2     4    2
