@<TRIPOS>MOLECULE
/home/cewinharhar/GITHUB/reincatalyze/data/processed/docking_pred/2023-May-22-2206_sub9_nm5_bs15_s42_ex16_mel10_mts10000_k50_ec02_g099_lra9e-4_lrc1e-3/a450f47ca4f24610d4ad642e19216dd37a68a7e2_ligand_9.pdbqt
 14 15 0 0 0
SMALL
GASTEIGER

@<TRIPOS>ATOM
      1  C          6.3830    1.1790    0.9430 C.3     1  UNL1        0.0800
      2  C          5.6550    0.3560    1.9490 C.2     1  UNL1        0.1300
      3  C          6.2540   -0.8720    2.5350 C.3     1  UNL1        0.0870
      4  O          4.5360    0.6700    2.3240 O.2     1  UNL1       -0.3000
      5  C          5.8770    0.9070   -0.4600 C.3     1  UNL1        0.0430
      6  C          6.8240    0.0830   -1.2320 C.2     1  UNL1       -0.0440
      7  C          7.5080    0.5950   -2.3400 C.2     1  UNL1        0.0080
      8  C          7.0520   -1.2230   -0.8610 C.2     1  UNL1        0.0540
      9  C          8.3860   -0.2250   -3.0250 C.2     1  UNL1        0.0510
     10  C          7.9400   -2.0480   -1.5570 C.2     1  UNL1        0.1660
     11  C          8.6130   -1.5450   -2.6480 C.2     1  UNL1        0.1650
     12  O          8.3320   -3.3600   -1.3900 O.2     1  UNL1       -0.4540
     13  O          9.4120   -2.5680   -3.1330 O.2     1  UNL1       -0.4540
     14  C          9.3330   -3.7080   -2.3110 C.3     1  UNL1        0.4680
@<TRIPOS>BOND
     1    13    11    1
     2    13    14    1
     3     9    11    2
     4     9     7    1
     5    11    10    1
     6     7     6    2
     7    14    12    1
     8    10    12    1
     9    10     8    2
    10     6     8    1
    11     6     5    1
    12     5     1    1
    13     1     2    1
    14     2     4    2
    15     2     3    1
