@<TRIPOS>MOLECULE
/home/cewinharhar/GITHUB/reincatalyze/data/processed/docking_pred/2023-May-22-2206_sub9_nm5_bs15_s42_ex16_mel10_mts10000_k50_ec02_g099_lra9e-4_lrc1e-3/a450f47ca4f24610d4ad642e19216dd37a68a7e2_ligand_9.pdbqt
 14 15 0 0 0
SMALL
GASTEIGER

@<TRIPOS>ATOM
      1  C          6.9160    0.9340    1.1650 C.3     1  UNL1        0.0800
      2  C          5.4530    1.1560    1.3350 C.2     1  UNL1        0.1300
      3  C          4.7120    2.1480    0.5110 C.3     1  UNL1        0.0870
      4  O          4.8150    0.5240    2.1620 O.2     1  UNL1       -0.3000
      5  C          7.3300    1.0800   -0.2860 C.3     1  UNL1        0.0430
      6  C          7.6870   -0.2180   -0.8850 C.2     1  UNL1       -0.0440
      7  C          7.7790   -0.3850   -2.2720 C.2     1  UNL1        0.0080
      8  C          7.9420   -1.2980   -0.0710 C.2     1  UNL1        0.0540
      9  C          8.1200   -1.6260   -2.7770 C.2     1  UNL1        0.0510
     10  C          8.2860   -2.5510   -0.5870 C.2     1  UNL1        0.1660
     11  C          8.3760   -2.7160   -1.9510 C.2     1  UNL1        0.1650
     12  O          8.5810   -3.7620    0.0030 O.2     1  UNL1       -0.4540
     13  O          8.7280   -4.0380   -2.1730 O.2     1  UNL1       -0.4540
     14  C          8.9580   -4.7130   -0.9590 C.3     1  UNL1        0.4680
@<TRIPOS>BOND
     1     9     7    1
     2     9    11    2
     3     7     6    2
     4    13    11    1
     5    13    14    1
     6    11    10    1
     7    14    12    1
     8     6     5    1
     9     6     8    1
    10    10     8    2
    11    10    12    1
    12     5     1    1
    13     3     2    1
    14     1     2    1
    15     2     4    2
