MODEL 1
REMARK VINA RESULT:      -7.6      0.000      0.000
REMARK SMILES CC(=O)CCc1ccc2c(c1)OCO2
REMARK SMILES IDX 4 1 2 2 1 3 3 4 5 5 6 6 7 7 11 8 8 9 10 10 9 11 12 12 14 13
REMARK SMILES IDX 13 14
REMARK H PARENT
REMARK Flexibility Score: inf
ROOT
ATOM      1  C   UNL     1       5.546   1.921   1.284  1.00  0.00     0.080 C 
ENDROOT
BRANCH   1   2
ATOM      2  C   UNL     1       5.137   0.694   2.022  1.00  0.00     0.130 C 
ATOM      3  C   UNL     1       6.060  -0.460   2.190  1.00  0.00     0.087 C 
ATOM      4  O   UNL     1       4.024   0.601   2.514  1.00  0.00    -0.300 OA
ENDBRANCH   1   2
BRANCH   1   5
ATOM      5  C   UNL     1       5.413   1.732  -0.215  1.00  0.00     0.043 C 
BRANCH   5   6
ATOM      6  C   UNL     1       6.578   1.030  -0.782  1.00  0.00    -0.044 A 
ATOM      7  C   UNL     1       7.887   1.457  -0.528  1.00  0.00     0.008 A 
ATOM      8  C   UNL     1       6.387  -0.074  -1.581  1.00  0.00     0.054 A 
ATOM      9  C   UNL     1       8.941   0.758  -1.087  1.00  0.00     0.051 A 
ATOM     10  C   UNL     1       7.456  -0.778  -2.144  1.00  0.00     0.166 A 
ATOM     11  C   UNL     1       8.744  -0.358  -1.895  1.00  0.00     0.165 A 
ATOM     12  O   UNL     1       7.526  -1.887  -2.959  1.00  0.00    -0.454 OA
ATOM     13  O   UNL     1       9.586  -1.228  -2.569  1.00  0.00    -0.454 OA
ATOM     14  C   UNL     1       8.860  -2.266  -3.182  1.00  0.00     0.468 C 
ENDBRANCH   5   6
ENDBRANCH   1   5
TORSDOF 3
ENDMDL
MODEL 2
REMARK VINA RESULT:      -7.5      1.943      2.402
REMARK SMILES CC(=O)CCc1ccc2c(c1)OCO2
REMARK SMILES IDX 4 1 2 2 1 3 3 4 5 5 6 6 7 7 11 8 8 9 10 10 9 11 12 12 14 13
REMARK SMILES IDX 13 14
REMARK H PARENT
REMARK Flexibility Score: inf
ROOT
ATOM      1  C   UNL     1       5.718   1.246  -0.311  1.00  0.00     0.080 C 
ENDROOT
BRANCH   1   2
ATOM      2  C   UNL     1       5.144   1.235   1.063  1.00  0.00     0.130 C 
ATOM      3  C   UNL     1       5.404   0.117   2.009  1.00  0.00     0.087 C 
ATOM      4  O   UNL     1       4.438   2.150   1.455  1.00  0.00    -0.300 OA
ENDBRANCH   1   2
BRANCH   1   5
ATOM      5  C   UNL     1       7.223   1.066  -0.281  1.00  0.00     0.043 C 
BRANCH   5   6
ATOM      6  C   UNL     1       7.632  -0.216  -0.881  1.00  0.00    -0.044 A 
ATOM      7  C   UNL     1       7.774  -0.366  -2.265  1.00  0.00     0.008 A 
ATOM      8  C   UNL     1       7.886  -1.299  -0.069  1.00  0.00     0.054 A 
ATOM      9  C   UNL     1       8.162  -1.593  -2.771  1.00  0.00     0.051 A 
ATOM     10  C   UNL     1       8.278  -2.537  -0.585  1.00  0.00     0.166 A 
ATOM     11  C   UNL     1       8.417  -2.686  -1.947  1.00  0.00     0.165 A 
ATOM     12  O   UNL     1       8.583  -3.746   0.003  1.00  0.00    -0.454 OA
ATOM     13  O   UNL     1       8.810  -3.996  -2.170  1.00  0.00    -0.454 OA
ATOM     14  C   UNL     1       9.015  -4.678  -0.955  1.00  0.00     0.468 C 
ENDBRANCH   5   6
ENDBRANCH   1   5
TORSDOF 3
ENDMDL
MODEL 3
REMARK VINA RESULT:      -7.2      2.054      2.632
REMARK SMILES CC(=O)CCc1ccc2c(c1)OCO2
REMARK SMILES IDX 4 1 2 2 1 3 3 4 5 5 6 6 7 7 11 8 8 9 10 10 9 11 12 12 14 13
REMARK SMILES IDX 13 14
REMARK H PARENT
REMARK Flexibility Score: inf
ROOT
ATOM      1  C   UNL     1       5.404  -0.054   2.024  1.00  0.00     0.080 C 
ENDROOT
BRANCH   1   2
ATOM      2  C   UNL     1       4.558   1.144   1.769  1.00  0.00     0.130 C 
ATOM      3  C   UNL     1       4.902   2.131   0.710  1.00  0.00     0.087 C 
ATOM      4  O   UNL     1       3.551   1.353   2.426  1.00  0.00    -0.300 OA
ENDBRANCH   1   2
BRANCH   1   5
ATOM      5  C   UNL     1       6.844   0.191   1.616  1.00  0.00     0.043 C 
BRANCH   5   6
ATOM      6  C   UNL     1       7.273  -0.730   0.549  1.00  0.00    -0.044 A 
ATOM      7  C   UNL     1       7.152  -0.391  -0.804  1.00  0.00     0.008 A 
ATOM      8  C   UNL     1       7.811  -1.953   0.878  1.00  0.00     0.054 A 
ATOM      9  C   UNL     1       7.573  -1.295  -1.762  1.00  0.00     0.051 A 
ATOM     10  C   UNL     1       8.236  -2.863  -0.094  1.00  0.00     0.166 A 
ATOM     11  C   UNL     1       8.115  -2.531  -1.426  1.00  0.00     0.165 A 
ATOM     12  O   UNL     1       8.794  -4.122  -0.024  1.00  0.00    -0.454 OA
ATOM     13  O   UNL     1       8.608  -3.604  -2.152  1.00  0.00    -0.454 OA
ATOM     14  C   UNL     1       9.132  -4.596  -1.302  1.00  0.00     0.468 C 
ENDBRANCH   5   6
ENDBRANCH   1   5
TORSDOF 3
ENDMDL
MODEL 4
REMARK VINA RESULT:      -7.1      1.251      1.467
REMARK SMILES CC(=O)CCc1ccc2c(c1)OCO2
REMARK SMILES IDX 4 1 2 2 1 3 3 4 5 5 6 6 7 7 11 8 8 9 10 10 9 11 12 12 14 13
REMARK SMILES IDX 13 14
REMARK H PARENT
REMARK Flexibility Score: inf
ROOT
ATOM      1  C   UNL     1       6.377   1.191   0.932  1.00  0.00     0.080 C 
ENDROOT
BRANCH   1   2
ATOM      2  C   UNL     1       5.658   0.370   1.946  1.00  0.00     0.130 C 
ATOM      3  C   UNL     1       6.262  -0.858   2.527  1.00  0.00     0.087 C 
ATOM      4  O   UNL     1       4.543   0.685   2.330  1.00  0.00    -0.300 OA
ENDBRANCH   1   2
BRANCH   1   5
ATOM      5  C   UNL     1       5.864   0.913  -0.467  1.00  0.00     0.043 C 
BRANCH   5   6
ATOM      6  C   UNL     1       6.812   0.096  -1.244  1.00  0.00    -0.044 A 
ATOM      7  C   UNL     1       7.491   0.616  -2.352  1.00  0.00     0.008 A 
ATOM      8  C   UNL     1       7.046  -1.211  -0.880  1.00  0.00     0.054 A 
ATOM      9  C   UNL     1       8.370  -0.198  -3.043  1.00  0.00     0.051 A 
ATOM     10  C   UNL     1       7.936  -2.029  -1.582  1.00  0.00     0.166 A 
ATOM     11  C   UNL     1       8.603  -1.518  -2.673  1.00  0.00     0.165 A 
ATOM     12  O   UNL     1       8.333  -3.340  -1.421  1.00  0.00    -0.454 OA
ATOM     13  O   UNL     1       9.406  -2.536  -3.164  1.00  0.00    -0.454 OA
ATOM     14  C   UNL     1       9.334  -3.680  -2.347  1.00  0.00     0.468 C 
ENDBRANCH   5   6
ENDBRANCH   1   5
TORSDOF 3
ENDMDL
MODEL 5
REMARK VINA RESULT:      -7.1      1.987      2.548
REMARK SMILES CC(=O)CCc1ccc2c(c1)OCO2
REMARK SMILES IDX 4 1 2 2 1 3 3 4 5 5 6 6 7 7 11 8 8 9 10 10 9 11 12 12 14 13
REMARK SMILES IDX 13 14
REMARK H PARENT
REMARK Flexibility Score: inf
ROOT
ATOM      1  C   UNL     1       6.744   0.744   1.408  1.00  0.00     0.080 C 
ENDROOT
BRANCH   1   2
ATOM      2  C   UNL     1       5.312   1.149   1.473  1.00  0.00     0.130 C 
ATOM      3  C   UNL     1       4.739   2.150   0.533  1.00  0.00     0.087 C 
ATOM      4  O   UNL     1       4.561   0.667   2.306  1.00  0.00    -0.300 OA
ENDBRANCH   1   2
BRANCH   1   5
ATOM      5  C   UNL     1       7.319   0.977   0.025  1.00  0.00     0.043 C 
BRANCH   5   6
ATOM      6  C   UNL     1       7.640  -0.291  -0.653  1.00  0.00    -0.044 A 
ATOM      7  C   UNL     1       7.594  -0.409  -2.047  1.00  0.00     0.008 A 
ATOM      8  C   UNL     1       7.998  -1.392   0.092  1.00  0.00     0.054 A 
ATOM      9  C   UNL     1       7.907  -1.625  -2.629  1.00  0.00     0.051 A 
ATOM     10  C   UNL     1       8.314  -2.618  -0.501  1.00  0.00     0.166 A 
ATOM     11  C   UNL     1       8.268  -2.736  -1.872  1.00  0.00     0.165 A 
ATOM     12  O   UNL     1       8.692  -3.841   0.013  1.00  0.00    -0.454 OA
ATOM     13  O   UNL     1       8.623  -4.041  -2.175  1.00  0.00    -0.454 OA
ATOM     14  C   UNL     1       8.989  -4.750  -1.016  1.00  0.00     0.468 C 
ENDBRANCH   5   6
ENDBRANCH   1   5
TORSDOF 3
ENDMDL
