MODEL 1
REMARK VINA RESULT:      -7.6      0.000      0.000
REMARK SMILES CC(=O)CCc1ccc2c(c1)OCO2
REMARK SMILES IDX 4 1 2 2 1 3 3 4 5 5 6 6 7 7 11 8 8 9 10 10 9 11 12 12 14 13
REMARK SMILES IDX 13 14
REMARK H PARENT
REMARK Flexibility Score: inf
ROOT
ATOM      1  C   UNL     1       5.523   1.925   1.261  1.00  0.00     0.080 C 
ENDROOT
BRANCH   1   2
ATOM      2  C   UNL     1       5.086   0.712   2.007  1.00  0.00     0.130 C 
ATOM      3  C   UNL     1       5.983  -0.461   2.185  1.00  0.00     0.087 C 
ATOM      4  O   UNL     1       3.970   0.646   2.497  1.00  0.00    -0.300 OA
ENDBRANCH   1   2
BRANCH   1   5
ATOM      5  C   UNL     1       5.395   1.726  -0.236  1.00  0.00     0.043 C 
BRANCH   5   6
ATOM      6  C   UNL     1       6.564   1.025  -0.796  1.00  0.00    -0.044 A 
ATOM      7  C   UNL     1       7.870   1.457  -0.540  1.00  0.00     0.008 A 
ATOM      8  C   UNL     1       6.378  -0.085  -1.590  1.00  0.00     0.054 A 
ATOM      9  C   UNL     1       8.928   0.758  -1.092  1.00  0.00     0.051 A 
ATOM     10  C   UNL     1       7.452  -0.788  -2.145  1.00  0.00     0.166 A 
ATOM     11  C   UNL     1       8.737  -0.363  -1.894  1.00  0.00     0.165 A 
ATOM     12  O   UNL     1       7.527  -1.901  -2.954  1.00  0.00    -0.454 OA
ATOM     13  O   UNL     1       9.585  -1.234  -2.561  1.00  0.00    -0.454 OA
ATOM     14  C   UNL     1       8.863  -2.277  -3.171  1.00  0.00     0.468 C 
ENDBRANCH   5   6
ENDBRANCH   1   5
TORSDOF 3
ENDMDL
MODEL 2
REMARK VINA RESULT:      -7.3      1.945      2.421
REMARK SMILES CC(=O)CCc1ccc2c(c1)OCO2
REMARK SMILES IDX 4 1 2 2 1 3 3 4 5 5 6 6 7 7 11 8 8 9 10 10 9 11 12 12 14 13
REMARK SMILES IDX 13 14
REMARK H PARENT
REMARK Flexibility Score: inf
ROOT
ATOM      1  C   UNL     1       5.772   1.343  -0.310  1.00  0.00     0.080 C 
ENDROOT
BRANCH   1   2
ATOM      2  C   UNL     1       5.201   1.285   1.065  1.00  0.00     0.130 C 
ATOM      3  C   UNL     1       5.533   0.178   2.002  1.00  0.00     0.087 C 
ATOM      4  O   UNL     1       4.439   2.150   1.464  1.00  0.00    -0.300 OA
ENDBRANCH   1   2
BRANCH   1   5
ATOM      5  C   UNL     1       7.269   1.106  -0.294  1.00  0.00     0.043 C 
BRANCH   5   6
ATOM      6  C   UNL     1       7.622  -0.200  -0.879  1.00  0.00    -0.044 A 
ATOM      7  C   UNL     1       7.643  -0.402  -2.264  1.00  0.00     0.008 A 
ATOM      8  C   UNL     1       7.943  -1.253  -0.052  1.00  0.00     0.054 A 
ATOM      9  C   UNL     1       7.983  -1.650  -2.755  1.00  0.00     0.051 A 
ATOM     10  C   UNL     1       8.286  -2.512  -0.554  1.00  0.00     0.166 A 
ATOM     11  C   UNL     1       8.306  -2.712  -1.916  1.00  0.00     0.165 A 
ATOM     12  O   UNL     1       8.639  -3.700   0.051  1.00  0.00    -0.454 OA
ATOM     13  O   UNL     1       8.675  -4.032  -2.122  1.00  0.00    -0.454 OA
ATOM     14  C   UNL     1       8.983  -4.669  -0.906  1.00  0.00     0.468 C 
ENDBRANCH   5   6
ENDBRANCH   1   5
TORSDOF 3
ENDMDL
MODEL 3
REMARK VINA RESULT:      -7.1      2.054      2.621
REMARK SMILES CC(=O)CCc1ccc2c(c1)OCO2
REMARK SMILES IDX 4 1 2 2 1 3 3 4 5 5 6 6 7 7 11 8 8 9 10 10 9 11 12 12 14 13
REMARK SMILES IDX 13 14
REMARK H PARENT
REMARK Flexibility Score: inf
ROOT
ATOM      1  C   UNL     1       5.431  -0.049   1.995  1.00  0.00     0.080 C 
ENDROOT
BRANCH   1   2
ATOM      2  C   UNL     1       4.577   1.147   1.752  1.00  0.00     0.130 C 
ATOM      3  C   UNL     1       4.889   2.122   0.673  1.00  0.00     0.087 C 
ATOM      4  O   UNL     1       3.591   1.363   2.438  1.00  0.00    -0.300 OA
ENDBRANCH   1   2
BRANCH   1   5
ATOM      5  C   UNL     1       6.864   0.202   1.568  1.00  0.00     0.043 C 
BRANCH   5   6
ATOM      6  C   UNL     1       7.288  -0.728   0.506  1.00  0.00    -0.044 A 
ATOM      7  C   UNL     1       7.154  -0.403  -0.849  1.00  0.00     0.008 A 
ATOM      8  C   UNL     1       7.832  -1.947   0.843  1.00  0.00     0.054 A 
ATOM      9  C   UNL     1       7.570  -1.315  -1.802  1.00  0.00     0.051 A 
ATOM     10  C   UNL     1       8.251  -2.865  -0.124  1.00  0.00     0.166 A 
ATOM     11  C   UNL     1       8.119  -2.547  -1.458  1.00  0.00     0.165 A 
ATOM     12  O   UNL     1       8.813  -4.121  -0.046  1.00  0.00    -0.454 OA
ATOM     13  O   UNL     1       8.609  -3.625  -2.178  1.00  0.00    -0.454 OA
ATOM     14  C   UNL     1       9.142  -4.607  -1.322  1.00  0.00     0.468 C 
ENDBRANCH   5   6
ENDBRANCH   1   5
TORSDOF 3
ENDMDL
MODEL 4
REMARK VINA RESULT:      -7.0      1.259      1.470
REMARK SMILES CC(=O)CCc1ccc2c(c1)OCO2
REMARK SMILES IDX 4 1 2 2 1 3 3 4 5 5 6 6 7 7 11 8 8 9 10 10 9 11 12 12 14 13
REMARK SMILES IDX 13 14
REMARK H PARENT
REMARK Flexibility Score: inf
ROOT
ATOM      1  C   UNL     1       6.395   1.204   0.940  1.00  0.00     0.080 C 
ENDROOT
BRANCH   1   2
ATOM      2  C   UNL     1       5.659   0.375   1.935  1.00  0.00     0.130 C 
ATOM      3  C   UNL     1       6.256  -0.855   2.521  1.00  0.00     0.087 C 
ATOM      4  O   UNL     1       4.537   0.684   2.301  1.00  0.00    -0.300 OA
ENDBRANCH   1   2
BRANCH   1   5
ATOM      5  C   UNL     1       5.895   0.947  -0.468  1.00  0.00     0.043 C 
BRANCH   5   6
ATOM      6  C   UNL     1       6.835   0.111  -1.237  1.00  0.00    -0.044 A 
ATOM      7  C   UNL     1       7.522   0.613  -2.348  1.00  0.00     0.008 A 
ATOM      8  C   UNL     1       7.051  -1.195  -0.861  1.00  0.00     0.054 A 
ATOM      9  C   UNL     1       8.392  -0.217  -3.030  1.00  0.00     0.051 A 
ATOM     10  C   UNL     1       7.932  -2.031  -1.554  1.00  0.00     0.166 A 
ATOM     11  C   UNL     1       8.608  -1.538  -2.648  1.00  0.00     0.165 A 
ATOM     12  O   UNL     1       8.312  -3.345  -1.382  1.00  0.00    -0.454 OA
ATOM     13  O   UNL     1       9.398  -2.569  -3.129  1.00  0.00    -0.454 OA
ATOM     14  C   UNL     1       9.310  -3.705  -2.302  1.00  0.00     0.468 C 
ENDBRANCH   5   6
ENDBRANCH   1   5
TORSDOF 3
ENDMDL
MODEL 5
REMARK VINA RESULT:      -6.9      2.011      2.552
REMARK SMILES CC(=O)CCc1ccc2c(c1)OCO2
REMARK SMILES IDX 4 1 2 2 1 3 3 4 5 5 6 6 7 7 11 8 8 9 10 10 9 11 12 12 14 13
REMARK SMILES IDX 13 14
REMARK H PARENT
REMARK Flexibility Score: inf
ROOT
ATOM      1  C   UNL     1       6.892   0.938   1.293  1.00  0.00     0.080 C 
ENDROOT
BRANCH   1   2
ATOM      2  C   UNL     1       5.422   1.155   1.401  1.00  0.00     0.130 C 
ATOM      3  C   UNL     1       4.716   2.150   0.550  1.00  0.00     0.087 C 
ATOM      4  O   UNL     1       4.751   0.518   2.196  1.00  0.00    -0.300 OA
ENDBRANCH   1   2
BRANCH   1   5
ATOM      5  C   UNL     1       7.367   1.085  -0.139  1.00  0.00     0.043 C 
BRANCH   5   6
ATOM      6  C   UNL     1       7.698  -0.218  -0.742  1.00  0.00    -0.044 A 
ATOM      7  C   UNL     1       7.747  -0.392  -2.130  1.00  0.00     0.008 A 
ATOM      8  C   UNL     1       7.970  -1.296   0.070  1.00  0.00     0.054 A 
ATOM      9  C   UNL     1       8.064  -1.638  -2.639  1.00  0.00     0.051 A 
ATOM     10  C   UNL     1       8.291  -2.554  -0.450  1.00  0.00     0.166 A 
ATOM     11  C   UNL     1       8.338  -2.726  -1.815  1.00  0.00     0.165 A 
ATOM     12  O   UNL     1       8.596  -3.763   0.137  1.00  0.00    -0.454 OA
ATOM     13  O   UNL     1       8.676  -4.052  -2.040  1.00  0.00    -0.454 OA
ATOM     14  C   UNL     1       8.937  -4.722  -0.831  1.00  0.00     0.468 C 
ENDBRANCH   5   6
ENDBRANCH   1   5
TORSDOF 3
ENDMDL
