@<TRIPOS>MOLECULE
/home/cewinharhar/GITHUB/reincatalyze/data/processed/docking_pred/2023-May-22-2206_sub9_nm5_bs15_s42_ex16_mel10_mts10000_k50_ec02_g099_lra9e-4_lrc1e-3/a614218f6e6a1b7d791f470f20b1a009abdeaae3_ligand_9.pdbqt
 14 15 0 0 0
SMALL
GASTEIGER

@<TRIPOS>ATOM
      1  C          6.8920    0.9380    1.2930 C.3     1  UNL1        0.0800
      2  C          5.4220    1.1550    1.4010 C.2     1  UNL1        0.1300
      3  C          4.7160    2.1500    0.5500 C.3     1  UNL1        0.0870
      4  O          4.7510    0.5180    2.1960 O.2     1  UNL1       -0.3000
      5  C          7.3670    1.0850   -0.1390 C.3     1  UNL1        0.0430
      6  C          7.6980   -0.2180   -0.7420 C.2     1  UNL1       -0.0440
      7  C          7.7470   -0.3920   -2.1300 C.2     1  UNL1        0.0080
      8  C          7.9700   -1.2960    0.0700 C.2     1  UNL1        0.0540
      9  C          8.0640   -1.6380   -2.6390 C.2     1  UNL1        0.0510
     10  C          8.2910   -2.5540   -0.4500 C.2     1  UNL1        0.1660
     11  C          8.3380   -2.7260   -1.8150 C.2     1  UNL1        0.1650
     12  O          8.5960   -3.7630    0.1370 O.2     1  UNL1       -0.4540
     13  O          8.6760   -4.0520   -2.0400 O.2     1  UNL1       -0.4540
     14  C          8.9370   -4.7220   -0.8310 C.3     1  UNL1        0.4680
@<TRIPOS>BOND
     1     9     7    1
     2     9    11    2
     3     7     6    2
     4    13    11    1
     5    13    14    1
     6    11    10    1
     7    14    12    1
     8     6     5    1
     9     6     8    1
    10    10     8    2
    11    10    12    1
    12     5     1    1
    13     3     2    1
    14     1     2    1
    15     2     4    2
