@<TRIPOS>MOLECULE
/home/cewinharhar/GITHUB/reincatalyze/data/processed/docking_pred/2023-May-22-2206_sub9_nm5_bs15_s42_ex16_mel10_mts10000_k50_ec02_g099_lra9e-4_lrc1e-3/a614218f6e6a1b7d791f470f20b1a009abdeaae3_ligand_9.pdbqt
 14 15 0 0 0
SMALL
GASTEIGER

@<TRIPOS>ATOM
      1  C          6.3950    1.2040    0.9400 C.3     1  UNL1        0.0800
      2  C          5.6590    0.3750    1.9350 C.2     1  UNL1        0.1300
      3  C          6.2560   -0.8550    2.5210 C.3     1  UNL1        0.0870
      4  O          4.5370    0.6840    2.3010 O.2     1  UNL1       -0.3000
      5  C          5.8950    0.9470   -0.4680 C.3     1  UNL1        0.0430
      6  C          6.8350    0.1110   -1.2370 C.2     1  UNL1       -0.0440
      7  C          7.5220    0.6130   -2.3480 C.2     1  UNL1        0.0080
      8  C          7.0510   -1.1950   -0.8610 C.2     1  UNL1        0.0540
      9  C          8.3920   -0.2170   -3.0300 C.2     1  UNL1        0.0510
     10  C          7.9320   -2.0310   -1.5540 C.2     1  UNL1        0.1660
     11  C          8.6080   -1.5380   -2.6480 C.2     1  UNL1        0.1650
     12  O          8.3120   -3.3450   -1.3820 O.2     1  UNL1       -0.4540
     13  O          9.3980   -2.5690   -3.1290 O.2     1  UNL1       -0.4540
     14  C          9.3100   -3.7050   -2.3020 C.3     1  UNL1        0.4680
@<TRIPOS>BOND
     1    13    11    1
     2    13    14    1
     3     9    11    2
     4     9     7    1
     5    11    10    1
     6     7     6    2
     7    14    12    1
     8    10    12    1
     9    10     8    2
    10     6     8    1
    11     6     5    1
    12     5     1    1
    13     1     2    1
    14     2     4    2
    15     2     3    1
