@<TRIPOS>MOLECULE
/home/cewinharhar/GITHUB/reincatalyze/data/processed/docking_pred/2023-May-22-2206_sub9_nm5_bs15_s42_ex16_mel10_mts10000_k50_ec02_g099_lra9e-4_lrc1e-3/a614218f6e6a1b7d791f470f20b1a009abdeaae3_ligand_9.pdbqt
 14 15 0 0 0
SMALL
GASTEIGER

@<TRIPOS>ATOM
      1  C          5.5230    1.9250    1.2610 C.3     1  UNL1        0.0800
      2  C          5.0860    0.7120    2.0070 C.2     1  UNL1        0.1300
      3  C          5.9830   -0.4610    2.1850 C.3     1  UNL1        0.0870
      4  O          3.9700    0.6460    2.4970 O.2     1  UNL1       -0.3000
      5  C          5.3950    1.7260   -0.2360 C.3     1  UNL1        0.0430
      6  C          6.5640    1.0250   -0.7960 C.2     1  UNL1       -0.0440
      7  C          7.8700    1.4570   -0.5400 C.2     1  UNL1        0.0080
      8  C          6.3780   -0.0850   -1.5900 C.2     1  UNL1        0.0540
      9  C          8.9280    0.7580   -1.0920 C.2     1  UNL1        0.0510
     10  C          7.4520   -0.7880   -2.1450 C.2     1  UNL1        0.1660
     11  C          8.7370   -0.3630   -1.8940 C.2     1  UNL1        0.1650
     12  O          7.5270   -1.9010   -2.9540 O.2     1  UNL1       -0.4540
     13  O          9.5850   -1.2340   -2.5610 O.2     1  UNL1       -0.4540
     14  C          8.8630   -2.2770   -3.1710 C.3     1  UNL1        0.4680
@<TRIPOS>BOND
     1    14    12    1
     2    14    13    1
     3    12    10    1
     4    13    11    1
     5    10    11    2
     6    10     8    1
     7    11     9    1
     8     8     6    2
     9     9     7    2
    10     6     7    1
    11     6     5    1
    12     5     1    1
    13     1     2    1
    14     2     3    1
    15     2     4    2
