MODEL 1
REMARK VINA RESULT:      -7.2      0.000      0.000
REMARK SMILES CC(=O)CCc1ccc2c(c1)OCO2
REMARK SMILES IDX 4 1 2 2 1 3 3 4 5 5 6 6 7 7 11 8 8 9 10 10 9 11 12 12 14 13
REMARK SMILES IDX 13 14
REMARK H PARENT
REMARK Flexibility Score: inf
ROOT
ATOM      1  C   UNL     1       5.896   1.567   1.225  1.00  0.00     0.080 C 
ENDROOT
BRANCH   1   2
ATOM      2  C   UNL     1       5.421   0.407   2.031  1.00  0.00     0.130 C 
ATOM      3  C   UNL     1       6.289  -0.773   2.288  1.00  0.00     0.087 C 
ATOM      4  O   UNL     1       4.297   0.393   2.506  1.00  0.00    -0.300 OA
ENDBRANCH   1   2
BRANCH   1   5
ATOM      5  C   UNL     1       5.667   1.338  -0.256  1.00  0.00     0.043 C 
BRANCH   5   6
ATOM      6  C   UNL     1       6.815   0.666  -0.889  1.00  0.00    -0.044 A 
ATOM      7  C   UNL     1       8.094   1.235  -0.880  1.00  0.00     0.008 A 
ATOM      8  C   UNL     1       6.638  -0.552  -1.505  1.00  0.00     0.054 A 
ATOM      9  C   UNL     1       9.134   0.557  -1.490  1.00  0.00     0.051 A 
ATOM     10  C   UNL     1       7.693  -1.234  -2.119  1.00  0.00     0.166 A 
ATOM     11  C   UNL     1       8.951  -0.674  -2.112  1.00  0.00     0.165 A 
ATOM     12  O   UNL     1       7.771  -2.437  -2.788  1.00  0.00    -0.454 OA
ATOM     13  O   UNL     1       9.785  -1.555  -2.782  1.00  0.00    -0.454 OA
ATOM     14  C   UNL     1       9.097  -2.728  -3.148  1.00  0.00     0.468 C 
ENDBRANCH   5   6
ENDBRANCH   1   5
TORSDOF 3
ENDMDL
MODEL 2
REMARK VINA RESULT:      -7.2      1.071      1.097
REMARK SMILES CC(=O)CCc1ccc2c(c1)OCO2
REMARK SMILES IDX 4 1 2 2 1 3 3 4 5 5 6 6 7 7 11 8 8 9 10 10 9 11 12 12 14 13
REMARK SMILES IDX 13 14
REMARK H PARENT
REMARK Flexibility Score: inf
ROOT
ATOM      1  C   UNL     1       6.370   1.215   0.926  1.00  0.00     0.080 C 
ENDROOT
BRANCH   1   2
ATOM      2  C   UNL     1       5.657   0.388   1.938  1.00  0.00     0.130 C 
ATOM      3  C   UNL     1       6.269  -0.838   2.517  1.00  0.00     0.087 C 
ATOM      4  O   UNL     1       4.540   0.695   2.324  1.00  0.00    -0.300 OA
ENDBRANCH   1   2
BRANCH   1   5
ATOM      5  C   UNL     1       5.862   0.930  -0.474  1.00  0.00     0.043 C 
BRANCH   5   6
ATOM      6  C   UNL     1       6.812   0.105  -1.243  1.00  0.00    -0.044 A 
ATOM      7  C   UNL     1       7.505   0.620  -2.344  1.00  0.00     0.008 A 
ATOM      8  C   UNL     1       7.031  -1.203  -0.875  1.00  0.00     0.054 A 
ATOM      9  C   UNL     1       8.384  -0.201  -3.027  1.00  0.00     0.051 A 
ATOM     10  C   UNL     1       7.922  -2.029  -1.568  1.00  0.00     0.166 A 
ATOM     11  C   UNL     1       8.603  -1.524  -2.653  1.00  0.00     0.165 A 
ATOM     12  O   UNL     1       8.307  -3.342  -1.404  1.00  0.00    -0.454 OA
ATOM     13  O   UNL     1       9.402  -2.548  -3.137  1.00  0.00    -0.454 OA
ATOM     14  C   UNL     1       9.313  -3.691  -2.320  1.00  0.00     0.468 C 
ENDBRANCH   5   6
ENDBRANCH   1   5
TORSDOF 3
ENDMDL
MODEL 3
REMARK VINA RESULT:      -7.0      1.789      2.247
REMARK SMILES CC(=O)CCc1ccc2c(c1)OCO2
REMARK SMILES IDX 4 1 2 2 1 3 3 4 5 5 6 6 7 7 11 8 8 9 10 10 9 11 12 12 14 13
REMARK SMILES IDX 13 14
REMARK H PARENT
REMARK Flexibility Score: inf
ROOT
ATOM      1  C   UNL     1       5.933   1.124  -0.209  1.00  0.00     0.080 C 
ENDROOT
BRANCH   1   2
ATOM      2  C   UNL     1       5.886   1.148   1.279  1.00  0.00     0.130 C 
ATOM      3  C   UNL     1       5.321   0.016   2.061  1.00  0.00     0.087 C 
ATOM      4  O   UNL     1       6.314   2.105   1.904  1.00  0.00    -0.300 OA
ENDBRANCH   1   2
BRANCH   1   5
ATOM      5  C   UNL     1       7.362   1.110  -0.715  1.00  0.00     0.043 C 
BRANCH   5   6
ATOM      6  C   UNL     1       7.760  -0.225  -1.194  1.00  0.00    -0.044 A 
ATOM      7  C   UNL     1       7.984  -0.481  -2.552  1.00  0.00     0.008 A 
ATOM      8  C   UNL     1       7.920  -1.253  -0.292  1.00  0.00     0.054 A 
ATOM      9  C   UNL     1       8.356  -1.754  -2.942  1.00  0.00     0.051 A 
ATOM     10  C   UNL     1       8.298  -2.539  -0.692  1.00  0.00     0.166 A 
ATOM     11  C   UNL     1       8.517  -2.791  -2.028  1.00  0.00     0.165 A 
ATOM     12  O   UNL     1       8.519  -3.711  -0.001  1.00  0.00    -0.454 OA
ATOM     13  O   UNL     1       8.873  -4.127  -2.130  1.00  0.00    -0.454 OA
ATOM     14  C   UNL     1       8.975  -4.724  -0.860  1.00  0.00     0.468 C 
ENDBRANCH   5   6
ENDBRANCH   1   5
TORSDOF 3
ENDMDL
MODEL 4
REMARK VINA RESULT:      -6.6      1.998      2.571
REMARK SMILES CC(=O)CCc1ccc2c(c1)OCO2
REMARK SMILES IDX 4 1 2 2 1 3 3 4 5 5 6 6 7 7 11 8 8 9 10 10 9 11 12 12 14 13
REMARK SMILES IDX 13 14
REMARK H PARENT
REMARK Flexibility Score: inf
ROOT
ATOM      1  C   UNL     1       6.108  -0.450   2.248  1.00  0.00     0.080 C 
ENDROOT
BRANCH   1   2
ATOM      2  C   UNL     1       5.092   0.559   1.836  1.00  0.00     0.130 C 
ATOM      3  C   UNL     1       5.273   1.397   0.621  1.00  0.00     0.087 C 
ATOM      4  O   UNL     1       4.076   0.727   2.490  1.00  0.00    -0.300 OA
ENDBRANCH   1   2
BRANCH   1   5
ATOM      5  C   UNL     1       7.463  -0.146   1.641  1.00  0.00     0.043 C 
BRANCH   5   6
ATOM      6  C   UNL     1       7.789  -1.072   0.541  1.00  0.00    -0.044 A 
ATOM      7  C   UNL     1       7.702  -0.679  -0.799  1.00  0.00     0.008 A 
ATOM      8  C   UNL     1       8.192  -2.357   0.828  1.00  0.00     0.054 A 
ATOM      9  C   UNL     1       8.021  -1.591  -1.788  1.00  0.00     0.051 A 
ATOM     10  C   UNL     1       8.515  -3.275  -0.176  1.00  0.00     0.166 A 
ATOM     11  C   UNL     1       8.428  -2.889  -1.495  1.00  0.00     0.165 A 
ATOM     12  O   UNL     1       8.933  -4.588  -0.149  1.00  0.00    -0.454 OA
ATOM     13  O   UNL     1       8.800  -3.984  -2.258  1.00  0.00    -0.454 OA
ATOM     14  C   UNL     1       9.216  -5.054  -1.443  1.00  0.00     0.468 C 
ENDBRANCH   5   6
ENDBRANCH   1   5
TORSDOF 3
ENDMDL
MODEL 5
REMARK VINA RESULT:      -6.3      0.934      1.015
REMARK SMILES CC(=O)CCc1ccc2c(c1)OCO2
REMARK SMILES IDX 4 1 2 2 1 3 3 4 5 5 6 6 7 7 11 8 8 9 10 10 9 11 12 12 14 13
REMARK SMILES IDX 13 14
REMARK H PARENT
REMARK Flexibility Score: inf
ROOT
ATOM      1  C   UNL     1       5.129   0.499   1.518  1.00  0.00     0.080 C 
ENDROOT
BRANCH   1   2
ATOM      2  C   UNL     1       6.276  -0.175   2.188  1.00  0.00     0.130 C 
ATOM      3  C   UNL     1       6.474  -1.647   2.105  1.00  0.00     0.087 C 
ATOM      4  O   UNL     1       7.092   0.467   2.830  1.00  0.00    -0.300 OA
ENDBRANCH   1   2
BRANCH   1   5
ATOM      5  C   UNL     1       5.603   1.432   0.421  1.00  0.00     0.043 C 
BRANCH   5   6
ATOM      6  C   UNL     1       6.700   0.839  -0.364  1.00  0.00    -0.044 A 
ATOM      7  C   UNL     1       7.976   1.415  -0.392  1.00  0.00     0.008 A 
ATOM      8  C   UNL     1       6.478  -0.310  -1.089  1.00  0.00     0.054 A 
ATOM      9  C   UNL     1       8.967   0.814  -1.146  1.00  0.00     0.051 A 
ATOM     10  C   UNL     1       7.483  -0.914  -1.849  1.00  0.00     0.166 A 
ATOM     11  C   UNL     1       8.738  -0.347  -1.878  1.00  0.00     0.165 A 
ATOM     12  O   UNL     1       7.512  -2.040  -2.644  1.00  0.00    -0.454 OA
ATOM     13  O   UNL     1       9.520  -1.146  -2.698  1.00  0.00    -0.454 OA
ATOM     14  C   UNL     1       8.807  -2.280  -3.132  1.00  0.00     0.468 C 
ENDBRANCH   5   6
ENDBRANCH   1   5
TORSDOF 3
ENDMDL
