@<TRIPOS>MOLECULE
/home/cewinharhar/GITHUB/reincatalyze/data/processed/docking_pred/2023-May-22-2206_sub9_nm5_bs15_s42_ex16_mel10_mts10000_k50_ec02_g099_lra9e-4_lrc1e-3/a7c8c9f10e55c2841f25afbe7e611a3f864293db_ligand_9.pdbqt
 14 15 0 0 0
SMALL
GASTEIGER

@<TRIPOS>ATOM
      1  C          5.8960    1.5670    1.2250 C.3     1  UNL1        0.0800
      2  C          5.4210    0.4070    2.0310 C.2     1  UNL1        0.1300
      3  C          6.2890   -0.7730    2.2880 C.3     1  UNL1        0.0870
      4  O          4.2970    0.3930    2.5060 O.2     1  UNL1       -0.3000
      5  C          5.6670    1.3380   -0.2560 C.3     1  UNL1        0.0430
      6  C          6.8150    0.6660   -0.8890 C.2     1  UNL1       -0.0440
      7  C          8.0940    1.2350   -0.8800 C.2     1  UNL1        0.0080
      8  C          6.6380   -0.5520   -1.5050 C.2     1  UNL1        0.0540
      9  C          9.1340    0.5570   -1.4900 C.2     1  UNL1        0.0510
     10  C          7.6930   -1.2340   -2.1190 C.2     1  UNL1        0.1660
     11  C          8.9510   -0.6740   -2.1120 C.2     1  UNL1        0.1650
     12  O          7.7710   -2.4370   -2.7880 O.2     1  UNL1       -0.4540
     13  O          9.7850   -1.5550   -2.7820 O.2     1  UNL1       -0.4540
     14  C          9.0970   -2.7280   -3.1480 C.3     1  UNL1        0.4680
@<TRIPOS>BOND
     1    14    12    1
     2    14    13    1
     3    12    10    1
     4    13    11    1
     5    10    11    2
     6    10     8    1
     7    11     9    1
     8     8     6    2
     9     9     7    2
    10     6     7    1
    11     6     5    1
    12     5     1    1
    13     1     2    1
    14     2     3    1
    15     2     4    2
