@<TRIPOS>MOLECULE
/home/cewinharhar/GITHUB/reincatalyze/data/processed/docking_pred/2023-May-22-2206_sub9_nm5_bs15_s42_ex16_mel10_mts10000_k50_ec02_g099_lra9e-4_lrc1e-3/a7c8c9f10e55c2841f25afbe7e611a3f864293db_ligand_9.pdbqt
 14 15 0 0 0
SMALL
GASTEIGER

@<TRIPOS>ATOM
      1  C          6.1080   -0.4500    2.2480 C.3     1  UNL1        0.0800
      2  C          5.0920    0.5590    1.8360 C.2     1  UNL1        0.1300
      3  C          5.2730    1.3970    0.6210 C.3     1  UNL1        0.0870
      4  O          4.0760    0.7270    2.4900 O.2     1  UNL1       -0.3000
      5  C          7.4630   -0.1460    1.6410 C.3     1  UNL1        0.0430
      6  C          7.7890   -1.0720    0.5410 C.2     1  UNL1       -0.0440
      7  C          7.7020   -0.6790   -0.7990 C.2     1  UNL1        0.0080
      8  C          8.1920   -2.3570    0.8280 C.2     1  UNL1        0.0540
      9  C          8.0210   -1.5910   -1.7880 C.2     1  UNL1        0.0510
     10  C          8.5150   -3.2750   -0.1760 C.2     1  UNL1        0.1660
     11  C          8.4280   -2.8890   -1.4950 C.2     1  UNL1        0.1650
     12  O          8.9330   -4.5880   -0.1490 O.2     1  UNL1       -0.4540
     13  O          8.8000   -3.9840   -2.2580 O.2     1  UNL1       -0.4540
     14  C          9.2160   -5.0540   -1.4430 C.3     1  UNL1        0.4680
@<TRIPOS>BOND
     1    13    11    1
     2    13    14    1
     3     9    11    2
     4     9     7    1
     5    11    10    1
     6    14    12    1
     7     7     6    2
     8    10    12    1
     9    10     8    2
    10     6     8    1
    11     6     5    1
    12     3     2    1
    13     5     1    1
    14     2     1    1
    15     2     4    2
