@<TRIPOS>MOLECULE
/home/cewinharhar/GITHUB/reincatalyze/data/processed/docking_pred/2023-May-22-2206_sub9_nm5_bs15_s42_ex16_mel10_mts10000_k50_ec02_g099_lra9e-4_lrc1e-3/a7c8c9f10e55c2841f25afbe7e611a3f864293db_ligand_9.pdbqt
 14 15 0 0 0
SMALL
GASTEIGER

@<TRIPOS>ATOM
      1  C          6.3700    1.2150    0.9260 C.3     1  UNL1        0.0800
      2  C          5.6570    0.3880    1.9380 C.2     1  UNL1        0.1300
      3  C          6.2690   -0.8380    2.5170 C.3     1  UNL1        0.0870
      4  O          4.5400    0.6950    2.3240 O.2     1  UNL1       -0.3000
      5  C          5.8620    0.9300   -0.4740 C.3     1  UNL1        0.0430
      6  C          6.8120    0.1050   -1.2430 C.2     1  UNL1       -0.0440
      7  C          7.5050    0.6200   -2.3440 C.2     1  UNL1        0.0080
      8  C          7.0310   -1.2030   -0.8750 C.2     1  UNL1        0.0540
      9  C          8.3840   -0.2010   -3.0270 C.2     1  UNL1        0.0510
     10  C          7.9220   -2.0290   -1.5680 C.2     1  UNL1        0.1660
     11  C          8.6030   -1.5240   -2.6530 C.2     1  UNL1        0.1650
     12  O          8.3070   -3.3420   -1.4040 O.2     1  UNL1       -0.4540
     13  O          9.4020   -2.5480   -3.1370 O.2     1  UNL1       -0.4540
     14  C          9.3130   -3.6910   -2.3200 C.3     1  UNL1        0.4680
@<TRIPOS>BOND
     1    13    11    1
     2    13    14    1
     3     9    11    2
     4     9     7    1
     5    11    10    1
     6     7     6    2
     7    14    12    1
     8    10    12    1
     9    10     8    2
    10     6     8    1
    11     6     5    1
    12     5     1    1
    13     1     2    1
    14     2     4    2
    15     2     3    1
