@<TRIPOS>MOLECULE
/home/cewinharhar/GITHUB/reincatalyze/data/processed/docking_pred/2023-May-22-2206_sub9_nm5_bs15_s42_ex16_mel10_mts10000_k50_ec02_g099_lra9e-4_lrc1e-3/a8cbf1bb962d04eb60783bb2dc55df042853f03a_ligand_9.pdbqt
 14 15 0 0 0
SMALL
GASTEIGER

@<TRIPOS>ATOM
      1  C          6.3650    1.1460    0.9520 C.3     1  UNL1        0.0800
      2  C          5.6320    0.3260    1.9560 C.2     1  UNL1        0.1300
      3  C          6.2360   -0.8920    2.5600 C.3     1  UNL1        0.0870
      4  O          4.5060    0.6310    2.3130 O.2     1  UNL1       -0.3000
      5  C          5.8600    0.8800   -0.4520 C.3     1  UNL1        0.0430
      6  C          6.8130    0.0670   -1.2300 C.2     1  UNL1       -0.0440
      7  C          7.4880    0.5910   -2.3390 C.2     1  UNL1        0.0080
      8  C          7.0530   -1.2380   -0.8660 C.2     1  UNL1        0.0540
      9  C          8.3710   -0.2180   -3.0300 C.2     1  UNL1        0.0510
     10  C          7.9470   -2.0520   -1.5680 C.2     1  UNL1        0.1660
     11  C          8.6110   -1.5380   -2.6590 C.2     1  UNL1        0.1650
     12  O          8.3510   -3.3600   -1.4080 O.2     1  UNL1       -0.4540
     13  O          9.4180   -2.5510   -3.1510 O.2     1  UNL1       -0.4540
     14  C          9.3530   -3.6950   -2.3340 C.3     1  UNL1        0.4680
@<TRIPOS>BOND
     1    13    11    1
     2    13    14    1
     3     9    11    2
     4     9     7    1
     5    11    10    1
     6     7     6    2
     7    14    12    1
     8    10    12    1
     9    10     8    2
    10     6     8    1
    11     6     5    1
    12     5     1    1
    13     1     2    1
    14     2     4    2
    15     2     3    1
