@<TRIPOS>MOLECULE
/home/cewinharhar/GITHUB/reincatalyze/data/processed/docking_pred/2023-May-22-2206_sub9_nm5_bs15_s42_ex16_mel10_mts10000_k50_ec02_g099_lra9e-4_lrc1e-3/a991e05863b38587be5f018959c733685726fb49_ligand_9.pdbqt
 14 15 0 0 0
SMALL
GASTEIGER

@<TRIPOS>ATOM
      1  C          6.8920    0.9140    1.1600 C.3     1  UNL1        0.0800
      2  C          5.4330    1.1660    1.3240 C.2     1  UNL1        0.1300
      3  C          4.7080    2.1450    0.4700 C.3     1  UNL1        0.0870
      4  O          4.7860    0.5710    2.1700 O.2     1  UNL1       -0.3000
      5  C          7.3200    1.0820   -0.2850 C.3     1  UNL1        0.0430
      6  C          7.6980   -0.2050   -0.8950 C.2     1  UNL1       -0.0440
      7  C          7.8080   -0.3540   -2.2830 C.2     1  UNL1        0.0080
      8  C          7.9530   -1.2930   -0.0920 C.2     1  UNL1        0.0540
      9  C          8.1670   -1.5860   -2.7990 C.2     1  UNL1        0.0510
     10  C          8.3160   -2.5360   -0.6180 C.2     1  UNL1        0.1660
     11  C          8.4230   -2.6840   -1.9830 C.2     1  UNL1        0.1650
     12  O          8.6160   -3.7510   -0.0390 O.2     1  UNL1       -0.4540
     13  O          8.7920   -3.9990   -2.2170 O.2     1  UNL1       -0.4540
     14  C          9.0130   -4.6870   -1.0080 C.3     1  UNL1        0.4680
@<TRIPOS>BOND
     1     9     7    1
     2     9    11    2
     3     7     6    2
     4    13    11    1
     5    13    14    1
     6    11    10    1
     7    14    12    1
     8     6     5    1
     9     6     8    1
    10    10     8    2
    11    10    12    1
    12     5     1    1
    13     3     2    1
    14     1     2    1
    15     2     4    2
