@<TRIPOS>MOLECULE
/home/cewinharhar/GITHUB/reincatalyze/data/processed/docking_pred/2023-May-22-2206_sub9_nm5_bs15_s42_ex16_mel10_mts10000_k50_ec02_g099_lra9e-4_lrc1e-3/ab317eb7565d030be4138c7249420e244018cf00_ligand_9.pdbqt
 14 15 0 0 0
SMALL
GASTEIGER

@<TRIPOS>ATOM
      1  C          5.3200   -0.0780    1.9790 C.3     1  UNL1        0.0800
      2  C          4.4590    1.1240    1.8030 C.2     1  UNL1        0.1300
      3  C          4.7530    2.1500    0.7660 C.3     1  UNL1        0.0870
      4  O          3.4810    1.3040    2.5100 O.2     1  UNL1       -0.3000
      5  C          6.7910    0.2840    1.9180 C.3     1  UNL1        0.0430
      6  C          7.3870   -0.0700    0.6170 C.2     1  UNL1       -0.0440
      7  C          7.8620    0.9100   -0.2620 C.2     1  UNL1        0.0080
      8  C          7.4860   -1.3920    0.2490 C.2     1  UNL1        0.0540
      9  C          8.4130    0.5190   -1.4690 C.2     1  UNL1        0.0510
     10  C          8.0440   -1.7820   -0.9720 C.2     1  UNL1        0.1660
     11  C          8.5110   -0.8190   -1.8380 C.2     1  UNL1        0.1650
     12  O          8.2520   -3.0120   -1.5600 O.2     1  UNL1       -0.4540
     13  O          9.0020   -1.4840   -2.9510 O.2     1  UNL1       -0.4540
     14  C          8.9400   -2.8790   -2.7770 C.3     1  UNL1        0.4680
@<TRIPOS>BOND
     1    13    14    1
     2    13    11    1
     3    14    12    1
     4    11     9    2
     5    11    10    1
     6    12    10    1
     7     9     7    1
     8    10     8    2
     9     7     6    2
    10     8     6    1
    11     6     5    1
    12     3     2    1
    13     2     1    1
    14     2     4    2
    15     5     1    1
