MODEL 1
REMARK VINA RESULT:      -7.6      0.000      0.000
REMARK SMILES CC(=O)CCc1ccc2c(c1)OCO2
REMARK SMILES IDX 4 1 2 2 1 3 3 4 5 5 6 6 7 7 11 8 8 9 10 10 9 11 12 12 14 13
REMARK SMILES IDX 13 14
REMARK H PARENT
REMARK Flexibility Score: inf
ROOT
ATOM      1  C   UNL     1       5.530   1.940   1.257  1.00  0.00     0.080 C 
ENDROOT
BRANCH   1   2
ATOM      2  C   UNL     1       5.113   0.720   2.002  1.00  0.00     0.130 C 
ATOM      3  C   UNL     1       6.032  -0.435   2.189  1.00  0.00     0.087 C 
ATOM      4  O   UNL     1       3.995   0.632   2.485  1.00  0.00    -0.300 OA
ENDBRANCH   1   2
BRANCH   1   5
ATOM      5  C   UNL     1       5.403   1.740  -0.240  1.00  0.00     0.043 C 
BRANCH   5   6
ATOM      6  C   UNL     1       6.569   1.032  -0.798  1.00  0.00    -0.044 A 
ATOM      7  C   UNL     1       7.878   1.454  -0.537  1.00  0.00     0.008 A 
ATOM      8  C   UNL     1       6.378  -0.075  -1.594  1.00  0.00     0.054 A 
ATOM      9  C   UNL     1       8.933   0.749  -1.087  1.00  0.00     0.051 A 
ATOM     10  C   UNL     1       7.448  -0.785  -2.147  1.00  0.00     0.166 A 
ATOM     11  C   UNL     1       8.736  -0.369  -1.892  1.00  0.00     0.165 A 
ATOM     12  O   UNL     1       7.519  -1.898  -2.958  1.00  0.00    -0.454 OA
ATOM     13  O   UNL     1       9.580  -1.245  -2.557  1.00  0.00    -0.454 OA
ATOM     14  C   UNL     1       8.853  -2.282  -3.171  1.00  0.00     0.468 C 
ENDBRANCH   5   6
ENDBRANCH   1   5
TORSDOF 3
ENDMDL
MODEL 2
REMARK VINA RESULT:      -7.5      1.937      2.393
REMARK SMILES CC(=O)CCc1ccc2c(c1)OCO2
REMARK SMILES IDX 4 1 2 2 1 3 3 4 5 5 6 6 7 7 11 8 8 9 10 10 9 11 12 12 14 13
REMARK SMILES IDX 13 14
REMARK H PARENT
REMARK Flexibility Score: inf
ROOT
ATOM      1  C   UNL     1       5.718   1.246  -0.311  1.00  0.00     0.080 C 
ENDROOT
BRANCH   1   2
ATOM      2  C   UNL     1       5.144   1.235   1.063  1.00  0.00     0.130 C 
ATOM      3  C   UNL     1       5.404   0.117   2.009  1.00  0.00     0.087 C 
ATOM      4  O   UNL     1       4.438   2.150   1.455  1.00  0.00    -0.300 OA
ENDBRANCH   1   2
BRANCH   1   5
ATOM      5  C   UNL     1       7.223   1.066  -0.281  1.00  0.00     0.043 C 
BRANCH   5   6
ATOM      6  C   UNL     1       7.632  -0.216  -0.881  1.00  0.00    -0.044 A 
ATOM      7  C   UNL     1       7.774  -0.366  -2.265  1.00  0.00     0.008 A 
ATOM      8  C   UNL     1       7.886  -1.299  -0.069  1.00  0.00     0.054 A 
ATOM      9  C   UNL     1       8.162  -1.593  -2.771  1.00  0.00     0.051 A 
ATOM     10  C   UNL     1       8.278  -2.537  -0.585  1.00  0.00     0.166 A 
ATOM     11  C   UNL     1       8.417  -2.686  -1.947  1.00  0.00     0.165 A 
ATOM     12  O   UNL     1       8.583  -3.746   0.003  1.00  0.00    -0.454 OA
ATOM     13  O   UNL     1       8.810  -3.996  -2.170  1.00  0.00    -0.454 OA
ATOM     14  C   UNL     1       9.015  -4.678  -0.955  1.00  0.00     0.468 C 
ENDBRANCH   5   6
ENDBRANCH   1   5
TORSDOF 3
ENDMDL
MODEL 3
REMARK VINA RESULT:      -7.2      2.050      2.636
REMARK SMILES CC(=O)CCc1ccc2c(c1)OCO2
REMARK SMILES IDX 4 1 2 2 1 3 3 4 5 5 6 6 7 7 11 8 8 9 10 10 9 11 12 12 14 13
REMARK SMILES IDX 13 14
REMARK H PARENT
REMARK Flexibility Score: inf
ROOT
ATOM      1  C   UNL     1       5.385  -0.091   2.013  1.00  0.00     0.080 C 
ENDROOT
BRANCH   1   2
ATOM      2  C   UNL     1       4.553   1.120   1.767  1.00  0.00     0.130 C 
ATOM      3  C   UNL     1       4.913   2.117   0.724  1.00  0.00     0.087 C 
ATOM      4  O   UNL     1       3.543   1.329   2.420  1.00  0.00    -0.300 OA
ENDBRANCH   1   2
BRANCH   1   5
ATOM      5  C   UNL     1       6.831   0.147   1.623  1.00  0.00     0.043 C 
BRANCH   5   6
ATOM      6  C   UNL     1       7.265  -0.764   0.549  1.00  0.00    -0.044 A 
ATOM      7  C   UNL     1       7.133  -0.421  -0.801  1.00  0.00     0.008 A 
ATOM      8  C   UNL     1       7.816  -1.983   0.871  1.00  0.00     0.054 A 
ATOM      9  C   UNL     1       7.558  -1.316  -1.766  1.00  0.00     0.051 A 
ATOM     10  C   UNL     1       8.246  -2.885  -0.108  1.00  0.00     0.166 A 
ATOM     11  C   UNL     1       8.115  -2.548  -1.437  1.00  0.00     0.165 A 
ATOM     12  O   UNL     1       8.817  -4.138  -0.046  1.00  0.00    -0.454 OA
ATOM     13  O   UNL     1       8.615  -3.613  -2.171  1.00  0.00    -0.454 OA
ATOM     14  C   UNL     1       9.153  -4.603  -1.327  1.00  0.00     0.468 C 
ENDBRANCH   5   6
ENDBRANCH   1   5
TORSDOF 3
ENDMDL
MODEL 4
REMARK VINA RESULT:      -7.1      1.250      1.459
REMARK SMILES CC(=O)CCc1ccc2c(c1)OCO2
REMARK SMILES IDX 4 1 2 2 1 3 3 4 5 5 6 6 7 7 11 8 8 9 10 10 9 11 12 12 14 13
REMARK SMILES IDX 13 14
REMARK H PARENT
REMARK Flexibility Score: inf
ROOT
ATOM      1  C   UNL     1       6.370   1.193   0.928  1.00  0.00     0.080 C 
ENDROOT
BRANCH   1   2
ATOM      2  C   UNL     1       5.654   0.364   1.937  1.00  0.00     0.130 C 
ATOM      3  C   UNL     1       6.262  -0.867   2.511  1.00  0.00     0.087 C 
ATOM      4  O   UNL     1       4.538   0.673   2.325  1.00  0.00    -0.300 OA
ENDBRANCH   1   2
BRANCH   1   5
ATOM      5  C   UNL     1       5.860   0.917  -0.473  1.00  0.00     0.043 C 
BRANCH   5   6
ATOM      6  C   UNL     1       6.810   0.101  -1.249  1.00  0.00    -0.044 A 
ATOM      7  C   UNL     1       7.495   0.625  -2.352  1.00  0.00     0.008 A 
ATOM      8  C   UNL     1       7.040  -1.207  -0.889  1.00  0.00     0.054 A 
ATOM      9  C   UNL     1       8.376  -0.187  -3.043  1.00  0.00     0.051 A 
ATOM     10  C   UNL     1       7.932  -2.024  -1.590  1.00  0.00     0.166 A 
ATOM     11  C   UNL     1       8.605  -1.510  -2.676  1.00  0.00     0.165 A 
ATOM     12  O   UNL     1       8.326  -3.336  -1.434  1.00  0.00    -0.454 OA
ATOM     13  O   UNL     1       9.408  -2.527  -3.168  1.00  0.00    -0.454 OA
ATOM     14  C   UNL     1       9.330  -3.674  -2.356  1.00  0.00     0.468 C 
ENDBRANCH   5   6
ENDBRANCH   1   5
TORSDOF 3
ENDMDL
MODEL 5
REMARK VINA RESULT:      -6.8      1.273      1.771
REMARK SMILES CC(=O)CCc1ccc2c(c1)OCO2
REMARK SMILES IDX 4 1 2 2 1 3 3 4 5 5 6 6 7 7 11 8 8 9 10 10 9 11 12 12 14 13
REMARK SMILES IDX 13 14
REMARK H PARENT
REMARK Flexibility Score: inf
ROOT
ATOM      1  C   UNL     1       5.320  -0.078   1.979  1.00  0.00     0.080 C 
ENDROOT
BRANCH   1   2
ATOM      2  C   UNL     1       4.459   1.124   1.803  1.00  0.00     0.130 C 
ATOM      3  C   UNL     1       4.753   2.150   0.766  1.00  0.00     0.087 C 
ATOM      4  O   UNL     1       3.481   1.304   2.510  1.00  0.00    -0.300 OA
ENDBRANCH   1   2
BRANCH   1   5
ATOM      5  C   UNL     1       6.791   0.284   1.918  1.00  0.00     0.043 C 
BRANCH   5   6
ATOM      6  C   UNL     1       7.387  -0.070   0.617  1.00  0.00    -0.044 A 
ATOM      7  C   UNL     1       7.862   0.910  -0.262  1.00  0.00     0.008 A 
ATOM      8  C   UNL     1       7.486  -1.392   0.249  1.00  0.00     0.054 A 
ATOM      9  C   UNL     1       8.413   0.519  -1.469  1.00  0.00     0.051 A 
ATOM     10  C   UNL     1       8.044  -1.782  -0.972  1.00  0.00     0.166 A 
ATOM     11  C   UNL     1       8.511  -0.819  -1.838  1.00  0.00     0.165 A 
ATOM     12  O   UNL     1       8.252  -3.012  -1.560  1.00  0.00    -0.454 OA
ATOM     13  O   UNL     1       9.002  -1.484  -2.951  1.00  0.00    -0.454 OA
ATOM     14  C   UNL     1       8.940  -2.879  -2.777  1.00  0.00     0.468 C 
ENDBRANCH   5   6
ENDBRANCH   1   5
TORSDOF 3
ENDMDL
