@<TRIPOS>MOLECULE
/home/cewinharhar/GITHUB/reincatalyze/data/processed/docking_pred/2023-May-22-2206_sub9_nm5_bs15_s42_ex16_mel10_mts10000_k50_ec02_g099_lra9e-4_lrc1e-3/ab317eb7565d030be4138c7249420e244018cf00_ligand_9.pdbqt
 14 15 0 0 0
SMALL
GASTEIGER

@<TRIPOS>ATOM
      1  C          6.3700    1.1930    0.9280 C.3     1  UNL1        0.0800
      2  C          5.6540    0.3640    1.9370 C.2     1  UNL1        0.1300
      3  C          6.2620   -0.8670    2.5110 C.3     1  UNL1        0.0870
      4  O          4.5380    0.6730    2.3250 O.2     1  UNL1       -0.3000
      5  C          5.8600    0.9170   -0.4730 C.3     1  UNL1        0.0430
      6  C          6.8100    0.1010   -1.2490 C.2     1  UNL1       -0.0440
      7  C          7.4950    0.6250   -2.3520 C.2     1  UNL1        0.0080
      8  C          7.0400   -1.2070   -0.8890 C.2     1  UNL1        0.0540
      9  C          8.3760   -0.1870   -3.0430 C.2     1  UNL1        0.0510
     10  C          7.9320   -2.0240   -1.5900 C.2     1  UNL1        0.1660
     11  C          8.6050   -1.5100   -2.6760 C.2     1  UNL1        0.1650
     12  O          8.3260   -3.3360   -1.4340 O.2     1  UNL1       -0.4540
     13  O          9.4080   -2.5270   -3.1680 O.2     1  UNL1       -0.4540
     14  C          9.3300   -3.6740   -2.3560 C.3     1  UNL1        0.4680
@<TRIPOS>BOND
     1    13    11    1
     2    13    14    1
     3     9    11    2
     4     9     7    1
     5    11    10    1
     6    14    12    1
     7     7     6    2
     8    10    12    1
     9    10     8    2
    10     6     8    1
    11     6     5    1
    12     5     1    1
    13     1     2    1
    14     2     4    2
    15     2     3    1
