@<TRIPOS>MOLECULE
/home/cewinharhar/GITHUB/reincatalyze/data/processed/docking_pred/2023-May-22-2206_sub9_nm5_bs15_s42_ex16_mel10_mts10000_k50_ec02_g099_lra9e-4_lrc1e-3/ab5903e155d5198269deee73f32ad6fb308dffee_ligand_9.pdbqt
 14 15 0 0 0
SMALL
GASTEIGER

@<TRIPOS>ATOM
      1  C          6.6480    0.5680    1.1620 C.3     1  UNL1        0.0800
      2  C          5.2930    1.1510    1.3640 C.2     1  UNL1        0.1300
      3  C          4.7220    2.1470    0.4180 C.3     1  UNL1        0.0870
      4  O          4.6070    0.8260    2.3190 O.2     1  UNL1       -0.3000
      5  C          7.1580    0.8330   -0.2410 C.3     1  UNL1        0.0430
      6  C          7.6720   -0.3940   -0.8760 C.2     1  UNL1       -0.0440
      7  C          8.0300   -0.4240   -2.2290 C.2     1  UNL1        0.0080
      8  C          7.8110   -1.5420   -0.1300 C.2     1  UNL1        0.0540
      9  C          8.5070   -1.6040   -2.7710 C.2     1  UNL1        0.0510
     10  C          8.2950   -2.7310   -0.6820 C.2     1  UNL1        0.1660
     11  C          8.6460   -2.7630   -2.0130 C.2     1  UNL1        0.1650
     12  O          8.5210   -3.9870   -0.1580 O.2     1  UNL1       -0.4540
     13  O          9.0860   -4.0490   -2.2820 O.2     1  UNL1       -0.4540
     14  C          9.1090   -4.8330   -1.1120 C.3     1  UNL1        0.4680
@<TRIPOS>BOND
     1     9     7    1
     2     9    11    2
     3    13    11    1
     4    13    14    1
     5     7     6    2
     6    11    10    1
     7    14    12    1
     8     6     5    1
     9     6     8    1
    10    10    12    1
    11    10     8    2
    12     5     1    1
    13     3     2    1
    14     1     2    1
    15     2     4    2
