@<TRIPOS>MOLECULE
/home/cewinharhar/GITHUB/reincatalyze/data/processed/docking_pred/2023-May-22-2206_sub9_nm5_bs15_s42_ex16_mel10_mts10000_k50_ec02_g099_lra9e-4_lrc1e-3/ab955c776f37f5544fae82246801d9a2769dfb79_ligand_9.pdbqt
 14 15 0 0 0
SMALL
GASTEIGER

@<TRIPOS>ATOM
      1  C          5.7180    1.3750   -0.2530 C.3     1  UNL1        0.0800
      2  C          5.0900    1.2600    1.0930 C.2     1  UNL1        0.1300
      3  C          5.3880    0.1190    1.9990 C.3     1  UNL1        0.0870
      4  O          4.3070    2.1060    1.4940 O.2     1  UNL1       -0.3000
      5  C          7.2120    1.1290   -0.1860 C.3     1  UNL1        0.0430
      6  C          7.5840   -0.1490   -0.8190 C.2     1  UNL1       -0.0440
      7  C          7.6440   -0.2880   -2.2110 C.2     1  UNL1        0.0080
      8  C          7.8840   -1.2380   -0.0330 C.2     1  UNL1        0.0540
      9  C          8.0000   -1.5110   -2.7480 C.2     1  UNL1        0.0510
     10  C          8.2440   -2.4720   -0.5810 C.2     1  UNL1        0.1660
     11  C          8.3020   -2.6100   -1.9500 C.2     1  UNL1        0.1650
     12  O          8.5820   -3.6860   -0.0220 O.2     1  UNL1       -0.4540
     13  O          8.6800   -3.9190   -2.2060 O.2     1  UNL1       -0.4540
     14  C          8.9560   -4.6110   -1.0110 C.3     1  UNL1        0.4680
@<TRIPOS>BOND
     1     9     7    1
     2     9    11    2
     3     7     6    2
     4    13    11    1
     5    13    14    1
     6    11    10    1
     7    14    12    1
     8     6     5    1
     9     6     8    1
    10    10     8    2
    11    10    12    1
    12     1     5    1
    13     1     2    1
    14     2     4    2
    15     2     3    1
