MODEL 1
REMARK VINA RESULT:      -7.6      0.000      0.000
REMARK SMILES CC(=O)CCc1ccc2c(c1)OCO2
REMARK SMILES IDX 4 1 2 2 1 3 3 4 5 5 6 6 7 7 11 8 8 9 10 10 9 11 12 12 14 13
REMARK SMILES IDX 13 14
REMARK H PARENT
REMARK Flexibility Score: inf
ROOT
ATOM      1  C   UNL     1       5.543   1.926   1.268  1.00  0.00     0.080 C 
ENDROOT
BRANCH   1   2
ATOM      2  C   UNL     1       5.112   0.706   2.007  1.00  0.00     0.130 C 
ATOM      3  C   UNL     1       6.020  -0.457   2.192  1.00  0.00     0.087 C 
ATOM      4  O   UNL     1       3.992   0.626   2.485  1.00  0.00    -0.300 OA
ENDBRANCH   1   2
BRANCH   1   5
ATOM      5  C   UNL     1       5.413   1.736  -0.230  1.00  0.00     0.043 C 
BRANCH   5   6
ATOM      6  C   UNL     1       6.578   1.029  -0.794  1.00  0.00    -0.044 A 
ATOM      7  C   UNL     1       7.886   1.456  -0.542  1.00  0.00     0.008 A 
ATOM      8  C   UNL     1       6.385  -0.079  -1.586  1.00  0.00     0.054 A 
ATOM      9  C   UNL     1       8.940   0.753  -1.097  1.00  0.00     0.051 A 
ATOM     10  C   UNL     1       7.453  -0.787  -2.145  1.00  0.00     0.166 A 
ATOM     11  C   UNL     1       8.742  -0.367  -1.899  1.00  0.00     0.165 A 
ATOM     12  O   UNL     1       7.522  -1.901  -2.954  1.00  0.00    -0.454 OA
ATOM     13  O   UNL     1       9.583  -1.241  -2.568  1.00  0.00    -0.454 OA
ATOM     14  C   UNL     1       8.856  -2.282  -3.175  1.00  0.00     0.468 C 
ENDBRANCH   5   6
ENDBRANCH   1   5
TORSDOF 3
ENDMDL
MODEL 2
REMARK VINA RESULT:      -7.5      1.899      2.341
REMARK SMILES CC(=O)CCc1ccc2c(c1)OCO2
REMARK SMILES IDX 4 1 2 2 1 3 3 4 5 5 6 6 7 7 11 8 8 9 10 10 9 11 12 12 14 13
REMARK SMILES IDX 13 14
REMARK H PARENT
REMARK Flexibility Score: inf
ROOT
ATOM      1  C   UNL     1       5.718   1.375  -0.253  1.00  0.00     0.080 C 
ENDROOT
BRANCH   1   2
ATOM      2  C   UNL     1       5.090   1.260   1.093  1.00  0.00     0.130 C 
ATOM      3  C   UNL     1       5.388   0.119   1.999  1.00  0.00     0.087 C 
ATOM      4  O   UNL     1       4.307   2.106   1.494  1.00  0.00    -0.300 OA
ENDBRANCH   1   2
BRANCH   1   5
ATOM      5  C   UNL     1       7.212   1.129  -0.186  1.00  0.00     0.043 C 
BRANCH   5   6
ATOM      6  C   UNL     1       7.584  -0.149  -0.819  1.00  0.00    -0.044 A 
ATOM      7  C   UNL     1       7.644  -0.288  -2.211  1.00  0.00     0.008 A 
ATOM      8  C   UNL     1       7.884  -1.238  -0.033  1.00  0.00     0.054 A 
ATOM      9  C   UNL     1       8.000  -1.511  -2.748  1.00  0.00     0.051 A 
ATOM     10  C   UNL     1       8.244  -2.472  -0.581  1.00  0.00     0.166 A 
ATOM     11  C   UNL     1       8.302  -2.610  -1.950  1.00  0.00     0.165 A 
ATOM     12  O   UNL     1       8.582  -3.686  -0.022  1.00  0.00    -0.454 OA
ATOM     13  O   UNL     1       8.680  -3.919  -2.206  1.00  0.00    -0.454 OA
ATOM     14  C   UNL     1       8.956  -4.611  -1.011  1.00  0.00     0.468 C 
ENDBRANCH   5   6
ENDBRANCH   1   5
TORSDOF 3
ENDMDL
MODEL 3
REMARK VINA RESULT:      -7.2      2.085      2.611
REMARK SMILES CC(=O)CCc1ccc2c(c1)OCO2
REMARK SMILES IDX 4 1 2 2 1 3 3 4 5 5 6 6 7 7 11 8 8 9 10 10 9 11 12 12 14 13
REMARK SMILES IDX 13 14
REMARK H PARENT
REMARK Flexibility Score: inf
ROOT
ATOM      1  C   UNL     1       5.606   0.083   1.967  1.00  0.00     0.080 C 
ENDROOT
BRANCH   1   2
ATOM      2  C   UNL     1       4.684   1.205   1.632  1.00  0.00     0.130 C 
ATOM      3  C   UNL     1       4.965   2.138   0.508  1.00  0.00     0.087 C 
ATOM      4  O   UNL     1       3.664   1.391   2.276  1.00  0.00    -0.300 OA
ENDBRANCH   1   2
BRANCH   1   5
ATOM      5  C   UNL     1       7.004   0.345   1.442  1.00  0.00     0.043 C 
BRANCH   5   6
ATOM      6  C   UNL     1       7.396  -0.639   0.417  1.00  0.00    -0.044 A 
ATOM      7  C   UNL     1       7.285  -0.358  -0.949  1.00  0.00     0.008 A 
ATOM      8  C   UNL     1       7.885  -1.867   0.802  1.00  0.00     0.054 A 
ATOM      9  C   UNL     1       7.669  -1.320  -1.866  1.00  0.00     0.051 A 
ATOM     10  C   UNL     1       8.273  -2.836  -0.128  1.00  0.00     0.166 A 
ATOM     11  C   UNL     1       8.163  -2.560  -1.473  1.00  0.00     0.165 A 
ATOM     12  O   UNL     1       8.781  -4.111  -0.001  1.00  0.00    -0.454 OA
ATOM     13  O   UNL     1       8.612  -3.683  -2.150  1.00  0.00    -0.454 OA
ATOM     14  C   UNL     1       9.098  -4.656  -1.256  1.00  0.00     0.468 C 
ENDBRANCH   5   6
ENDBRANCH   1   5
TORSDOF 3
ENDMDL
MODEL 4
REMARK VINA RESULT:      -7.1      1.241      1.440
REMARK SMILES CC(=O)CCc1ccc2c(c1)OCO2
REMARK SMILES IDX 4 1 2 2 1 3 3 4 5 5 6 6 7 7 11 8 8 9 10 10 9 11 12 12 14 13
REMARK SMILES IDX 13 14
REMARK H PARENT
REMARK Flexibility Score: inf
ROOT
ATOM      1  C   UNL     1       6.350   1.232   0.920  1.00  0.00     0.080 C 
ENDROOT
BRANCH   1   2
ATOM      2  C   UNL     1       5.654   0.396   1.937  1.00  0.00     0.130 C 
ATOM      3  C   UNL     1       6.279  -0.830   2.501  1.00  0.00     0.087 C 
ATOM      4  O   UNL     1       4.541   0.695   2.338  1.00  0.00    -0.300 OA
ENDBRANCH   1   2
BRANCH   1   5
ATOM      5  C   UNL     1       5.840   0.939  -0.477  1.00  0.00     0.043 C 
BRANCH   5   6
ATOM      6  C   UNL     1       6.794   0.121  -1.248  1.00  0.00    -0.044 A 
ATOM      7  C   UNL     1       7.485   0.643  -2.347  1.00  0.00     0.008 A 
ATOM      8  C   UNL     1       7.020  -1.187  -0.884  1.00  0.00     0.054 A 
ATOM      9  C   UNL     1       8.369  -0.171  -3.032  1.00  0.00     0.051 A 
ATOM     10  C   UNL     1       7.916  -2.006  -1.579  1.00  0.00     0.166 A 
ATOM     11  C   UNL     1       8.595  -1.494  -2.662  1.00  0.00     0.165 A 
ATOM     12  O   UNL     1       8.308  -3.317  -1.418  1.00  0.00    -0.454 OA
ATOM     13  O   UNL     1       9.400  -2.512  -3.148  1.00  0.00    -0.454 OA
ATOM     14  C   UNL     1       9.317  -3.658  -2.334  1.00  0.00     0.468 C 
ENDBRANCH   5   6
ENDBRANCH   1   5
TORSDOF 3
ENDMDL
MODEL 5
REMARK VINA RESULT:      -6.8      1.183      5.161
REMARK SMILES CC(=O)CCc1ccc2c(c1)OCO2
REMARK SMILES IDX 4 1 2 2 1 3 3 4 5 5 6 6 7 7 11 8 8 9 10 10 9 11 12 12 14 13
REMARK SMILES IDX 13 14
REMARK H PARENT
REMARK Flexibility Score: inf
ROOT
ATOM      1  C   UNL     1       8.327   0.206  -2.668  1.00  0.00     0.080 C 
ENDROOT
BRANCH   1   2
ATOM      2  C   UNL     1       8.040  -1.253  -2.751  1.00  0.00     0.130 C 
ATOM      3  C   UNL     1       9.111  -2.244  -3.039  1.00  0.00     0.087 C 
ATOM      4  O   UNL     1       6.909  -1.680  -2.583  1.00  0.00    -0.300 OA
ENDBRANCH   1   2
BRANCH   1   5
ATOM      5  C   UNL     1       8.853   0.587  -1.299  1.00  0.00     0.043 C 
BRANCH   5   6
ATOM      6  C   UNL     1       7.821   0.437  -0.256  1.00  0.00    -0.044 A 
ATOM      7  C   UNL     1       7.934  -0.525   0.753  1.00  0.00     0.008 A 
ATOM      8  C   UNL     1       6.718   1.260  -0.265  1.00  0.00     0.054 A 
ATOM      9  C   UNL     1       6.936  -0.619   1.706  1.00  0.00     0.051 A 
ATOM     10  C   UNL     1       5.711   1.161   0.700  1.00  0.00     0.166 A 
ATOM     11  C   UNL     1       5.821   0.213   1.693  1.00  0.00     0.165 A 
ATOM     12  O   UNL     1       4.535   1.850   0.905  1.00  0.00    -0.454 OA
ATOM     13  O   UNL     1       4.699   0.342   2.496  1.00  0.00    -0.454 OA
ATOM     14  C   UNL     1       3.902   1.427   2.085  1.00  0.00     0.468 C 
ENDBRANCH   5   6
ENDBRANCH   1   5
TORSDOF 3
ENDMDL
