@<TRIPOS>MOLECULE
/home/cewinharhar/GITHUB/reincatalyze/data/processed/docking_pred/2023-May-22-2206_sub9_nm5_bs15_s42_ex16_mel10_mts10000_k50_ec02_g099_lra9e-4_lrc1e-3/ab955c776f37f5544fae82246801d9a2769dfb79_ligand_9.pdbqt
 14 15 0 0 0
SMALL
GASTEIGER

@<TRIPOS>ATOM
      1  C          5.5430    1.9260    1.2680 C.3     1  UNL1        0.0800
      2  C          5.1120    0.7060    2.0070 C.2     1  UNL1        0.1300
      3  C          6.0200   -0.4570    2.1920 C.3     1  UNL1        0.0870
      4  O          3.9920    0.6260    2.4850 O.2     1  UNL1       -0.3000
      5  C          5.4130    1.7360   -0.2300 C.3     1  UNL1        0.0430
      6  C          6.5780    1.0290   -0.7940 C.2     1  UNL1       -0.0440
      7  C          7.8860    1.4560   -0.5420 C.2     1  UNL1        0.0080
      8  C          6.3850   -0.0790   -1.5860 C.2     1  UNL1        0.0540
      9  C          8.9400    0.7530   -1.0970 C.2     1  UNL1        0.0510
     10  C          7.4530   -0.7870   -2.1450 C.2     1  UNL1        0.1660
     11  C          8.7420   -0.3670   -1.8990 C.2     1  UNL1        0.1650
     12  O          7.5220   -1.9010   -2.9540 O.2     1  UNL1       -0.4540
     13  O          9.5830   -1.2410   -2.5680 O.2     1  UNL1       -0.4540
     14  C          8.8560   -2.2820   -3.1750 C.3     1  UNL1        0.4680
@<TRIPOS>BOND
     1    14    12    1
     2    14    13    1
     3    12    10    1
     4    13    11    1
     5    10    11    2
     6    10     8    1
     7    11     9    1
     8     8     6    2
     9     9     7    2
    10     6     7    1
    11     6     5    1
    12     5     1    1
    13     1     2    1
    14     2     3    1
    15     2     4    2
