@<TRIPOS>MOLECULE
/home/cewinharhar/GITHUB/reincatalyze/data/processed/docking_pred/2023-May-22-2206_sub9_nm5_bs15_s42_ex16_mel10_mts10000_k50_ec02_g099_lra9e-4_lrc1e-3/ada201db5b439d74c350b173ce56903753062bb1_ligand_9.pdbqt
 14 15 0 0 0
SMALL
GASTEIGER

@<TRIPOS>ATOM
      1  C          5.3120   -0.0780    1.9630 C.3     1  UNL1        0.0800
      2  C          4.4390    1.1170    1.7890 C.2     1  UNL1        0.1300
      3  C          4.7250    2.1480    0.7560 C.3     1  UNL1        0.0870
      4  O          3.4580    1.2850    2.4950 O.2     1  UNL1       -0.3000
      5  C          6.7790    0.2990    1.9100 C.3     1  UNL1        0.0430
      6  C          7.3870   -0.0500    0.6140 C.2     1  UNL1       -0.0440
      7  C          7.8840    0.9310   -0.2510 C.2     1  UNL1        0.0080
      8  C          7.4750   -1.3710    0.2360 C.2     1  UNL1        0.0540
      9  C          8.4450    0.5430   -1.4540 C.2     1  UNL1        0.0510
     10  C          8.0430   -1.7580   -0.9810 C.2     1  UNL1        0.1660
     11  C          8.5320   -0.7930   -1.8340 C.2     1  UNL1        0.1650
     12  O          8.2440   -2.9850   -1.5770 O.2     1  UNL1       -0.4540
     13  O          9.0290   -1.4540   -2.9460 O.2     1  UNL1       -0.4540
     14  C          8.9480   -2.8500   -2.7850 C.3     1  UNL1        0.4680
@<TRIPOS>BOND
     1    13    14    1
     2    13    11    1
     3    14    12    1
     4    11     9    2
     5    11    10    1
     6    12    10    1
     7     9     7    1
     8    10     8    2
     9     7     6    2
    10     8     6    1
    11     6     5    1
    12     3     2    1
    13     2     1    1
    14     2     4    2
    15     5     1    1
