@<TRIPOS>MOLECULE
/home/cewinharhar/GITHUB/reincatalyze/data/processed/docking_pred/2023-May-22-2206_sub9_nm5_bs15_s42_ex16_mel10_mts10000_k50_ec02_g099_lra9e-4_lrc1e-3/ae45d061dddc84380b8ad6f9293329cc64ca5b9d_ligand_9.pdbqt
 14 15 0 0 0
SMALL
GASTEIGER

@<TRIPOS>ATOM
      1  C          5.3890   -0.2920    2.0950 C.3     1  UNL1        0.0800
      2  C          4.4720    0.8650    1.9020 C.2     1  UNL1        0.1300
      3  C          4.6810    1.8540    0.8110 C.3     1  UNL1        0.0870
      4  O          3.5160    1.0370    2.6410 O.2     1  UNL1       -0.3000
      5  C          6.7950    0.0370    1.6330 C.3     1  UNL1        0.0430
      6  C          7.2430   -0.8660    0.5580 C.2     1  UNL1       -0.0440
      7  C          7.0960   -0.5270   -0.7920 C.2     1  UNL1        0.0080
      8  C          7.8220   -2.0730    0.8780 C.2     1  UNL1        0.0540
      9  C          7.5360   -1.4140   -1.7580 C.2     1  UNL1        0.0510
     10  C          8.2650   -2.9660   -0.1030 C.2     1  UNL1        0.1660
     11  C          8.1210   -2.6340   -1.4310 C.2     1  UNL1        0.1650
     12  O          8.8630   -4.2070   -0.0420 O.2     1  UNL1       -0.4540
     13  O          8.6390   -3.6880   -2.1670 O.2     1  UNL1       -0.4540
     14  C          9.2030   -4.6660   -1.3250 C.3     1  UNL1        0.4680
@<TRIPOS>BOND
     1    13    11    1
     2    13    14    1
     3     9    11    2
     4     9     7    1
     5    11    10    1
     6    14    12    1
     7     7     6    2
     8    10    12    1
     9    10     8    2
    10     6     8    1
    11     6     5    1
    12     3     2    1
    13     5     1    1
    14     2     1    1
    15     2     4    2
