@<TRIPOS>MOLECULE
/home/cewinharhar/GITHUB/reincatalyze/data/processed/docking_pred/2023-May-22-2206_sub9_nm5_bs15_s42_ex16_mel10_mts10000_k50_ec02_g099_lra9e-4_lrc1e-3/ae45d061dddc84380b8ad6f9293329cc64ca5b9d_ligand_9.pdbqt
 14 15 0 0 0
SMALL
GASTEIGER

@<TRIPOS>ATOM
      1  C          5.3060   -0.1880    2.3130 C.3     1  UNL1        0.0800
      2  C          4.3860    0.9370    1.9840 C.2     1  UNL1        0.1300
      3  C          4.6520    1.8570    0.8460 C.3     1  UNL1        0.0870
      4  O          3.3800    1.1360    2.6460 O.2     1  UNL1       -0.3000
      5  C          6.7410    0.1570    1.9670 C.3     1  UNL1        0.0430
      6  C          7.2840   -0.7380    0.9300 C.2     1  UNL1       -0.0440
      7  C          7.5930   -2.0750    1.2050 C.2     1  UNL1        0.0080
      8  C          7.4940   -0.2600   -0.3430 C.2     1  UNL1        0.0540
      9  C          8.0990   -2.8690    0.1920 C.2     1  UNL1        0.0510
     10  C          8.0050   -1.0660   -1.3640 C.2     1  UNL1        0.1660
     11  C          8.3110   -2.3820   -1.0940 C.2     1  UNL1        0.1650
     12  O          8.2990   -0.8300   -2.6900 O.2     1  UNL1       -0.4540
     13  O          8.7900   -2.9320   -2.2730 O.2     1  UNL1       -0.4540
     14  C          8.7150   -2.0080   -3.3320 C.3     1  UNL1        0.4680
@<TRIPOS>BOND
     1    14    12    1
     2    14    13    1
     3    12    10    1
     4    13    11    1
     5    10    11    2
     6    10     8    1
     7    11     9    1
     8     8     6    2
     9     9     7    2
    10     3     2    1
    11     6     7    1
    12     6     5    1
    13     5     1    1
    14     2     1    1
    15     2     4    2
