@<TRIPOS>MOLECULE
/home/cewinharhar/GITHUB/reincatalyze/data/processed/docking_pred/2023-May-22-2206_sub9_nm5_bs15_s42_ex16_mel10_mts10000_k50_ec02_g099_lra9e-4_lrc1e-3/ae45d061dddc84380b8ad6f9293329cc64ca5b9d_ligand_9.pdbqt
 14 15 0 0 0
SMALL
GASTEIGER

@<TRIPOS>ATOM
      1  C          8.0950   -1.7650   -2.1490 C.3     1  UNL1        0.0800
      2  C          8.7890   -0.4580   -2.3270 C.2     1  UNL1        0.1300
      3  C          8.2290    0.6110   -3.1960 C.3     1  UNL1        0.0870
      4  O          9.8450   -0.2280   -1.7600 O.2     1  UNL1       -0.3000
      5  C          8.2620   -2.2890   -0.7370 C.3     1  UNL1        0.0430
      6  C          7.3580   -1.6100    0.2080 C.2     1  UNL1       -0.0440
      7  C          7.2010   -2.0600    1.5250 C.2     1  UNL1        0.0080
      8  C          6.6480   -0.5040   -0.2010 C.2     1  UNL1        0.0540
      9  C          6.3400   -1.3820    2.3670 C.2     1  UNL1        0.0510
     10  C          5.7780    0.1780    0.6550 C.2     1  UNL1        0.1660
     11  C          5.6220   -0.2650    1.9500 C.2     1  UNL1        0.1650
     12  O          4.9720    1.2840    0.4890 O.2     1  UNL1       -0.4540
     13  O          4.7150    0.5880    2.5580 O.2     1  UNL1       -0.4540
     14  C          4.3460    1.6380    1.6960 C.3     1  UNL1        0.4680
@<TRIPOS>BOND
     1     3     2    1
     2     2     1    1
     3     2     4    2
     4     1     5    1
     5     5     6    1
     6     8     6    2
     7     8    10    1
     8     6     7    1
     9    12    10    1
    10    12    14    1
    11    10    11    2
    12     7     9    2
    13    14    13    1
    14    11     9    1
    15    11    13    1
