@<TRIPOS>MOLECULE
/home/cewinharhar/GITHUB/reincatalyze/data/processed/docking_pred/2023-May-22-2206_sub9_nm5_bs15_s42_ex16_mel10_mts10000_k50_ec02_g099_lra9e-4_lrc1e-3/ae62664a3c9eef67376bdc077c2faa7ac5a69a78_ligand_9.pdbqt
 14 15 0 0 0
SMALL
GASTEIGER

@<TRIPOS>ATOM
      1  C          6.3700    1.2050    0.8920 C.3     1  UNL1        0.0800
      2  C          5.6710    0.3930    1.9270 C.2     1  UNL1        0.1300
      3  C          6.2880   -0.8300    2.5080 C.3     1  UNL1        0.0870
      4  O          4.5640    0.7100    2.3310 O.2     1  UNL1       -0.3000
      5  C          5.8520    0.8880   -0.4980 C.3     1  UNL1        0.0430
      6  C          6.8120    0.0750   -1.2660 C.2     1  UNL1       -0.0440
      7  C          7.5090    0.6030   -2.3590 C.2     1  UNL1        0.0080
      8  C          7.0370   -1.2340   -0.9080 C.2     1  UNL1        0.0540
      9  C          8.3980   -0.2070   -3.0420 C.2     1  UNL1        0.0510
     10  C          7.9370   -2.0490   -1.6020 C.2     1  UNL1        0.1660
     11  C          8.6230   -1.5310   -2.6780 C.2     1  UNL1        0.1650
     12  O          8.3300   -3.3610   -1.4450 O.2     1  UNL1       -0.4540
     13  O          9.4310   -2.5460   -3.1640 O.2     1  UNL1       -0.4540
     14  C          9.3440   -3.6960   -2.3570 C.3     1  UNL1        0.4680
@<TRIPOS>BOND
     1    13    11    1
     2    13    14    1
     3     9    11    2
     4     9     7    1
     5    11    10    1
     6     7     6    2
     7    14    12    1
     8    10    12    1
     9    10     8    2
    10     6     8    1
    11     6     5    1
    12     5     1    1
    13     1     2    1
    14     2     4    2
    15     2     3    1
