MODEL 1
REMARK VINA RESULT:      -7.6      0.000      0.000
REMARK SMILES CC(=O)CCc1ccc2c(c1)OCO2
REMARK SMILES IDX 4 1 2 2 1 3 3 4 5 5 6 6 7 7 11 8 8 9 10 10 9 11 12 12 14 13
REMARK SMILES IDX 13 14
REMARK H PARENT
REMARK Flexibility Score: inf
ROOT
ATOM      1  C   UNL     1       5.556   1.918   1.278  1.00  0.00     0.080 C 
ENDROOT
BRANCH   1   2
ATOM      2  C   UNL     1       5.125   0.702   2.023  1.00  0.00     0.130 C 
ATOM      3  C   UNL     1       6.032  -0.463   2.206  1.00  0.00     0.087 C 
ATOM      4  O   UNL     1       4.008   0.626   2.507  1.00  0.00    -0.300 OA
ENDBRANCH   1   2
BRANCH   1   5
ATOM      5  C   UNL     1       5.419   1.723  -0.219  1.00  0.00     0.043 C 
BRANCH   5   6
ATOM      6  C   UNL     1       6.583   1.021  -0.787  1.00  0.00    -0.044 A 
ATOM      7  C   UNL     1       7.891   1.452  -0.541  1.00  0.00     0.008 A 
ATOM      8  C   UNL     1       6.391  -0.089  -1.579  1.00  0.00     0.054 A 
ATOM      9  C   UNL     1       8.945   0.752  -1.101  1.00  0.00     0.051 A 
ATOM     10  C   UNL     1       7.459  -0.793  -2.142  1.00  0.00     0.166 A 
ATOM     11  C   UNL     1       8.747  -0.369  -1.901  1.00  0.00     0.165 A 
ATOM     12  O   UNL     1       7.528  -1.908  -2.950  1.00  0.00    -0.454 OA
ATOM     13  O   UNL     1       9.589  -1.241  -2.573  1.00  0.00    -0.454 OA
ATOM     14  C   UNL     1       8.862  -2.285  -3.177  1.00  0.00     0.468 C 
ENDBRANCH   5   6
ENDBRANCH   1   5
TORSDOF 3
ENDMDL
MODEL 2
REMARK VINA RESULT:      -7.3      1.939      2.441
REMARK SMILES CC(=O)CCc1ccc2c(c1)OCO2
REMARK SMILES IDX 4 1 2 2 1 3 3 4 5 5 6 6 7 7 11 8 8 9 10 10 9 11 12 12 14 13
REMARK SMILES IDX 13 14
REMARK H PARENT
REMARK Flexibility Score: inf
ROOT
ATOM      1  C   UNL     1       5.780   1.138  -0.339  1.00  0.00     0.080 C 
ENDROOT
BRANCH   1   2
ATOM      2  C   UNL     1       5.322   1.147   1.078  1.00  0.00     0.130 C 
ATOM      3  C   UNL     1       5.440  -0.056   1.944  1.00  0.00     0.087 C 
ATOM      4  O   UNL     1       4.833   2.150   1.572  1.00  0.00    -0.300 OA
ENDBRANCH   1   2
BRANCH   1   5
ATOM      5  C   UNL     1       7.288   1.014  -0.429  1.00  0.00     0.043 C 
BRANCH   5   6
ATOM      6  C   UNL     1       7.696  -0.282  -1.001  1.00  0.00    -0.044 A 
ATOM      7  C   UNL     1       7.866  -0.454  -2.379  1.00  0.00     0.008 A 
ATOM      8  C   UNL     1       7.921  -1.354  -0.168  1.00  0.00     0.054 A 
ATOM      9  C   UNL     1       8.251  -1.693  -2.858  1.00  0.00     0.051 A 
ATOM     10  C   UNL     1       8.311  -2.605  -0.657  1.00  0.00     0.166 A 
ATOM     11  C   UNL     1       8.477  -2.776  -2.014  1.00  0.00     0.165 A 
ATOM     12  O   UNL     1       8.590  -3.808  -0.045  1.00  0.00    -0.454 OA
ATOM     13  O   UNL     1       8.860  -4.094  -2.208  1.00  0.00    -0.454 OA
ATOM     14  C   UNL     1       9.032  -4.759  -0.979  1.00  0.00     0.468 C 
ENDBRANCH   5   6
ENDBRANCH   1   5
TORSDOF 3
ENDMDL
MODEL 3
REMARK VINA RESULT:      -7.2      2.042      2.614
REMARK SMILES CC(=O)CCc1ccc2c(c1)OCO2
REMARK SMILES IDX 4 1 2 2 1 3 3 4 5 5 6 6 7 7 11 8 8 9 10 10 9 11 12 12 14 13
REMARK SMILES IDX 13 14
REMARK H PARENT
REMARK Flexibility Score: inf
ROOT
ATOM      1  C   UNL     1       5.422  -0.038   2.064  1.00  0.00     0.080 C 
ENDROOT
BRANCH   1   2
ATOM      2  C   UNL     1       4.554   1.139   1.781  1.00  0.00     0.130 C 
ATOM      3  C   UNL     1       4.893   2.121   0.717  1.00  0.00     0.087 C 
ATOM      4  O   UNL     1       3.532   1.332   2.420  1.00  0.00    -0.300 OA
ENDBRANCH   1   2
BRANCH   1   5
ATOM      5  C   UNL     1       6.853   0.217   1.634  1.00  0.00     0.043 C 
BRANCH   5   6
ATOM      6  C   UNL     1       7.275  -0.704   0.565  1.00  0.00    -0.044 A 
ATOM      7  C   UNL     1       7.147  -0.366  -0.787  1.00  0.00     0.008 A 
ATOM      8  C   UNL     1       7.813  -1.929   0.892  1.00  0.00     0.054 A 
ATOM      9  C   UNL     1       7.561  -1.272  -1.747  1.00  0.00     0.051 A 
ATOM     10  C   UNL     1       8.231  -2.840  -0.082  1.00  0.00     0.166 A 
ATOM     11  C   UNL     1       8.103  -2.509  -1.413  1.00  0.00     0.165 A 
ATOM     12  O   UNL     1       8.787  -4.100  -0.014  1.00  0.00    -0.454 OA
ATOM     13  O   UNL     1       8.590  -3.583  -2.141  1.00  0.00    -0.454 OA
ATOM     14  C   UNL     1       9.117  -4.575  -1.294  1.00  0.00     0.468 C 
ENDBRANCH   5   6
ENDBRANCH   1   5
TORSDOF 3
ENDMDL
MODEL 4
REMARK VINA RESULT:      -7.0      1.250      1.461
REMARK SMILES CC(=O)CCc1ccc2c(c1)OCO2
REMARK SMILES IDX 4 1 2 2 1 3 3 4 5 5 6 6 7 7 11 8 8 9 10 10 9 11 12 12 14 13
REMARK SMILES IDX 13 14
REMARK H PARENT
REMARK Flexibility Score: inf
ROOT
ATOM      1  C   UNL     1       6.370   1.205   0.892  1.00  0.00     0.080 C 
ENDROOT
BRANCH   1   2
ATOM      2  C   UNL     1       5.671   0.393   1.927  1.00  0.00     0.130 C 
ATOM      3  C   UNL     1       6.288  -0.830   2.508  1.00  0.00     0.087 C 
ATOM      4  O   UNL     1       4.564   0.710   2.331  1.00  0.00    -0.300 OA
ENDBRANCH   1   2
BRANCH   1   5
ATOM      5  C   UNL     1       5.852   0.888  -0.498  1.00  0.00     0.043 C 
BRANCH   5   6
ATOM      6  C   UNL     1       6.812   0.075  -1.266  1.00  0.00    -0.044 A 
ATOM      7  C   UNL     1       7.509   0.603  -2.359  1.00  0.00     0.008 A 
ATOM      8  C   UNL     1       7.037  -1.234  -0.908  1.00  0.00     0.054 A 
ATOM      9  C   UNL     1       8.398  -0.207  -3.042  1.00  0.00     0.051 A 
ATOM     10  C   UNL     1       7.937  -2.049  -1.602  1.00  0.00     0.166 A 
ATOM     11  C   UNL     1       8.623  -1.531  -2.678  1.00  0.00     0.165 A 
ATOM     12  O   UNL     1       8.330  -3.361  -1.445  1.00  0.00    -0.454 OA
ATOM     13  O   UNL     1       9.431  -2.546  -3.164  1.00  0.00    -0.454 OA
ATOM     14  C   UNL     1       9.344  -3.696  -2.357  1.00  0.00     0.468 C 
ENDBRANCH   5   6
ENDBRANCH   1   5
TORSDOF 3
ENDMDL
MODEL 5
REMARK VINA RESULT:      -7.0      1.973      2.549
REMARK SMILES CC(=O)CCc1ccc2c(c1)OCO2
REMARK SMILES IDX 4 1 2 2 1 3 3 4 5 5 6 6 7 7 11 8 8 9 10 10 9 11 12 12 14 13
REMARK SMILES IDX 13 14
REMARK H PARENT
REMARK Flexibility Score: inf
ROOT
ATOM      1  C   UNL     1       6.803   0.778   1.216  1.00  0.00     0.080 C 
ENDROOT
BRANCH   1   2
ATOM      2  C   UNL     1       5.380   1.167   1.418  1.00  0.00     0.130 C 
ATOM      3  C   UNL     1       4.704   2.146   0.525  1.00  0.00     0.087 C 
ATOM      4  O   UNL     1       4.723   0.689   2.328  1.00  0.00    -0.300 OA
ENDBRANCH   1   2
BRANCH   1   5
ATOM      5  C   UNL     1       7.223   0.956  -0.230  1.00  0.00     0.043 C 
BRANCH   5   6
ATOM      6  C   UNL     1       7.621  -0.323  -0.845  1.00  0.00    -0.044 A 
ATOM      7  C   UNL     1       7.702  -0.475  -2.234  1.00  0.00     0.008 A 
ATOM      8  C   UNL     1       7.924  -1.400  -0.043  1.00  0.00     0.054 A 
ATOM      9  C   UNL     1       8.081  -1.698  -2.754  1.00  0.00     0.051 A 
ATOM     10  C   UNL     1       8.308  -2.635  -0.574  1.00  0.00     0.166 A 
ATOM     11  C   UNL     1       8.387  -2.785  -1.941  1.00  0.00     0.165 A 
ATOM     12  O   UNL     1       8.654  -3.839   0.002  1.00  0.00    -0.454 OA
ATOM     13  O   UNL     1       8.785  -4.092  -2.178  1.00  0.00    -0.454 OA
ATOM     14  C   UNL     1       9.053  -4.768  -0.973  1.00  0.00     0.468 C 
ENDBRANCH   5   6
ENDBRANCH   1   5
TORSDOF 3
ENDMDL
