@<TRIPOS>MOLECULE
/home/cewinharhar/GITHUB/reincatalyze/data/processed/docking_pred/2023-May-22-2206_sub9_nm5_bs15_s42_ex16_mel10_mts10000_k50_ec02_g099_lra9e-4_lrc1e-3/ae62664a3c9eef67376bdc077c2faa7ac5a69a78_ligand_9.pdbqt
 14 15 0 0 0
SMALL
GASTEIGER

@<TRIPOS>ATOM
      1  C          6.8030    0.7780    1.2160 C.3     1  UNL1        0.0800
      2  C          5.3800    1.1670    1.4180 C.2     1  UNL1        0.1300
      3  C          4.7040    2.1460    0.5250 C.3     1  UNL1        0.0870
      4  O          4.7230    0.6890    2.3280 O.2     1  UNL1       -0.3000
      5  C          7.2230    0.9560   -0.2300 C.3     1  UNL1        0.0430
      6  C          7.6210   -0.3230   -0.8450 C.2     1  UNL1       -0.0440
      7  C          7.7020   -0.4750   -2.2340 C.2     1  UNL1        0.0080
      8  C          7.9240   -1.4000   -0.0430 C.2     1  UNL1        0.0540
      9  C          8.0810   -1.6980   -2.7540 C.2     1  UNL1        0.0510
     10  C          8.3080   -2.6350   -0.5740 C.2     1  UNL1        0.1660
     11  C          8.3870   -2.7850   -1.9410 C.2     1  UNL1        0.1650
     12  O          8.6540   -3.8390    0.0020 O.2     1  UNL1       -0.4540
     13  O          8.7850   -4.0920   -2.1780 O.2     1  UNL1       -0.4540
     14  C          9.0530   -4.7680   -0.9730 C.3     1  UNL1        0.4680
@<TRIPOS>BOND
     1     9     7    1
     2     9    11    2
     3     7     6    2
     4    13    11    1
     5    13    14    1
     6    11    10    1
     7    14    12    1
     8     6     5    1
     9     6     8    1
    10    10     8    2
    11    10    12    1
    12     5     1    1
    13     3     2    1
    14     1     2    1
    15     2     4    2
