@<TRIPOS>MOLECULE
/home/cewinharhar/GITHUB/reincatalyze/data/processed/docking_pred/2023-May-22-2206_sub9_nm5_bs15_s42_ex16_mel10_mts10000_k50_ec02_g099_lra9e-4_lrc1e-3/ae62664a3c9eef67376bdc077c2faa7ac5a69a78_ligand_9.pdbqt
 14 15 0 0 0
SMALL
GASTEIGER

@<TRIPOS>ATOM
      1  C          5.4220   -0.0380    2.0640 C.3     1  UNL1        0.0800
      2  C          4.5540    1.1390    1.7810 C.2     1  UNL1        0.1300
      3  C          4.8930    2.1210    0.7170 C.3     1  UNL1        0.0870
      4  O          3.5320    1.3320    2.4200 O.2     1  UNL1       -0.3000
      5  C          6.8530    0.2170    1.6340 C.3     1  UNL1        0.0430
      6  C          7.2750   -0.7040    0.5650 C.2     1  UNL1       -0.0440
      7  C          7.1470   -0.3660   -0.7870 C.2     1  UNL1        0.0080
      8  C          7.8130   -1.9290    0.8920 C.2     1  UNL1        0.0540
      9  C          7.5610   -1.2720   -1.7470 C.2     1  UNL1        0.0510
     10  C          8.2310   -2.8400   -0.0820 C.2     1  UNL1        0.1660
     11  C          8.1030   -2.5090   -1.4130 C.2     1  UNL1        0.1650
     12  O          8.7870   -4.1000   -0.0140 O.2     1  UNL1       -0.4540
     13  O          8.5900   -3.5830   -2.1410 O.2     1  UNL1       -0.4540
     14  C          9.1170   -4.5750   -1.2940 C.3     1  UNL1        0.4680
@<TRIPOS>BOND
     1    13    11    1
     2    13    14    1
     3     9    11    2
     4     9     7    1
     5    11    10    1
     6    14    12    1
     7     7     6    2
     8    10    12    1
     9    10     8    2
    10     6     8    1
    11     6     5    1
    12     3     2    1
    13     5     1    1
    14     2     1    1
    15     2     4    2
