@<TRIPOS>MOLECULE
/home/cewinharhar/GITHUB/reincatalyze/data/processed/docking_pred/2023-May-22-2206_sub9_nm5_bs15_s42_ex16_mel10_mts10000_k50_ec02_g099_lra9e-4_lrc1e-3/ae62664a3c9eef67376bdc077c2faa7ac5a69a78_ligand_9.pdbqt
 14 15 0 0 0
SMALL
GASTEIGER

@<TRIPOS>ATOM
      1  C          5.5560    1.9180    1.2780 C.3     1  UNL1        0.0800
      2  C          5.1250    0.7020    2.0230 C.2     1  UNL1        0.1300
      3  C          6.0320   -0.4630    2.2060 C.3     1  UNL1        0.0870
      4  O          4.0080    0.6260    2.5070 O.2     1  UNL1       -0.3000
      5  C          5.4190    1.7230   -0.2190 C.3     1  UNL1        0.0430
      6  C          6.5830    1.0210   -0.7870 C.2     1  UNL1       -0.0440
      7  C          7.8910    1.4520   -0.5410 C.2     1  UNL1        0.0080
      8  C          6.3910   -0.0890   -1.5790 C.2     1  UNL1        0.0540
      9  C          8.9450    0.7520   -1.1010 C.2     1  UNL1        0.0510
     10  C          7.4590   -0.7930   -2.1420 C.2     1  UNL1        0.1660
     11  C          8.7470   -0.3690   -1.9010 C.2     1  UNL1        0.1650
     12  O          7.5280   -1.9080   -2.9500 O.2     1  UNL1       -0.4540
     13  O          9.5890   -1.2410   -2.5730 O.2     1  UNL1       -0.4540
     14  C          8.8620   -2.2850   -3.1770 C.3     1  UNL1        0.4680
@<TRIPOS>BOND
     1    14    12    1
     2    14    13    1
     3    12    10    1
     4    13    11    1
     5    10    11    2
     6    10     8    1
     7    11     9    1
     8     8     6    2
     9     9     7    2
    10     6     7    1
    11     6     5    1
    12     5     1    1
    13     1     2    1
    14     2     3    1
    15     2     4    2
