@<TRIPOS>MOLECULE
/home/cewinharhar/GITHUB/reincatalyze/data/processed/docking_pred/2023-May-22-2206_sub9_nm5_bs15_s42_ex16_mel10_mts10000_k50_ec02_g099_lra9e-4_lrc1e-3/af0dd28332db5651a88784e76b435690c0a42449_ligand_9.pdbqt
 14 15 0 0 0
SMALL
GASTEIGER

@<TRIPOS>ATOM
      1  C          5.7920    1.4060   -0.3040 C.3     1  UNL1        0.0800
      2  C          5.1530    1.3030    1.0380 C.2     1  UNL1        0.1300
      3  C          5.4470    0.1720    1.9580 C.3     1  UNL1        0.0870
      4  O          4.3630    2.1500    1.4220 O.2     1  UNL1       -0.3000
      5  C          7.2820    1.1350   -0.2260 C.3     1  UNL1        0.0430
      6  C          7.6350   -0.1580   -0.8390 C.2     1  UNL1       -0.0440
      7  C          7.6800   -0.3230   -2.2280 C.2     1  UNL1        0.0080
      8  C          7.9330   -1.2350   -0.0350 C.2     1  UNL1        0.0540
      9  C          8.0180   -1.5590   -2.7460 C.2     1  UNL1        0.0510
     10  C          8.2750   -2.4830   -0.5650 C.2     1  UNL1        0.1660
     11  C          8.3180   -2.6460   -1.9310 C.2     1  UNL1        0.1650
     12  O          8.6070   -3.6900    0.0140 O.2     1  UNL1       -0.4540
     13  O          8.6800   -3.9630   -2.1660 O.2     1  UNL1       -0.4540
     14  C          8.9620   -4.6360   -0.9620 C.3     1  UNL1        0.4680
@<TRIPOS>BOND
     1     9     7    1
     2     9    11    2
     3     7     6    2
     4    13    11    1
     5    13    14    1
     6    11    10    1
     7    14    12    1
     8     6     5    1
     9     6     8    1
    10    10     8    2
    11    10    12    1
    12     1     5    1
    13     1     2    1
    14     2     4    2
    15     2     3    1
