@<TRIPOS>MOLECULE
/home/cewinharhar/GITHUB/reincatalyze/data/processed/docking_pred/2023-May-22-2206_sub9_nm5_bs15_s42_ex16_mel10_mts10000_k50_ec02_g099_lra9e-4_lrc1e-3/af0dd28332db5651a88784e76b435690c0a42449_ligand_9.pdbqt
 14 15 0 0 0
SMALL
GASTEIGER

@<TRIPOS>ATOM
      1  C          6.4040    1.2110    0.9270 C.3     1  UNL1        0.0800
      2  C          5.6770    0.3750    1.9220 C.2     1  UNL1        0.1300
      3  C          6.2840   -0.8540    2.5010 C.3     1  UNL1        0.0870
      4  O          4.5540    0.6750    2.2920 O.2     1  UNL1       -0.3000
      5  C          5.9030    0.9530   -0.4810 C.3     1  UNL1        0.0430
      6  C          6.8390    0.1140   -1.2490 C.2     1  UNL1       -0.0440
      7  C          7.5290    0.6130   -2.3590 C.2     1  UNL1        0.0080
      8  C          7.0490   -1.1940   -0.8730 C.2     1  UNL1        0.0540
      9  C          8.3960   -0.2210   -3.0410 C.2     1  UNL1        0.0510
     10  C          7.9270   -2.0330   -1.5660 C.2     1  UNL1        0.1660
     11  C          8.6060   -1.5430   -2.6590 C.2     1  UNL1        0.1650
     12  O          8.3020   -3.3490   -1.3930 O.2     1  UNL1       -0.4540
     13  O          9.3920   -2.5780   -3.1400 O.2     1  UNL1       -0.4540
     14  C          9.2980   -3.7140   -2.3130 C.3     1  UNL1        0.4680
@<TRIPOS>BOND
     1    13    11    1
     2    13    14    1
     3     9    11    2
     4     9     7    1
     5    11    10    1
     6     7     6    2
     7    14    12    1
     8    10    12    1
     9    10     8    2
    10     6     8    1
    11     6     5    1
    12     5     1    1
    13     1     2    1
    14     2     4    2
    15     2     3    1
