@<TRIPOS>MOLECULE
/home/cewinharhar/GITHUB/reincatalyze/data/processed/docking_pred/2023-May-22-2206_sub9_nm5_bs15_s42_ex16_mel10_mts10000_k50_ec02_g099_lra9e-4_lrc1e-3/af0dd28332db5651a88784e76b435690c0a42449_ligand_9.pdbqt
 14 15 0 0 0
SMALL
GASTEIGER

@<TRIPOS>ATOM
      1  C          5.4490   -0.0230    2.0060 C.3     1  UNL1        0.0800
      2  C          4.5790    1.1600    1.7590 C.2     1  UNL1        0.1300
      3  C          4.8900    2.1490    0.6930 C.3     1  UNL1        0.0870
      4  O          3.5790    1.3540    2.4310 O.2     1  UNL1       -0.3000
      5  C          6.8740    0.2380    1.5590 C.3     1  UNL1        0.0430
      6  C          7.2940   -0.6970    0.4990 C.2     1  UNL1       -0.0440
      7  C          7.1680   -0.3720   -0.8570 C.2     1  UNL1        0.0080
      8  C          7.8260   -1.9190    0.8400 C.2     1  UNL1        0.0540
      9  C          7.5800   -1.2890   -1.8070 C.2     1  UNL1        0.0510
     10  C          8.2410   -2.8420   -0.1250 C.2     1  UNL1        0.1660
     11  C          8.1170   -2.5250   -1.4590 C.2     1  UNL1        0.1650
     12  O          8.7930   -4.1030   -0.0430 O.2     1  UNL1       -0.4540
     13  O          8.6000   -3.6080   -2.1760 O.2     1  UNL1       -0.4540
     14  C          9.1220   -4.5940   -1.3170 C.3     1  UNL1        0.4680
@<TRIPOS>BOND
     1    13    11    1
     2    13    14    1
     3     9    11    2
     4     9     7    1
     5    11    10    1
     6    14    12    1
     7     7     6    2
     8    10    12    1
     9    10     8    2
    10     6     8    1
    11     6     5    1
    12     3     2    1
    13     5     1    1
    14     2     1    1
    15     2     4    2
