@<TRIPOS>MOLECULE
/home/cewinharhar/GITHUB/reincatalyze/data/processed/docking_pred/2023-May-22-2206_sub9_nm5_bs15_s42_ex16_mel10_mts10000_k50_ec02_g099_lra9e-4_lrc1e-3/af0dd28332db5651a88784e76b435690c0a42449_ligand_9.pdbqt
 14 15 0 0 0
SMALL
GASTEIGER

@<TRIPOS>ATOM
      1  C          8.3290    0.2040   -2.6470 C.3     1  UNL1        0.0800
      2  C          8.0410   -1.2540   -2.7540 C.2     1  UNL1        0.1300
      3  C          9.1150   -2.2430   -3.0340 C.3     1  UNL1        0.0870
      4  O          6.9060   -1.6800   -2.6130 O.2     1  UNL1       -0.3000
      5  C          8.8550    0.5620   -1.2710 C.3     1  UNL1        0.0430
      6  C          7.8160    0.4190   -0.2350 C.2     1  UNL1       -0.0440
      7  C          7.9170   -0.5450    0.7750 C.2     1  UNL1        0.0080
      8  C          6.7180    1.2490   -0.2510 C.2     1  UNL1        0.0540
      9  C          6.9120   -0.6320    1.7210 C.2     1  UNL1        0.0510
     10  C          5.7050    1.1570    0.7090 C.2     1  UNL1        0.1660
     11  C          5.8030    0.2080    1.7020 C.2     1  UNL1        0.1650
     12  O          4.5320    1.8540    0.9060 O.2     1  UNL1       -0.4540
     13  O          4.6760    0.3450    2.4980 O.2     1  UNL1       -0.4540
     14  C          3.8890    1.4350    2.0830 C.3     1  UNL1        0.4680
@<TRIPOS>BOND
     1     3     2    1
     2     2     1    1
     3     2     4    2
     4     1     5    1
     5     5     6    1
     6     8     6    2
     7     8    10    1
     8     6     7    1
     9    10    12    1
    10    10    11    2
    11     7     9    2
    12    12    14    1
    13    11     9    1
    14    11    13    1
    15    14    13    1
