@<TRIPOS>MOLECULE
/home/cewinharhar/GITHUB/reincatalyze/data/processed/docking_pred/2023-May-22-2206_sub9_nm5_bs15_s42_ex16_mel10_mts10000_k50_ec02_g099_lra9e-4_lrc1e-3/af0dd28332db5651a88784e76b435690c0a42449_ligand_9.pdbqt
 14 15 0 0 0
SMALL
GASTEIGER

@<TRIPOS>ATOM
      1  C          5.4910    1.9100    1.2590 C.3     1  UNL1        0.0800
      2  C          5.0060    0.7050    1.9890 C.2     1  UNL1        0.1300
      3  C          5.8280   -0.5300    2.0900 C.3     1  UNL1        0.0870
      4  O          3.9120    0.6980    2.5290 O.2     1  UNL1       -0.3000
      5  C          5.3770    1.7260   -0.2420 C.3     1  UNL1        0.0430
      6  C          6.5520    1.0310   -0.7970 C.2     1  UNL1       -0.0440
      7  C          7.8550    1.4680   -0.5330 C.2     1  UNL1        0.0080
      8  C          6.3750   -0.0760   -1.5950 C.2     1  UNL1        0.0540
      9  C          8.9190    0.7750   -1.0820 C.2     1  UNL1        0.0510
     10  C          7.4540   -0.7740   -2.1470 C.2     1  UNL1        0.1660
     11  C          8.7370   -0.3440   -1.8880 C.2     1  UNL1        0.1650
     12  O          7.5390   -1.8850   -2.9580 O.2     1  UNL1       -0.4540
     13  O          9.5910   -1.2100   -2.5520 O.2     1  UNL1       -0.4540
     14  C          8.8770   -2.2550   -3.1690 C.3     1  UNL1        0.4680
@<TRIPOS>BOND
     1    14    12    1
     2    14    13    1
     3    12    10    1
     4    13    11    1
     5    10    11    2
     6    10     8    1
     7    11     9    1
     8     8     6    2
     9     9     7    2
    10     6     7    1
    11     6     5    1
    12     5     1    1
    13     1     2    1
    14     2     3    1
    15     2     4    2
