MODEL 1
REMARK VINA RESULT:      -7.6      0.000      0.000
REMARK SMILES CC(=O)CCc1ccc2c(c1)OCO2
REMARK SMILES IDX 4 1 2 2 1 3 3 4 5 5 6 6 7 7 11 8 8 9 10 10 9 11 12 12 14 13
REMARK SMILES IDX 13 14
REMARK H PARENT
REMARK Flexibility Score: inf
ROOT
ATOM      1  C   UNL     1       5.551   1.898   1.285  1.00  0.00     0.080 C 
ENDROOT
BRANCH   1   2
ATOM      2  C   UNL     1       5.105   0.676   2.012  1.00  0.00     0.130 C 
ATOM      3  C   UNL     1       5.999  -0.500   2.185  1.00  0.00     0.087 C 
ATOM      4  O   UNL     1       3.984   0.606   2.491  1.00  0.00    -0.300 OA
ENDBRANCH   1   2
BRANCH   1   5
ATOM      5  C   UNL     1       5.419   1.724  -0.215  1.00  0.00     0.043 C 
BRANCH   5   6
ATOM      6  C   UNL     1       6.581   1.022  -0.788  1.00  0.00    -0.044 A 
ATOM      7  C   UNL     1       7.890   1.455  -0.549  1.00  0.00     0.008 A 
ATOM      8  C   UNL     1       6.385  -0.089  -1.577  1.00  0.00     0.054 A 
ATOM      9  C   UNL     1       8.942   0.755  -1.112  1.00  0.00     0.051 A 
ATOM     10  C   UNL     1       7.452  -0.793  -2.144  1.00  0.00     0.166 A 
ATOM     11  C   UNL     1       8.740  -0.367  -1.910  1.00  0.00     0.165 A 
ATOM     12  O   UNL     1       7.518  -1.908  -2.952  1.00  0.00    -0.454 OA
ATOM     13  O   UNL     1       9.580  -1.239  -2.585  1.00  0.00    -0.454 OA
ATOM     14  C   UNL     1       8.851  -2.284  -3.184  1.00  0.00     0.468 C 
ENDBRANCH   5   6
ENDBRANCH   1   5
TORSDOF 3
ENDMDL
MODEL 2
REMARK VINA RESULT:      -7.5      1.945      2.382
REMARK SMILES CC(=O)CCc1ccc2c(c1)OCO2
REMARK SMILES IDX 4 1 2 2 1 3 3 4 5 5 6 6 7 7 11 8 8 9 10 10 9 11 12 12 14 13
REMARK SMILES IDX 13 14
REMARK H PARENT
REMARK Flexibility Score: inf
ROOT
ATOM      1  C   UNL     1       5.705   1.274  -0.293  1.00  0.00     0.080 C 
ENDROOT
BRANCH   1   2
ATOM      2  C   UNL     1       5.113   1.258   1.074  1.00  0.00     0.130 C 
ATOM      3  C   UNL     1       5.405   0.165   2.039  1.00  0.00     0.087 C 
ATOM      4  O   UNL     1       4.365   2.149   1.443  1.00  0.00    -0.300 OA
ENDBRANCH   1   2
BRANCH   1   5
ATOM      5  C   UNL     1       7.209   1.089  -0.244  1.00  0.00     0.043 C 
BRANCH   5   6
ATOM      6  C   UNL     1       7.621  -0.193  -0.843  1.00  0.00    -0.044 A 
ATOM      7  C   UNL     1       7.762  -0.343  -2.228  1.00  0.00     0.008 A 
ATOM      8  C   UNL     1       7.880  -1.274  -0.031  1.00  0.00     0.054 A 
ATOM      9  C   UNL     1       8.153  -1.570  -2.733  1.00  0.00     0.051 A 
ATOM     10  C   UNL     1       8.276  -2.512  -0.547  1.00  0.00     0.166 A 
ATOM     11  C   UNL     1       8.413  -2.661  -1.910  1.00  0.00     0.165 A 
ATOM     12  O   UNL     1       8.586  -3.719   0.041  1.00  0.00    -0.454 OA
ATOM     13  O   UNL     1       8.809  -3.970  -2.132  1.00  0.00    -0.454 OA
ATOM     14  C   UNL     1       9.019  -4.651  -0.917  1.00  0.00     0.468 C 
ENDBRANCH   5   6
ENDBRANCH   1   5
TORSDOF 3
ENDMDL
MODEL 3
REMARK VINA RESULT:      -7.2      2.061      2.627
REMARK SMILES CC(=O)CCc1ccc2c(c1)OCO2
REMARK SMILES IDX 4 1 2 2 1 3 3 4 5 5 6 6 7 7 11 8 8 9 10 10 9 11 12 12 14 13
REMARK SMILES IDX 13 14
REMARK H PARENT
REMARK Flexibility Score: inf
ROOT
ATOM      1  C   UNL     1       5.423  -0.047   2.019  1.00  0.00     0.080 C 
ENDROOT
BRANCH   1   2
ATOM      2  C   UNL     1       4.566   1.145   1.768  1.00  0.00     0.130 C 
ATOM      3  C   UNL     1       4.900   2.137   0.711  1.00  0.00     0.087 C 
ATOM      4  O   UNL     1       3.558   1.342   2.427  1.00  0.00    -0.300 OA
ENDBRANCH   1   2
BRANCH   1   5
ATOM      5  C   UNL     1       6.856   0.206   1.595  1.00  0.00     0.043 C 
BRANCH   5   6
ATOM      6  C   UNL     1       7.285  -0.725   0.536  1.00  0.00    -0.044 A 
ATOM      7  C   UNL     1       7.168  -0.396  -0.820  1.00  0.00     0.008 A 
ATOM      8  C   UNL     1       7.817  -1.947   0.876  1.00  0.00     0.054 A 
ATOM      9  C   UNL     1       7.587  -1.309  -1.770  1.00  0.00     0.051 A 
ATOM     10  C   UNL     1       8.241  -2.867  -0.089  1.00  0.00     0.166 A 
ATOM     11  C   UNL     1       8.124  -2.545  -1.423  1.00  0.00     0.165 A 
ATOM     12  O   UNL     1       8.794  -4.127  -0.007  1.00  0.00    -0.454 OA
ATOM     13  O   UNL     1       8.615  -3.625  -2.140  1.00  0.00    -0.454 OA
ATOM     14  C   UNL     1       9.133  -4.612  -1.281  1.00  0.00     0.468 C 
ENDBRANCH   5   6
ENDBRANCH   1   5
TORSDOF 3
ENDMDL
MODEL 4
REMARK VINA RESULT:      -7.1      1.961      2.505
REMARK SMILES CC(=O)CCc1ccc2c(c1)OCO2
REMARK SMILES IDX 4 1 2 2 1 3 3 4 5 5 6 6 7 7 11 8 8 9 10 10 9 11 12 12 14 13
REMARK SMILES IDX 13 14
REMARK H PARENT
REMARK Flexibility Score: inf
ROOT
ATOM      1  C   UNL     1       6.786   0.692   1.344  1.00  0.00     0.080 C 
ENDROOT
BRANCH   1   2
ATOM      2  C   UNL     1       5.357   1.090   1.472  1.00  0.00     0.130 C 
ATOM      3  C   UNL     1       4.759   2.141   0.605  1.00  0.00     0.087 C 
ATOM      4  O   UNL     1       4.631   0.563   2.298  1.00  0.00    -0.300 OA
ENDBRANCH   1   2
BRANCH   1   5
ATOM      5  C   UNL     1       7.307   0.950  -0.056  1.00  0.00     0.043 C 
BRANCH   5   6
ATOM      6  C   UNL     1       7.694  -0.300  -0.734  1.00  0.00    -0.044 A 
ATOM      7  C   UNL     1       7.814  -0.371  -2.127  1.00  0.00     0.008 A 
ATOM      8  C   UNL     1       7.949  -1.429   0.010  1.00  0.00     0.054 A 
ATOM      9  C   UNL     1       8.182  -1.571  -2.708  1.00  0.00     0.051 A 
ATOM     10  C   UNL     1       8.322  -2.639  -0.583  1.00  0.00     0.166 A 
ATOM     11  C   UNL     1       8.438  -2.711  -1.953  1.00  0.00     0.165 A 
ATOM     12  O   UNL     1       8.623  -3.883  -0.070  1.00  0.00    -0.454 OA
ATOM     13  O   UNL     1       8.814  -4.010  -2.256  1.00  0.00    -0.454 OA
ATOM     14  C   UNL     1       9.031  -4.762  -1.086  1.00  0.00     0.468 C 
ENDBRANCH   5   6
ENDBRANCH   1   5
TORSDOF 3
ENDMDL
MODEL 5
REMARK VINA RESULT:      -7.1      1.253      1.465
REMARK SMILES CC(=O)CCc1ccc2c(c1)OCO2
REMARK SMILES IDX 4 1 2 2 1 3 3 4 5 5 6 6 7 7 11 8 8 9 10 10 9 11 12 12 14 13
REMARK SMILES IDX 13 14
REMARK H PARENT
REMARK Flexibility Score: inf
ROOT
ATOM      1  C   UNL     1       6.369   1.155   0.959  1.00  0.00     0.080 C 
ENDROOT
BRANCH   1   2
ATOM      2  C   UNL     1       5.632   0.337   1.962  1.00  0.00     0.130 C 
ATOM      3  C   UNL     1       6.214  -0.907   2.533  1.00  0.00     0.087 C 
ATOM      4  O   UNL     1       4.522   0.666   2.346  1.00  0.00    -0.300 OA
ENDBRANCH   1   2
BRANCH   1   5
ATOM      5  C   UNL     1       5.861   0.893  -0.445  1.00  0.00     0.043 C 
BRANCH   5   6
ATOM      6  C   UNL     1       6.808   0.079  -1.226  1.00  0.00    -0.044 A 
ATOM      7  C   UNL     1       7.475   0.598  -2.342  1.00  0.00     0.008 A 
ATOM      8  C   UNL     1       7.053  -1.225  -0.857  1.00  0.00     0.054 A 
ATOM      9  C   UNL     1       8.354  -0.213  -3.036  1.00  0.00     0.051 A 
ATOM     10  C   UNL     1       7.943  -2.041  -1.562  1.00  0.00     0.166 A 
ATOM     11  C   UNL     1       8.599  -1.531  -2.660  1.00  0.00     0.165 A 
ATOM     12  O   UNL     1       8.350  -3.348  -1.399  1.00  0.00    -0.454 OA
ATOM     13  O   UNL     1       9.404  -2.546  -3.153  1.00  0.00    -0.454 OA
ATOM     14  C   UNL     1       9.346  -3.686  -2.330  1.00  0.00     0.468 C 
ENDBRANCH   5   6
ENDBRANCH   1   5
TORSDOF 3
ENDMDL
