@<TRIPOS>MOLECULE
/home/cewinharhar/GITHUB/reincatalyze/data/processed/docking_pred/2023-May-22-2206_sub9_nm5_bs15_s42_ex16_mel10_mts10000_k50_ec02_g099_lra9e-4_lrc1e-3/b0253e2818c1de1129519fa2afa58b59888d8d60_ligand_9.pdbqt
 14 15 0 0 0
SMALL
GASTEIGER

@<TRIPOS>ATOM
      1  C          5.4230   -0.0470    2.0190 C.3     1  UNL1        0.0800
      2  C          4.5660    1.1450    1.7680 C.2     1  UNL1        0.1300
      3  C          4.9000    2.1370    0.7110 C.3     1  UNL1        0.0870
      4  O          3.5580    1.3420    2.4270 O.2     1  UNL1       -0.3000
      5  C          6.8560    0.2060    1.5950 C.3     1  UNL1        0.0430
      6  C          7.2850   -0.7250    0.5360 C.2     1  UNL1       -0.0440
      7  C          7.1680   -0.3960   -0.8200 C.2     1  UNL1        0.0080
      8  C          7.8170   -1.9470    0.8760 C.2     1  UNL1        0.0540
      9  C          7.5870   -1.3090   -1.7700 C.2     1  UNL1        0.0510
     10  C          8.2410   -2.8670   -0.0890 C.2     1  UNL1        0.1660
     11  C          8.1240   -2.5450   -1.4230 C.2     1  UNL1        0.1650
     12  O          8.7940   -4.1270   -0.0070 O.2     1  UNL1       -0.4540
     13  O          8.6150   -3.6250   -2.1400 O.2     1  UNL1       -0.4540
     14  C          9.1330   -4.6120   -1.2810 C.3     1  UNL1        0.4680
@<TRIPOS>BOND
     1    13    11    1
     2    13    14    1
     3     9    11    2
     4     9     7    1
     5    11    10    1
     6    14    12    1
     7     7     6    2
     8    10    12    1
     9    10     8    2
    10     6     8    1
    11     6     5    1
    12     3     2    1
    13     5     1    1
    14     2     1    1
    15     2     4    2
