@<TRIPOS>MOLECULE
/home/cewinharhar/GITHUB/reincatalyze/data/processed/docking_pred/2023-May-22-2206_sub9_nm5_bs15_s42_ex16_mel10_mts10000_k50_ec02_g099_lra9e-4_lrc1e-3/b0253e2818c1de1129519fa2afa58b59888d8d60_ligand_9.pdbqt
 14 15 0 0 0
SMALL
GASTEIGER

@<TRIPOS>ATOM
      1  C          5.5510    1.8980    1.2850 C.3     1  UNL1        0.0800
      2  C          5.1050    0.6760    2.0120 C.2     1  UNL1        0.1300
      3  C          5.9990   -0.5000    2.1850 C.3     1  UNL1        0.0870
      4  O          3.9840    0.6060    2.4910 O.2     1  UNL1       -0.3000
      5  C          5.4190    1.7240   -0.2150 C.3     1  UNL1        0.0430
      6  C          6.5810    1.0220   -0.7880 C.2     1  UNL1       -0.0440
      7  C          7.8900    1.4550   -0.5490 C.2     1  UNL1        0.0080
      8  C          6.3850   -0.0890   -1.5770 C.2     1  UNL1        0.0540
      9  C          8.9420    0.7550   -1.1120 C.2     1  UNL1        0.0510
     10  C          7.4520   -0.7930   -2.1440 C.2     1  UNL1        0.1660
     11  C          8.7400   -0.3670   -1.9100 C.2     1  UNL1        0.1650
     12  O          7.5180   -1.9080   -2.9520 O.2     1  UNL1       -0.4540
     13  O          9.5800   -1.2390   -2.5850 O.2     1  UNL1       -0.4540
     14  C          8.8510   -2.2840   -3.1840 C.3     1  UNL1        0.4680
@<TRIPOS>BOND
     1    14    12    1
     2    14    13    1
     3    12    10    1
     4    13    11    1
     5    10    11    2
     6    10     8    1
     7    11     9    1
     8     8     6    2
     9     9     7    2
    10     6     7    1
    11     6     5    1
    12     5     1    1
    13     1     2    1
    14     2     3    1
    15     2     4    2
