@<TRIPOS>MOLECULE
/home/cewinharhar/GITHUB/reincatalyze/data/processed/docking_pred/2023-May-22-2206_sub9_nm5_bs15_s42_ex16_mel10_mts10000_k50_ec02_g099_lra9e-4_lrc1e-3/b0dbf451e4e891e0fb60bf6ca530f921e690d9da_ligand_9.pdbqt
 14 15 0 0 0
SMALL
GASTEIGER

@<TRIPOS>ATOM
      1  C          5.7410    1.3850   -0.2750 C.3     1  UNL1        0.0800
      2  C          5.0870    1.2670    1.0580 C.2     1  UNL1        0.1300
      3  C          5.3610    0.1190    1.9640 C.3     1  UNL1        0.0870
      4  O          4.3010    2.1150    1.4480 O.2     1  UNL1       -0.3000
      5  C          7.2310    1.1230   -0.1820 C.3     1  UNL1        0.0430
      6  C          7.6010   -0.1610   -0.8040 C.2     1  UNL1       -0.0440
      7  C          7.6670   -0.3090   -2.1940 C.2     1  UNL1        0.0080
      8  C          7.8910   -1.2460   -0.0090 C.2     1  UNL1        0.0540
      9  C          8.0200   -1.5380   -2.7210 C.2     1  UNL1        0.0510
     10  C          8.2490   -2.4860   -0.5470 C.2     1  UNL1        0.1660
     11  C          8.3130   -2.6330   -1.9140 C.2     1  UNL1        0.1650
     12  O          8.5780   -3.6970    0.0230 O.2     1  UNL1       -0.4540
     13  O          8.6860   -3.9460   -2.1590 O.2     1  UNL1       -0.4540
     14  C          8.9520   -4.6300   -0.9580 C.3     1  UNL1        0.4680
@<TRIPOS>BOND
     1     9     7    1
     2     9    11    2
     3     7     6    2
     4    13    11    1
     5    13    14    1
     6    11    10    1
     7    14    12    1
     8     6     5    1
     9     6     8    1
    10    10     8    2
    11    10    12    1
    12     1     5    1
    13     1     2    1
    14     2     4    2
    15     2     3    1
