@<TRIPOS>MOLECULE
/home/cewinharhar/GITHUB/reincatalyze/data/processed/docking_pred/2023-May-22-2206_sub9_nm5_bs15_s42_ex16_mel10_mts10000_k50_ec02_g099_lra9e-4_lrc1e-3/b25c452ec0c0b8d96fec3e0f7bbac0cc4967bb63_ligand_9.pdbqt
 14 15 0 0 0
SMALL
GASTEIGER

@<TRIPOS>ATOM
      1  C          5.4410   -0.0390    1.9840 C.3     1  UNL1        0.0800
      2  C          4.5870    1.1510    1.7110 C.2     1  UNL1        0.1300
      3  C          4.9090    2.1090    0.6190 C.3     1  UNL1        0.0870
      4  O          3.5930    1.3750    2.3810 O.2     1  UNL1       -0.3000
      5  C          6.8760    0.2050    1.5630 C.3     1  UNL1        0.0430
      6  C          7.3040   -0.7310    0.5080 C.2     1  UNL1       -0.0440
      7  C          7.1840   -0.4110   -0.8490 C.2     1  UNL1        0.0080
      8  C          7.8370   -1.9520    0.8550 C.2     1  UNL1        0.0540
      9  C          7.6020   -1.3290   -1.7950 C.2     1  UNL1        0.0510
     10  C          8.2590   -2.8770   -0.1050 C.2     1  UNL1        0.1660
     11  C          8.1410   -2.5630   -1.4410 C.2     1  UNL1        0.1650
     12  O          8.8130   -4.1360   -0.0170 O.2     1  UNL1       -0.4540
     13  O          8.6300   -3.6470   -2.1520 O.2     1  UNL1       -0.4540
     14  C          9.1500   -4.6290   -1.2880 C.3     1  UNL1        0.4680
@<TRIPOS>BOND
     1    13    11    1
     2    13    14    1
     3     9    11    2
     4     9     7    1
     5    11    10    1
     6    14    12    1
     7     7     6    2
     8    10    12    1
     9    10     8    2
    10     6     8    1
    11     6     5    1
    12     3     2    1
    13     5     1    1
    14     2     1    1
    15     2     4    2
