@<TRIPOS>MOLECULE
/home/cewinharhar/GITHUB/reincatalyze/data/processed/docking_pred/2023-May-22-2206_sub9_nm5_bs15_s42_ex16_mel10_mts10000_k50_ec02_g099_lra9e-4_lrc1e-3/b3825404c3545a63ee9389464b716605cbbf7703_ligand_9.pdbqt
 14 15 0 0 0
SMALL
GASTEIGER

@<TRIPOS>ATOM
      1  C          6.4270    1.1630    0.9250 C.3     1  UNL1        0.0800
      2  C          5.6740    0.3460    1.9170 C.2     1  UNL1        0.1300
      3  C          6.2500   -0.8920    2.5080 C.3     1  UNL1        0.0870
      4  O          4.5540    0.6720    2.2760 O.2     1  UNL1       -0.3000
      5  C          5.9330    0.9100   -0.4860 C.3     1  UNL1        0.0430
      6  C          6.8700    0.0680   -1.2510 C.2     1  UNL1       -0.0440
      7  C          7.5590    0.5640   -2.3640 C.2     1  UNL1        0.0080
      8  C          7.0830   -1.2370   -0.8700 C.2     1  UNL1        0.0540
      9  C          8.4270   -0.2710   -3.0430 C.2     1  UNL1        0.0510
     10  C          7.9620   -2.0770   -1.5590 C.2     1  UNL1        0.1660
     11  C          8.6390   -1.5910   -2.6550 C.2     1  UNL1        0.1650
     12  O          8.3390   -3.3920   -1.3820 O.2     1  UNL1       -0.4540
     13  O          9.4270   -2.6260   -3.1320 O.2     1  UNL1       -0.4540
     14  C          9.3360   -3.7590   -2.3000 C.3     1  UNL1        0.4680
@<TRIPOS>BOND
     1    13    11    1
     2    13    14    1
     3     9    11    2
     4     9     7    1
     5    11    10    1
     6     7     6    2
     7    14    12    1
     8    10    12    1
     9    10     8    2
    10     6     8    1
    11     6     5    1
    12     5     1    1
    13     1     2    1
    14     2     4    2
    15     2     3    1
