@<TRIPOS>MOLECULE
/home/cewinharhar/GITHUB/reincatalyze/data/processed/docking_pred/2023-May-22-2206_sub9_nm5_bs15_s42_ex16_mel10_mts10000_k50_ec02_g099_lra9e-4_lrc1e-3/b3825404c3545a63ee9389464b716605cbbf7703_ligand_9.pdbqt
 14 15 0 0 0
SMALL
GASTEIGER

@<TRIPOS>ATOM
      1  C          5.3880   -0.0720    2.0090 C.3     1  UNL1        0.0800
      2  C          4.5600    1.1430    1.7700 C.2     1  UNL1        0.1300
      3  C          4.9080    2.1290    0.7120 C.3     1  UNL1        0.0870
      4  O          3.5660    1.3650    2.4410 O.2     1  UNL1       -0.3000
      5  C          6.8340    0.1620    1.6190 C.3     1  UNL1        0.0430
      6  C          7.2660   -0.7510    0.5460 C.2     1  UNL1       -0.0440
      7  C          7.1360   -0.4070   -0.8050 C.2     1  UNL1        0.0080
      8  C          7.8130   -1.9720    0.8670 C.2     1  UNL1        0.0540
      9  C          7.5590   -1.3030   -1.7690 C.2     1  UNL1        0.0510
     10  C          8.2390   -2.8750   -0.1120 C.2     1  UNL1        0.1660
     11  C          8.1110   -2.5380   -1.4410 C.2     1  UNL1        0.1650
     12  O          8.8060   -4.1300   -0.0490 O.2     1  UNL1       -0.4540
     13  O          8.6070   -3.6040   -2.1750 O.2     1  UNL1       -0.4540
     14  C          9.1410   -4.5960   -1.3310 C.3     1  UNL1        0.4680
@<TRIPOS>BOND
     1    13    11    1
     2    13    14    1
     3     9    11    2
     4     9     7    1
     5    11    10    1
     6    14    12    1
     7     7     6    2
     8    10    12    1
     9    10     8    2
    10     6     8    1
    11     6     5    1
    12     3     2    1
    13     5     1    1
    14     2     1    1
    15     2     4    2
