@<TRIPOS>MOLECULE
/home/cewinharhar/GITHUB/reincatalyze/data/processed/docking_pred/2023-May-22-2206_sub9_nm5_bs15_s42_ex16_mel10_mts10000_k50_ec02_g099_lra9e-4_lrc1e-3/b3825404c3545a63ee9389464b716605cbbf7703_ligand_9.pdbqt
 14 15 0 0 0
SMALL
GASTEIGER

@<TRIPOS>ATOM
      1  C          5.5870    1.8460    1.3290 C.3     1  UNL1        0.0800
      2  C          5.1280    0.6250    2.0480 C.2     1  UNL1        0.1300
      3  C          6.0100   -0.5610    2.2140 C.3     1  UNL1        0.0870
      4  O          4.0060    0.5630    2.5240 O.2     1  UNL1       -0.3000
      5  C          5.4420    1.6890   -0.1710 C.3     1  UNL1        0.0430
      6  C          6.5990    0.9950   -0.7630 C.2     1  UNL1       -0.0440
      7  C          7.9090    1.4400   -0.5490 C.2     1  UNL1        0.0080
      8  C          6.4000   -0.1200   -1.5450 C.2     1  UNL1        0.0540
      9  C          8.9560    0.7480   -1.1290 C.2     1  UNL1        0.0510
     10  C          7.4620   -0.8160   -2.1290 C.2     1  UNL1        0.1660
     11  C          8.7510   -0.3780   -1.9190 C.2     1  UNL1        0.1650
     12  O          7.5230   -1.9340   -2.9340 O.2     1  UNL1       -0.4540
     13  O          9.5850   -1.2460   -2.6070 O.2     1  UNL1       -0.4540
     14  C          8.8550   -2.2990   -3.1890 C.3     1  UNL1        0.4680
@<TRIPOS>BOND
     1    14    12    1
     2    14    13    1
     3    12    10    1
     4    13    11    1
     5    10    11    2
     6    10     8    1
     7    11     9    1
     8     8     6    2
     9     9     7    2
    10     6     7    1
    11     6     5    1
    12     5     1    1
    13     1     2    1
    14     2     3    1
    15     2     4    2
