MODEL 1
REMARK VINA RESULT:      -7.7      0.000      0.000
REMARK SMILES CC(=O)CCc1ccc2c(c1)OCO2
REMARK SMILES IDX 4 1 2 2 1 3 3 4 5 5 6 6 7 7 11 8 8 9 10 10 9 11 12 12 14 13
REMARK SMILES IDX 13 14
REMARK H PARENT
REMARK Flexibility Score: inf
ROOT
ATOM      1  C   UNL     1       5.508   1.949   1.251  1.00  0.00     0.080 C 
ENDROOT
BRANCH   1   2
ATOM      2  C   UNL     1       5.093   0.731   2.000  1.00  0.00     0.130 C 
ATOM      3  C   UNL     1       6.010  -0.427   2.177  1.00  0.00     0.087 C 
ATOM      4  O   UNL     1       3.980   0.647   2.494  1.00  0.00    -0.300 OA
ENDBRANCH   1   2
BRANCH   1   5
ATOM      5  C   UNL     1       5.384   1.744  -0.246  1.00  0.00     0.043 C 
BRANCH   5   6
ATOM      6  C   UNL     1       6.555   1.040  -0.799  1.00  0.00    -0.044 A 
ATOM      7  C   UNL     1       7.861   1.466  -0.532  1.00  0.00     0.008 A 
ATOM      8  C   UNL     1       6.370  -0.066  -1.597  1.00  0.00     0.054 A 
ATOM      9  C   UNL     1       8.920   0.765  -1.079  1.00  0.00     0.051 A 
ATOM     10  C   UNL     1       7.445  -0.772  -2.147  1.00  0.00     0.166 A 
ATOM     11  C   UNL     1       8.730  -0.353  -1.886  1.00  0.00     0.165 A 
ATOM     12  O   UNL     1       7.522  -1.884  -2.959  1.00  0.00    -0.454 OA
ATOM     13  O   UNL     1       9.579  -1.225  -2.549  1.00  0.00    -0.454 OA
ATOM     14  C   UNL     1       8.858  -2.264  -3.167  1.00  0.00     0.468 C 
ENDBRANCH   5   6
ENDBRANCH   1   5
TORSDOF 3
ENDMDL
MODEL 2
REMARK VINA RESULT:      -7.4      1.940      2.420
REMARK SMILES CC(=O)CCc1ccc2c(c1)OCO2
REMARK SMILES IDX 4 1 2 2 1 3 3 4 5 5 6 6 7 7 11 8 8 9 10 10 9 11 12 12 14 13
REMARK SMILES IDX 13 14
REMARK H PARENT
REMARK Flexibility Score: inf
ROOT
ATOM      1  C   UNL     1       5.873   1.451  -0.300  1.00  0.00     0.080 C 
ENDROOT
BRANCH   1   2
ATOM      2  C   UNL     1       5.181   1.288   1.009  1.00  0.00     0.130 C 
ATOM      3  C   UNL     1       5.379   0.079   1.852  1.00  0.00     0.087 C 
ATOM      4  O   UNL     1       4.425   2.150   1.430  1.00  0.00    -0.300 OA
ENDBRANCH   1   2
BRANCH   1   5
ATOM      5  C   UNL     1       7.347   1.114  -0.189  1.00  0.00     0.043 C 
BRANCH   5   6
ATOM      6  C   UNL     1       7.660  -0.183  -0.813  1.00  0.00    -0.044 A 
ATOM      7  C   UNL     1       7.646  -0.350  -2.203  1.00  0.00     0.008 A 
ATOM      8  C   UNL     1       7.976  -1.263  -0.021  1.00  0.00     0.054 A 
ATOM      9  C   UNL     1       7.949  -1.592  -2.732  1.00  0.00     0.051 A 
ATOM     10  C   UNL     1       8.282  -2.516  -0.561  1.00  0.00     0.166 A 
ATOM     11  C   UNL     1       8.268  -2.681  -1.928  1.00  0.00     0.165 A 
ATOM     12  O   UNL     1       8.622  -3.726   0.006  1.00  0.00    -0.454 OA
ATOM     13  O   UNL     1       8.604  -4.003  -2.175  1.00  0.00    -0.454 OA
ATOM     14  C   UNL     1       8.925  -4.678  -0.982  1.00  0.00     0.468 C 
ENDBRANCH   5   6
ENDBRANCH   1   5
TORSDOF 3
ENDMDL
MODEL 3
REMARK VINA RESULT:      -7.2      2.097      2.630
REMARK SMILES CC(=O)CCc1ccc2c(c1)OCO2
REMARK SMILES IDX 4 1 2 2 1 3 3 4 5 5 6 6 7 7 11 8 8 9 10 10 9 11 12 12 14 13
REMARK SMILES IDX 13 14
REMARK H PARENT
REMARK Flexibility Score: inf
ROOT
ATOM      1  C   UNL     1       5.588   0.034   1.946  1.00  0.00     0.080 C 
ENDROOT
BRANCH   1   2
ATOM      2  C   UNL     1       4.680   1.172   1.628  1.00  0.00     0.130 C 
ATOM      3  C   UNL     1       4.961   2.104   0.504  1.00  0.00     0.087 C 
ATOM      4  O   UNL     1       3.674   1.373   2.288  1.00  0.00    -0.300 OA
ENDBRANCH   1   2
BRANCH   1   5
ATOM      5  C   UNL     1       6.994   0.294   1.440  1.00  0.00     0.043 C 
BRANCH   5   6
ATOM      6  C   UNL     1       7.393  -0.682   0.411  1.00  0.00    -0.044 A 
ATOM      7  C   UNL     1       7.290  -0.391  -0.954  1.00  0.00     0.008 A 
ATOM      8  C   UNL     1       7.884  -1.911   0.790  1.00  0.00     0.054 A 
ATOM      9  C   UNL     1       7.681  -1.346  -1.875  1.00  0.00     0.051 A 
ATOM     10  C   UNL     1       8.278  -2.873  -0.145  1.00  0.00     0.166 A 
ATOM     11  C   UNL     1       8.176  -2.588  -1.489  1.00  0.00     0.165 A 
ATOM     12  O   UNL     1       8.789  -4.148  -0.024  1.00  0.00    -0.454 OA
ATOM     13  O   UNL     1       8.631  -3.705  -2.171  1.00  0.00    -0.454 OA
ATOM     14  C   UNL     1       9.114  -4.683  -1.281  1.00  0.00     0.468 C 
ENDBRANCH   5   6
ENDBRANCH   1   5
TORSDOF 3
ENDMDL
MODEL 4
REMARK VINA RESULT:      -7.1      1.266      1.489
REMARK SMILES CC(=O)CCc1ccc2c(c1)OCO2
REMARK SMILES IDX 4 1 2 2 1 3 3 4 5 5 6 6 7 7 11 8 8 9 10 10 9 11 12 12 14 13
REMARK SMILES IDX 13 14
REMARK H PARENT
REMARK Flexibility Score: inf
ROOT
ATOM      1  C   UNL     1       6.412   1.194   0.938  1.00  0.00     0.080 C 
ENDROOT
BRANCH   1   2
ATOM      2  C   UNL     1       5.678   0.357   1.928  1.00  0.00     0.130 C 
ATOM      3  C   UNL     1       6.272  -0.883   2.495  1.00  0.00     0.087 C 
ATOM      4  O   UNL     1       4.559   0.668   2.304  1.00  0.00    -0.300 OA
ENDBRANCH   1   2
BRANCH   1   5
ATOM      5  C   UNL     1       5.907   0.951  -0.470  1.00  0.00     0.043 C 
BRANCH   5   6
ATOM      6  C   UNL     1       6.837   0.113  -1.247  1.00  0.00    -0.044 A 
ATOM      7  C   UNL     1       7.514   0.612  -2.366  1.00  0.00     0.008 A 
ATOM      8  C   UNL     1       7.055  -1.193  -0.871  1.00  0.00     0.054 A 
ATOM      9  C   UNL     1       8.376  -0.221  -3.056  1.00  0.00     0.051 A 
ATOM     10  C   UNL     1       7.928  -2.031  -1.572  1.00  0.00     0.166 A 
ATOM     11  C   UNL     1       8.593  -1.541  -2.673  1.00  0.00     0.165 A 
ATOM     12  O   UNL     1       8.308  -3.345  -1.402  1.00  0.00    -0.454 OA
ATOM     13  O   UNL     1       9.377  -2.575  -3.161  1.00  0.00    -0.454 OA
ATOM     14  C   UNL     1       9.296  -3.709  -2.331  1.00  0.00     0.468 C 
ENDBRANCH   5   6
ENDBRANCH   1   5
TORSDOF 3
ENDMDL
MODEL 5
REMARK VINA RESULT:      -6.8      1.187      5.173
REMARK SMILES CC(=O)CCc1ccc2c(c1)OCO2
REMARK SMILES IDX 4 1 2 2 1 3 3 4 5 5 6 6 7 7 11 8 8 9 10 10 9 11 12 12 14 13
REMARK SMILES IDX 13 14
REMARK H PARENT
REMARK Flexibility Score: inf
ROOT
ATOM      1  C   UNL     1       8.342   0.192  -2.624  1.00  0.00     0.080 C 
ENDROOT
BRANCH   1   2
ATOM      2  C   UNL     1       8.040  -1.262  -2.741  1.00  0.00     0.130 C 
ATOM      3  C   UNL     1       9.104  -2.260  -3.029  1.00  0.00     0.087 C 
ATOM      4  O   UNL     1       6.901  -1.678  -2.603  1.00  0.00    -0.300 OA
ENDBRANCH   1   2
BRANCH   1   5
ATOM      5  C   UNL     1       8.864   0.537  -1.243  1.00  0.00     0.043 C 
BRANCH   5   6
ATOM      6  C   UNL     1       7.817   0.402  -0.214  1.00  0.00    -0.044 A 
ATOM      7  C   UNL     1       7.902  -0.563   0.796  1.00  0.00     0.008 A 
ATOM      8  C   UNL     1       6.726   1.241  -0.237  1.00  0.00     0.054 A 
ATOM      9  C   UNL     1       6.890  -0.642   1.735  1.00  0.00     0.051 A 
ATOM     10  C   UNL     1       5.706   1.157   0.715  1.00  0.00     0.166 A 
ATOM     11  C   UNL     1       5.788   0.208   1.709  1.00  0.00     0.165 A 
ATOM     12  O   UNL     1       4.537   1.864   0.905  1.00  0.00    -0.454 OA
ATOM     13  O   UNL     1       4.658   0.354   2.498  1.00  0.00    -0.454 OA
ATOM     14  C   UNL     1       3.883   1.451   2.077  1.00  0.00     0.468 C 
ENDBRANCH   5   6
ENDBRANCH   1   5
TORSDOF 3
ENDMDL
