@<TRIPOS>MOLECULE
/home/cewinharhar/GITHUB/reincatalyze/data/processed/docking_pred/2023-May-22-2206_sub9_nm5_bs15_s42_ex16_mel10_mts10000_k50_ec02_g099_lra9e-4_lrc1e-3/b3ccd1df948aefc26948fdc9bbc960af2f6fd47d_ligand_9.pdbqt
 14 15 0 0 0
SMALL
GASTEIGER

@<TRIPOS>ATOM
      1  C          5.5080    1.9490    1.2510 C.3     1  UNL1        0.0800
      2  C          5.0930    0.7310    2.0000 C.2     1  UNL1        0.1300
      3  C          6.0100   -0.4270    2.1770 C.3     1  UNL1        0.0870
      4  O          3.9800    0.6470    2.4940 O.2     1  UNL1       -0.3000
      5  C          5.3840    1.7440   -0.2460 C.3     1  UNL1        0.0430
      6  C          6.5550    1.0400   -0.7990 C.2     1  UNL1       -0.0440
      7  C          7.8610    1.4660   -0.5320 C.2     1  UNL1        0.0080
      8  C          6.3700   -0.0660   -1.5970 C.2     1  UNL1        0.0540
      9  C          8.9200    0.7650   -1.0790 C.2     1  UNL1        0.0510
     10  C          7.4450   -0.7720   -2.1470 C.2     1  UNL1        0.1660
     11  C          8.7300   -0.3530   -1.8860 C.2     1  UNL1        0.1650
     12  O          7.5220   -1.8840   -2.9590 O.2     1  UNL1       -0.4540
     13  O          9.5790   -1.2250   -2.5490 O.2     1  UNL1       -0.4540
     14  C          8.8580   -2.2640   -3.1670 C.3     1  UNL1        0.4680
@<TRIPOS>BOND
     1    14    12    1
     2    14    13    1
     3    12    10    1
     4    13    11    1
     5    10    11    2
     6    10     8    1
     7    11     9    1
     8     8     6    2
     9     9     7    2
    10     6     7    1
    11     6     5    1
    12     5     1    1
    13     1     2    1
    14     2     3    1
    15     2     4    2
