@<TRIPOS>MOLECULE
/home/cewinharhar/GITHUB/reincatalyze/data/processed/docking_pred/2023-May-22-2206_sub9_nm5_bs15_s42_ex16_mel10_mts10000_k50_ec02_g099_lra9e-4_lrc1e-3/b3efa5aa79561967f2a1346927635c3d7bfec8a2_ligand_9.pdbqt
 14 15 0 0 0
SMALL
GASTEIGER

@<TRIPOS>ATOM
      1  C          5.5370    2.1500    1.1810 C.3     1  UNL1        0.0800
      2  C          4.8780    1.1190    2.0300 C.2     1  UNL1        0.1300
      3  C          5.4840   -0.2230    2.2410 C.3     1  UNL1        0.0870
      4  O          3.8140    1.3480    2.5810 O.2     1  UNL1       -0.3000
      5  C          5.3670    1.8390   -0.2930 C.3     1  UNL1        0.0430
      6  C          6.5350    1.1250   -0.8390 C.2     1  UNL1       -0.0440
      7  C          7.8410    1.5760   -0.6160 C.2     1  UNL1        0.0080
      8  C          6.3490   -0.0170   -1.5850 C.2     1  UNL1        0.0540
      9  C          8.8980    0.8640   -1.1520 C.2     1  UNL1        0.0510
     10  C          7.4210   -0.7330   -2.1250 C.2     1  UNL1        0.1660
     11  C          8.7060   -0.2890   -1.9070 C.2     1  UNL1        0.1650
     12  O          7.4960   -1.8780   -2.8900 O.2     1  UNL1       -0.4540
     13  O          9.5530   -1.1800   -2.5480 O.2     1  UNL1       -0.4540
     14  C          8.8330   -2.2520   -3.1080 C.3     1  UNL1        0.4680
@<TRIPOS>BOND
     1    14    12    1
     2    14    13    1
     3    12    10    1
     4    13    11    1
     5    10    11    2
     6    10     8    1
     7    11     9    1
     8     8     6    2
     9     9     7    2
    10     6     7    1
    11     6     5    1
    12     5     1    1
    13     1     2    1
    14     2     3    1
    15     2     4    2
