MODEL 1
REMARK VINA RESULT:      -7.8      0.000      0.000
REMARK SMILES CC(=O)CCc1ccc2c(c1)OCO2
REMARK SMILES IDX 4 1 2 2 1 3 3 4 5 5 6 6 7 7 11 8 8 9 10 10 9 11 12 12 14 13
REMARK SMILES IDX 13 14
REMARK H PARENT
REMARK Flexibility Score: inf
ROOT
ATOM      1  C   UNL     1       5.537   2.150   1.181  1.00  0.00     0.080 C 
ENDROOT
BRANCH   1   2
ATOM      2  C   UNL     1       4.878   1.119   2.030  1.00  0.00     0.130 C 
ATOM      3  C   UNL     1       5.484  -0.223   2.241  1.00  0.00     0.087 C 
ATOM      4  O   UNL     1       3.814   1.348   2.581  1.00  0.00    -0.300 OA
ENDBRANCH   1   2
BRANCH   1   5
ATOM      5  C   UNL     1       5.367   1.839  -0.293  1.00  0.00     0.043 C 
BRANCH   5   6
ATOM      6  C   UNL     1       6.535   1.125  -0.839  1.00  0.00    -0.044 A 
ATOM      7  C   UNL     1       7.841   1.576  -0.616  1.00  0.00     0.008 A 
ATOM      8  C   UNL     1       6.349  -0.017  -1.585  1.00  0.00     0.054 A 
ATOM      9  C   UNL     1       8.898   0.864  -1.152  1.00  0.00     0.051 A 
ATOM     10  C   UNL     1       7.421  -0.733  -2.125  1.00  0.00     0.166 A 
ATOM     11  C   UNL     1       8.706  -0.289  -1.907  1.00  0.00     0.165 A 
ATOM     12  O   UNL     1       7.496  -1.878  -2.890  1.00  0.00    -0.454 OA
ATOM     13  O   UNL     1       9.553  -1.180  -2.548  1.00  0.00    -0.454 OA
ATOM     14  C   UNL     1       8.833  -2.252  -3.108  1.00  0.00     0.468 C 
ENDBRANCH   5   6
ENDBRANCH   1   5
TORSDOF 3
ENDMDL
MODEL 2
REMARK VINA RESULT:      -7.4      2.079      2.562
REMARK SMILES CC(=O)CCc1ccc2c(c1)OCO2
REMARK SMILES IDX 4 1 2 2 1 3 3 4 5 5 6 6 7 7 11 8 8 9 10 10 9 11 12 12 14 13
REMARK SMILES IDX 13 14
REMARK H PARENT
REMARK Flexibility Score: inf
ROOT
ATOM      1  C   UNL     1       5.607   0.147   2.190  1.00  0.00     0.080 C 
ENDROOT
BRANCH   1   2
ATOM      2  C   UNL     1       4.642   1.238   1.881  1.00  0.00     0.130 C 
ATOM      3  C   UNL     1       4.839   2.150   0.722  1.00  0.00     0.087 C 
ATOM      4  O   UNL     1       3.654   1.417   2.575  1.00  0.00    -0.300 OA
ENDBRANCH   1   2
BRANCH   1   5
ATOM      5  C   UNL     1       6.977   0.444   1.615  1.00  0.00     0.043 C 
BRANCH   5   6
ATOM      6  C   UNL     1       7.348  -0.517   0.561  1.00  0.00    -0.044 A 
ATOM      7  C   UNL     1       7.209  -0.205  -0.797  1.00  0.00     0.008 A 
ATOM      8  C   UNL     1       7.846  -1.752   0.908  1.00  0.00     0.054 A 
ATOM      9  C   UNL     1       7.574  -1.147  -1.742  1.00  0.00     0.051 A 
ATOM     10  C   UNL     1       8.214  -2.700  -0.051  1.00  0.00     0.166 A 
ATOM     11  C   UNL     1       8.077  -2.395  -1.387  1.00  0.00     0.165 A 
ATOM     12  O   UNL     1       8.725  -3.977   0.038  1.00  0.00    -0.454 OA
ATOM     13  O   UNL     1       8.512  -3.503  -2.098  1.00  0.00    -0.454 OA
ATOM     14  C   UNL     1       9.017  -4.494  -1.235  1.00  0.00     0.468 C 
ENDBRANCH   5   6
ENDBRANCH   1   5
TORSDOF 3
ENDMDL
MODEL 3
REMARK VINA RESULT:      -7.2      1.769      2.119
REMARK SMILES CC(=O)CCc1ccc2c(c1)OCO2
REMARK SMILES IDX 4 1 2 2 1 3 3 4 5 5 6 6 7 7 11 8 8 9 10 10 9 11 12 12 14 13
REMARK SMILES IDX 13 14
REMARK H PARENT
REMARK Flexibility Score: inf
ROOT
ATOM      1  C   UNL     1       5.406   1.410   0.327  1.00  0.00     0.080 C 
ENDROOT
BRANCH   1   2
ATOM      2  C   UNL     1       5.224   1.261   1.798  1.00  0.00     0.130 C 
ATOM      3  C   UNL     1       6.362   0.926   2.695  1.00  0.00     0.087 C 
ATOM      4  O   UNL     1       4.128   1.411   2.313  1.00  0.00    -0.300 OA
ENDBRANCH   1   2
BRANCH   1   5
ATOM      5  C   UNL     1       6.874   1.423  -0.048  1.00  0.00     0.043 C 
BRANCH   5   6
ATOM      6  C   UNL     1       7.284   0.163  -0.692  1.00  0.00    -0.044 A 
ATOM      7  C   UNL     1       7.279   0.016  -2.084  1.00  0.00     0.008 A 
ATOM      8  C   UNL     1       7.686  -0.901   0.083  1.00  0.00     0.054 A 
ATOM      9  C   UNL     1       7.675  -1.190  -2.633  1.00  0.00     0.051 A 
ATOM     10  C   UNL     1       8.087  -2.118  -0.477  1.00  0.00     0.166 A 
ATOM     11  C   UNL     1       8.081  -2.264  -1.846  1.00  0.00     0.165 A 
ATOM     12  O   UNL     1       8.522  -3.306   0.070  1.00  0.00    -0.454 OA
ATOM     13  O   UNL     1       8.518  -3.551  -2.114  1.00  0.00    -0.454 OA
ATOM     14  C   UNL     1       8.895  -4.216  -0.932  1.00  0.00     0.468 C 
ENDBRANCH   5   6
ENDBRANCH   1   5
TORSDOF 3
ENDMDL
MODEL 4
REMARK VINA RESULT:      -7.2      0.986      1.118
REMARK SMILES CC(=O)CCc1ccc2c(c1)OCO2
REMARK SMILES IDX 4 1 2 2 1 3 3 4 5 5 6 6 7 7 11 8 8 9 10 10 9 11 12 12 14 13
REMARK SMILES IDX 13 14
REMARK H PARENT
REMARK Flexibility Score: inf
ROOT
ATOM      1  C   UNL     1       5.003   0.754   1.526  1.00  0.00     0.080 C 
ENDROOT
BRANCH   1   2
ATOM      2  C   UNL     1       6.078   0.161   2.370  1.00  0.00     0.130 C 
ATOM      3  C   UNL     1       6.432  -1.281   2.284  1.00  0.00     0.087 C 
ATOM      4  O   UNL     1       6.702   0.847   3.163  1.00  0.00    -0.300 OA
ENDBRANCH   1   2
BRANCH   1   5
ATOM      5  C   UNL     1       5.579   1.678   0.471  1.00  0.00     0.043 C 
BRANCH   5   6
ATOM      6  C   UNL     1       6.653   1.026  -0.299  1.00  0.00    -0.044 A 
ATOM      7  C   UNL     1       7.966   1.511  -0.282  1.00  0.00     0.008 A 
ATOM      8  C   UNL     1       6.371  -0.089  -1.054  1.00  0.00     0.054 A 
ATOM      9  C   UNL     1       8.933   0.858  -1.023  1.00  0.00     0.051 A 
ATOM     10  C   UNL     1       7.352  -0.747  -1.802  1.00  0.00     0.166 A 
ATOM     11  C   UNL     1       8.644  -0.269  -1.787  1.00  0.00     0.165 A 
ATOM     12  O   UNL     1       7.324  -1.856  -2.621  1.00  0.00    -0.454 OA
ATOM     13  O   UNL     1       9.389  -1.104  -2.604  1.00  0.00    -0.454 OA
ATOM     14  C   UNL     1       8.612  -2.176  -3.081  1.00  0.00     0.468 C 
ENDBRANCH   5   6
ENDBRANCH   1   5
TORSDOF 3
ENDMDL
MODEL 5
REMARK VINA RESULT:      -7.1      1.248      5.280
REMARK SMILES CC(=O)CCc1ccc2c(c1)OCO2
REMARK SMILES IDX 4 1 2 2 1 3 3 4 5 5 6 6 7 7 11 8 8 9 10 10 9 11 12 12 14 13
REMARK SMILES IDX 13 14
REMARK H PARENT
REMARK Flexibility Score: inf
ROOT
ATOM      1  C   UNL     1       8.349   0.230  -2.575  1.00  0.00     0.080 C 
ENDROOT
BRANCH   1   2
ATOM      2  C   UNL     1       8.020  -1.216  -2.713  1.00  0.00     0.130 C 
ATOM      3  C   UNL     1       9.064  -2.227  -3.029  1.00  0.00     0.087 C 
ATOM      4  O   UNL     1       6.875  -1.615  -2.571  1.00  0.00    -0.300 OA
ENDBRANCH   1   2
BRANCH   1   5
ATOM      5  C   UNL     1       8.859   0.548  -1.183  1.00  0.00     0.043 C 
BRANCH   5   6
ATOM      6  C   UNL     1       7.799   0.412  -0.168  1.00  0.00    -0.044 A 
ATOM      7  C   UNL     1       7.833  -0.602   0.796  1.00  0.00     0.008 A 
ATOM      8  C   UNL     1       6.747   1.299  -0.157  1.00  0.00     0.054 A 
ATOM      9  C   UNL     1       6.811  -0.680   1.725  1.00  0.00     0.051 A 
ATOM     10  C   UNL     1       5.716   1.217   0.784  1.00  0.00     0.166 A 
ATOM     11  C   UNL     1       5.748   0.219   1.732  1.00  0.00     0.165 A 
ATOM     12  O   UNL     1       4.579   1.966   1.000  1.00  0.00    -0.454 OA
ATOM     13  O   UNL     1       4.619   0.378   2.520  1.00  0.00    -0.454 OA
ATOM     14  C   UNL     1       3.897   1.527   2.147  1.00  0.00     0.468 C 
ENDBRANCH   5   6
ENDBRANCH   1   5
TORSDOF 3
ENDMDL
