@<TRIPOS>MOLECULE
/home/cewinharhar/GITHUB/reincatalyze/data/processed/docking_pred/2023-May-22-2206_sub9_nm5_bs15_s42_ex16_mel10_mts10000_k50_ec02_g099_lra9e-4_lrc1e-3/b3efa5aa79561967f2a1346927635c3d7bfec8a2_ligand_9.pdbqt
 14 15 0 0 0
SMALL
GASTEIGER

@<TRIPOS>ATOM
      1  C          8.3490    0.2300   -2.5750 C.3     1  UNL1        0.0800
      2  C          8.0200   -1.2160   -2.7130 C.2     1  UNL1        0.1300
      3  C          9.0640   -2.2270   -3.0290 C.3     1  UNL1        0.0870
      4  O          6.8750   -1.6150   -2.5710 O.2     1  UNL1       -0.3000
      5  C          8.8590    0.5480   -1.1830 C.3     1  UNL1        0.0430
      6  C          7.7990    0.4120   -0.1680 C.2     1  UNL1       -0.0440
      7  C          7.8330   -0.6020    0.7960 C.2     1  UNL1        0.0080
      8  C          6.7470    1.2990   -0.1570 C.2     1  UNL1        0.0540
      9  C          6.8110   -0.6800    1.7250 C.2     1  UNL1        0.0510
     10  C          5.7160    1.2170    0.7840 C.2     1  UNL1        0.1660
     11  C          5.7480    0.2190    1.7320 C.2     1  UNL1        0.1650
     12  O          4.5790    1.9660    1.0000 O.2     1  UNL1       -0.4540
     13  O          4.6190    0.3780    2.5200 O.2     1  UNL1       -0.4540
     14  C          3.8970    1.5270    2.1470 C.3     1  UNL1        0.4680
@<TRIPOS>BOND
     1     3     2    1
     2     2     1    1
     3     2     4    2
     4     1     5    1
     5     5     6    1
     6     6     8    2
     7     6     7    1
     8     8    10    1
     9    10    12    1
    10    10    11    2
    11     7     9    2
    12    12    14    1
    13     9    11    1
    14    11    13    1
    15    14    13    1
