@<TRIPOS>MOLECULE
/home/cewinharhar/GITHUB/reincatalyze/data/processed/docking_pred/2023-May-22-2206_sub9_nm5_bs15_s42_ex16_mel10_mts10000_k50_ec02_g099_lra9e-4_lrc1e-3/b3efa5aa79561967f2a1346927635c3d7bfec8a2_ligand_9.pdbqt
 14 15 0 0 0
SMALL
GASTEIGER

@<TRIPOS>ATOM
      1  C          5.0030    0.7540    1.5260 C.3     1  UNL1        0.0800
      2  C          6.0780    0.1610    2.3700 C.2     1  UNL1        0.1300
      3  C          6.4320   -1.2810    2.2840 C.3     1  UNL1        0.0870
      4  O          6.7020    0.8470    3.1630 O.2     1  UNL1       -0.3000
      5  C          5.5790    1.6780    0.4710 C.3     1  UNL1        0.0430
      6  C          6.6530    1.0260   -0.2990 C.2     1  UNL1       -0.0440
      7  C          7.9660    1.5110   -0.2820 C.2     1  UNL1        0.0080
      8  C          6.3710   -0.0890   -1.0540 C.2     1  UNL1        0.0540
      9  C          8.9330    0.8580   -1.0230 C.2     1  UNL1        0.0510
     10  C          7.3520   -0.7470   -1.8020 C.2     1  UNL1        0.1660
     11  C          8.6440   -0.2690   -1.7870 C.2     1  UNL1        0.1650
     12  O          7.3240   -1.8560   -2.6210 O.2     1  UNL1       -0.4540
     13  O          9.3890   -1.1040   -2.6040 O.2     1  UNL1       -0.4540
     14  C          8.6120   -2.1760   -3.0810 C.3     1  UNL1        0.4680
@<TRIPOS>BOND
     1    14    12    1
     2    14    13    1
     3    12    10    1
     4    13    11    1
     5    10    11    2
     6    10     8    1
     7    11     9    1
     8     8     6    2
     9     9     7    2
    10     6     7    1
    11     6     5    1
    12     5     1    1
    13     1     2    1
    14     3     2    1
    15     2     4    2
