@<TRIPOS>MOLECULE
/home/cewinharhar/GITHUB/reincatalyze/data/processed/docking_pred/2023-May-22-2206_sub9_nm5_bs15_s42_ex16_mel10_mts10000_k50_ec02_g099_lra9e-4_lrc1e-3/b58c38953477011b0b30fd8623da0ee842eab33b_ligand_9.pdbqt
 14 15 0 0 0
SMALL
GASTEIGER

@<TRIPOS>ATOM
      1  C          0.2410  -11.5180   -3.2070 C.3     1  UNL1        0.0800
      2  C          0.3120  -10.6250   -4.3970 C.2     1  UNL1        0.1300
      3  C          1.6140  -10.1880   -4.9680 C.3     1  UNL1        0.0870
      4  O         -0.7040  -10.2230   -4.9410 O.2     1  UNL1       -0.3000
      5  C          1.5680  -11.5690   -2.4770 C.3     1  UNL1        0.0430
      6  C          1.6440  -10.5550   -1.4100 C.2     1  UNL1       -0.0440
      7  C          1.2400  -10.8370   -0.1000 C.2     1  UNL1        0.0080
      8  C          2.1240   -9.2970   -1.6970 C.2     1  UNL1        0.0540
      9  C          1.3350   -9.8460    0.8600 C.2     1  UNL1        0.0510
     10  C          2.2190   -8.2990   -0.7220 C.2     1  UNL1        0.1660
     11  C          1.8200   -8.5760    0.5670 C.2     1  UNL1        0.1650
     12  O          2.6550   -6.9910   -0.7560 O.2     1  UNL1       -0.4540
     13  O          2.0230   -7.4210    1.3050 O.2     1  UNL1       -0.4540
     14  C          2.6350   -6.4200    0.5270 C.3     1  UNL1        0.4680
@<TRIPOS>BOND
     1     3     2    1
     2     4     2    2
     3     2     1    1
     4     1     5    1
     5     5     6    1
     6     8     6    2
     7     8    10    1
     8     6     7    1
     9    12    10    1
    10    12    14    1
    11    10    11    2
    12     7     9    2
    13    14    13    1
    14    11     9    1
    15    11    13    1
