@<TRIPOS>MOLECULE
/home/cewinharhar/GITHUB/reincatalyze/data/processed/docking_pred/2023-May-22-2206_sub9_nm5_bs15_s42_ex16_mel10_mts10000_k50_ec02_g099_lra9e-4_lrc1e-3/b58c38953477011b0b30fd8623da0ee842eab33b_ligand_9.pdbqt
 14 15 0 0 0
SMALL
GASTEIGER

@<TRIPOS>ATOM
      1  C          0.1270  -12.1080    1.9280 C.3     1  UNL1        0.0800
      2  C         -1.1970  -11.5060    1.6060 C.2     1  UNL1        0.1300
      3  C         -1.4400  -10.0430    1.7300 C.3     1  UNL1        0.0870
      4  O         -2.1270  -12.2000    1.2290 O.2     1  UNL1       -0.3000
      5  C          1.2360  -11.0790    1.8400 C.3     1  UNL1        0.0430
      6  C          1.4730  -10.6480    0.4500 C.2     1  UNL1       -0.0440
      7  C          2.3350   -9.5880    0.1480 C.2     1  UNL1        0.0080
      8  C          0.8370  -11.2980   -0.5830 C.2     1  UNL1        0.0540
      9  C          2.5190   -9.2280   -1.1740 C.2     1  UNL1        0.0510
     10  C          1.0270  -10.9310   -1.9190 C.2     1  UNL1        0.1660
     11  C          1.8740   -9.8880   -2.2170 C.2     1  UNL1        0.1650
     12  O          0.5180  -11.4120   -3.1060 O.2     1  UNL1       -0.4540
     13  O          1.8700   -9.7490   -3.5960 O.2     1  UNL1       -0.4540
     14  C          1.0940  -10.7530   -4.2050 C.3     1  UNL1        0.4680
@<TRIPOS>BOND
     1    14    13    1
     2    14    12    1
     3    13    11    1
     4    12    10    1
     5    11    10    2
     6    11     9    1
     7    10     8    1
     8     9     7    2
     9     8     6    2
    10     7     6    1
    11     6     5    1
    12     4     2    2
    13     2     3    1
    14     2     1    1
    15     5     1    1
