MODEL 1
REMARK VINA RESULT:      -7.6      0.000      0.000
REMARK SMILES CC(=O)CCc1ccc2c(c1)OCO2
REMARK SMILES IDX 4 1 2 2 1 3 3 4 5 5 6 6 7 7 11 8 8 9 10 10 9 11 12 12 14 13
REMARK SMILES IDX 13 14
REMARK H PARENT
REMARK Flexibility Score: inf
ROOT
ATOM      1  C   UNL     1       5.550   1.915   1.268  1.00  0.00     0.080 C 
ENDROOT
BRANCH   1   2
ATOM      2  C   UNL     1       5.111   0.702   2.014  1.00  0.00     0.130 C 
ATOM      3  C   UNL     1       6.009  -0.470   2.196  1.00  0.00     0.087 C 
ATOM      4  O   UNL     1       3.994   0.636   2.501  1.00  0.00    -0.300 OA
ENDBRANCH   1   2
BRANCH   1   5
ATOM      5  C   UNL     1       5.415   1.719  -0.229  1.00  0.00     0.043 C 
BRANCH   5   6
ATOM      6  C   UNL     1       6.581   1.018  -0.795  1.00  0.00    -0.044 A 
ATOM      7  C   UNL     1       7.889   1.451  -0.547  1.00  0.00     0.008 A 
ATOM      8  C   UNL     1       6.392  -0.092  -1.587  1.00  0.00     0.054 A 
ATOM      9  C   UNL     1       8.944   0.754  -1.105  1.00  0.00     0.051 A 
ATOM     10  C   UNL     1       7.462  -0.794  -2.149  1.00  0.00     0.166 A 
ATOM     11  C   UNL     1       8.749  -0.368  -1.906  1.00  0.00     0.165 A 
ATOM     12  O   UNL     1       7.534  -1.908  -2.958  1.00  0.00    -0.454 OA
ATOM     13  O   UNL     1       9.593  -1.238  -2.577  1.00  0.00    -0.454 OA
ATOM     14  C   UNL     1       8.869  -2.283  -3.182  1.00  0.00     0.468 C 
ENDBRANCH   5   6
ENDBRANCH   1   5
TORSDOF 3
ENDMDL
MODEL 2
REMARK VINA RESULT:      -7.4      1.899      2.380
REMARK SMILES CC(=O)CCc1ccc2c(c1)OCO2
REMARK SMILES IDX 4 1 2 2 1 3 3 4 5 5 6 6 7 7 11 8 8 9 10 10 9 11 12 12 14 13
REMARK SMILES IDX 13 14
REMARK H PARENT
REMARK Flexibility Score: inf
ROOT
ATOM      1  C   UNL     1       5.754   1.292  -0.308  1.00  0.00     0.080 C 
ENDROOT
BRANCH   1   2
ATOM      2  C   UNL     1       5.216   1.224   1.079  1.00  0.00     0.130 C 
ATOM      3  C   UNL     1       5.436   0.034   1.945  1.00  0.00     0.087 C 
ATOM      4  O   UNL     1       4.574   2.150   1.549  1.00  0.00    -0.300 OA
ENDBRANCH   1   2
BRANCH   1   5
ATOM      5  C   UNL     1       7.257   1.092  -0.326  1.00  0.00     0.043 C 
BRANCH   5   6
ATOM      6  C   UNL     1       7.629  -0.198  -0.935  1.00  0.00    -0.044 A 
ATOM      7  C   UNL     1       7.680  -0.365  -2.324  1.00  0.00     0.008 A 
ATOM      8  C   UNL     1       7.937  -1.270  -0.129  1.00  0.00     0.054 A 
ATOM      9  C   UNL     1       8.037  -1.598  -2.839  1.00  0.00     0.051 A 
ATOM     10  C   UNL     1       8.297  -2.514  -0.654  1.00  0.00     0.166 A 
ATOM     11  C   UNL     1       8.347  -2.679  -2.020  1.00  0.00     0.165 A 
ATOM     12  O   UNL     1       8.642  -3.715  -0.072  1.00  0.00    -0.454 OA
ATOM     13  O   UNL     1       8.727  -3.992  -2.252  1.00  0.00    -0.454 OA
ATOM     14  C   UNL     1       9.012  -4.659  -1.045  1.00  0.00     0.468 C 
ENDBRANCH   5   6
ENDBRANCH   1   5
TORSDOF 3
ENDMDL
MODEL 3
REMARK VINA RESULT:      -7.2      2.088      2.619
REMARK SMILES CC(=O)CCc1ccc2c(c1)OCO2
REMARK SMILES IDX 4 1 2 2 1 3 3 4 5 5 6 6 7 7 11 8 8 9 10 10 9 11 12 12 14 13
REMARK SMILES IDX 13 14
REMARK H PARENT
REMARK Flexibility Score: inf
ROOT
ATOM      1  C   UNL     1       5.534   0.007   1.943  1.00  0.00     0.080 C 
ENDROOT
BRANCH   1   2
ATOM      2  C   UNL     1       4.648   1.168   1.648  1.00  0.00     0.130 C 
ATOM      3  C   UNL     1       4.942   2.113   0.538  1.00  0.00     0.087 C 
ATOM      4  O   UNL     1       3.649   1.378   2.316  1.00  0.00    -0.300 OA
ENDBRANCH   1   2
BRANCH   1   5
ATOM      5  C   UNL     1       6.953   0.265   1.475  1.00  0.00     0.043 C 
BRANCH   5   6
ATOM      6  C   UNL     1       7.370  -0.696   0.439  1.00  0.00    -0.044 A 
ATOM      7  C   UNL     1       7.285  -0.387  -0.924  1.00  0.00     0.008 A 
ATOM      8  C   UNL     1       7.858  -1.928   0.808  1.00  0.00     0.054 A 
ATOM      9  C   UNL     1       7.692  -1.329  -1.852  1.00  0.00     0.051 A 
ATOM     10  C   UNL     1       8.269  -2.876  -0.134  1.00  0.00     0.166 A 
ATOM     11  C   UNL     1       8.185  -2.574  -1.475  1.00  0.00     0.165 A 
ATOM     12  O   UNL     1       8.782  -4.152  -0.022  1.00  0.00    -0.454 OA
ATOM     13  O   UNL     1       8.653  -3.681  -2.165  1.00  0.00    -0.454 OA
ATOM     14  C   UNL     1       9.126  -4.669  -1.281  1.00  0.00     0.468 C 
ENDBRANCH   5   6
ENDBRANCH   1   5
TORSDOF 3
ENDMDL
MODEL 4
REMARK VINA RESULT:      -7.1      1.251      1.452
REMARK SMILES CC(=O)CCc1ccc2c(c1)OCO2
REMARK SMILES IDX 4 1 2 2 1 3 3 4 5 5 6 6 7 7 11 8 8 9 10 10 9 11 12 12 14 13
REMARK SMILES IDX 13 14
REMARK H PARENT
REMARK Flexibility Score: inf
ROOT
ATOM      1  C   UNL     1       6.373   1.203   0.948  1.00  0.00     0.080 C 
ENDROOT
BRANCH   1   2
ATOM      2  C   UNL     1       5.647   0.374   1.950  1.00  0.00     0.130 C 
ATOM      3  C   UNL     1       6.254  -0.849   2.539  1.00  0.00     0.087 C 
ATOM      4  O   UNL     1       4.523   0.678   2.318  1.00  0.00    -0.300 OA
ENDBRANCH   1   2
BRANCH   1   5
ATOM      5  C   UNL     1       5.868   0.938  -0.456  1.00  0.00     0.043 C 
BRANCH   5   6
ATOM      6  C   UNL     1       6.813   0.112  -1.230  1.00  0.00    -0.044 A 
ATOM      7  C   UNL     1       7.489   0.621  -2.344  1.00  0.00     0.008 A 
ATOM      8  C   UNL     1       7.044  -1.192  -0.854  1.00  0.00     0.054 A 
ATOM      9  C   UNL     1       8.365  -0.201  -3.031  1.00  0.00     0.051 A 
ATOM     10  C   UNL     1       7.930  -2.018  -1.551  1.00  0.00     0.166 A 
ATOM     11  C   UNL     1       8.596  -1.519  -2.649  1.00  0.00     0.165 A 
ATOM     12  O   UNL     1       8.325  -3.328  -1.381  1.00  0.00    -0.454 OA
ATOM     13  O   UNL     1       9.394  -2.543  -3.134  1.00  0.00    -0.454 OA
ATOM     14  C   UNL     1       9.322  -3.679  -2.306  1.00  0.00     0.468 C 
ENDBRANCH   5   6
ENDBRANCH   1   5
TORSDOF 3
ENDMDL
MODEL 5
REMARK VINA RESULT:      -7.0      1.963      2.517
REMARK SMILES CC(=O)CCc1ccc2c(c1)OCO2
REMARK SMILES IDX 4 1 2 2 1 3 3 4 5 5 6 6 7 7 11 8 8 9 10 10 9 11 12 12 14 13
REMARK SMILES IDX 13 14
REMARK H PARENT
REMARK Flexibility Score: inf
ROOT
ATOM      1  C   UNL     1       6.872   0.897   1.319  1.00  0.00     0.080 C 
ENDROOT
BRANCH   1   2
ATOM      2  C   UNL     1       5.412   1.140   1.482  1.00  0.00     0.130 C 
ATOM      3  C   UNL     1       4.691   2.148   0.658  1.00  0.00     0.087 C 
ATOM      4  O   UNL     1       4.760   0.514   2.302  1.00  0.00    -0.300 OA
ENDBRANCH   1   2
BRANCH   1   5
ATOM      5  C   UNL     1       7.302   1.070  -0.124  1.00  0.00     0.043 C 
BRANCH   5   6
ATOM      6  C   UNL     1       7.624  -0.222  -0.757  1.00  0.00    -0.044 A 
ATOM      7  C   UNL     1       7.609  -0.381  -2.148  1.00  0.00     0.008 A 
ATOM      8  C   UNL     1       7.952  -1.303   0.029  1.00  0.00     0.054 A 
ATOM      9  C   UNL     1       7.921  -1.616  -2.685  1.00  0.00     0.051 A 
ATOM     10  C   UNL     1       8.267  -2.550  -0.520  1.00  0.00     0.166 A 
ATOM     11  C   UNL     1       8.251  -2.708  -1.888  1.00  0.00     0.165 A 
ATOM     12  O   UNL     1       8.619  -3.760   0.039  1.00  0.00    -0.454 OA
ATOM     13  O   UNL     1       8.599  -4.025  -2.143  1.00  0.00    -0.454 OA
ATOM     14  C   UNL     1       8.929  -4.704  -0.955  1.00  0.00     0.468 C 
ENDBRANCH   5   6
ENDBRANCH   1   5
TORSDOF 3
ENDMDL
