@<TRIPOS>MOLECULE
/home/cewinharhar/GITHUB/reincatalyze/data/processed/docking_pred/2023-May-22-2206_sub9_nm5_bs15_s42_ex16_mel10_mts10000_k50_ec02_g099_lra9e-4_lrc1e-3/b590df4aad401e291154b1741be08749940afe84_ligand_9.pdbqt
 14 15 0 0 0
SMALL
GASTEIGER

@<TRIPOS>ATOM
      1  C          5.7540    1.2920   -0.3080 C.3     1  UNL1        0.0800
      2  C          5.2160    1.2240    1.0790 C.2     1  UNL1        0.1300
      3  C          5.4360    0.0340    1.9450 C.3     1  UNL1        0.0870
      4  O          4.5740    2.1500    1.5490 O.2     1  UNL1       -0.3000
      5  C          7.2570    1.0920   -0.3260 C.3     1  UNL1        0.0430
      6  C          7.6290   -0.1980   -0.9350 C.2     1  UNL1       -0.0440
      7  C          7.6800   -0.3650   -2.3240 C.2     1  UNL1        0.0080
      8  C          7.9370   -1.2700   -0.1290 C.2     1  UNL1        0.0540
      9  C          8.0370   -1.5980   -2.8390 C.2     1  UNL1        0.0510
     10  C          8.2970   -2.5140   -0.6540 C.2     1  UNL1        0.1660
     11  C          8.3470   -2.6790   -2.0200 C.2     1  UNL1        0.1650
     12  O          8.6420   -3.7150   -0.0720 O.2     1  UNL1       -0.4540
     13  O          8.7270   -3.9920   -2.2520 O.2     1  UNL1       -0.4540
     14  C          9.0120   -4.6590   -1.0450 C.3     1  UNL1        0.4680
@<TRIPOS>BOND
     1     9     7    1
     2     9    11    2
     3     7     6    2
     4    13    11    1
     5    13    14    1
     6    11    10    1
     7    14    12    1
     8     6     5    1
     9     6     8    1
    10    10     8    2
    11    10    12    1
    12     5     1    1
    13     1     2    1
    14     2     4    2
    15     2     3    1
