@<TRIPOS>MOLECULE
/home/cewinharhar/GITHUB/reincatalyze/data/processed/docking_pred/2023-May-22-2206_sub9_nm5_bs15_s42_ex16_mel10_mts10000_k50_ec02_g099_lra9e-4_lrc1e-3/b5f7d4a2d914252a6bbd971338c7ac1ea6a3e46f_ligand_9.pdbqt
 14 15 0 0 0
SMALL
GASTEIGER

@<TRIPOS>ATOM
      1  C          5.7840   -0.5610    1.6770 C.3     1  UNL1        0.0800
      2  C          4.9680    0.6820    1.7490 C.2     1  UNL1        0.1300
      3  C          5.2070    1.8270    0.8300 C.3     1  UNL1        0.0870
      4  O          4.0740    0.7980    2.5710 O.2     1  UNL1       -0.3000
      5  C          7.2450   -0.2470    1.4210 C.3     1  UNL1        0.0430
      6  C          7.5870   -0.3650   -0.0080 C.2     1  UNL1       -0.0440
      7  C          6.9180   -1.2610   -0.8500 C.2     1  UNL1        0.0080
      8  C          8.5840    0.4210   -0.5380 C.2     1  UNL1        0.0540
      9  C          7.2820   -1.3280   -2.1830 C.2     1  UNL1        0.0510
     10  C          8.9480    0.3500   -1.8860 C.2     1  UNL1        0.1660
     11  C          8.2910   -0.5320   -2.7150 C.2     1  UNL1        0.1650
     12  O          9.8910    1.0140   -2.6420 O.2     1  UNL1       -0.4540
     13  O          8.8500   -0.3890   -3.9760 O.2     1  UNL1       -0.4540
     14  C          9.8050    0.6450   -3.9940 C.3     1  UNL1        0.4680
@<TRIPOS>BOND
     1    14    13    1
     2    14    12    1
     3    13    11    1
     4    11     9    2
     5    11    10    1
     6    12    10    1
     7     9     7    1
     8    10     8    2
     9     7     6    2
    10     8     6    1
    11     6     5    1
    12     3     2    1
    13     5     1    1
    14     1     2    1
    15     2     4    2
