MODEL 1
REMARK VINA RESULT:      -7.7      0.000      0.000
REMARK SMILES CC(=O)CCc1ccc2c(c1)OCO2
REMARK SMILES IDX 4 1 2 2 1 3 3 4 5 5 6 6 7 7 11 8 8 9 10 10 9 11 12 12 14 13
REMARK SMILES IDX 13 14
REMARK H PARENT
REMARK Flexibility Score: inf
ROOT
ATOM      1  C   UNL     1       5.525   1.909   1.268  1.00  0.00     0.080 C 
ENDROOT
BRANCH   1   2
ATOM      2  C   UNL     1       5.085   0.693   2.007  1.00  0.00     0.130 C 
ATOM      3  C   UNL     1       5.979  -0.484   2.177  1.00  0.00     0.087 C 
ATOM      4  O   UNL     1       3.969   0.626   2.496  1.00  0.00    -0.300 OA
ENDBRANCH   1   2
BRANCH   1   5
ATOM      5  C   UNL     1       5.395   1.720  -0.230  1.00  0.00     0.043 C 
BRANCH   5   6
ATOM      6  C   UNL     1       6.562   1.021  -0.796  1.00  0.00    -0.044 A 
ATOM      7  C   UNL     1       7.869   1.463  -0.557  1.00  0.00     0.008 A 
ATOM      8  C   UNL     1       6.375  -0.097  -1.577  1.00  0.00     0.054 A 
ATOM      9  C   UNL     1       8.925   0.766  -1.114  1.00  0.00     0.051 A 
ATOM     10  C   UNL     1       7.447  -0.798  -2.137  1.00  0.00     0.166 A 
ATOM     11  C   UNL     1       8.733  -0.363  -1.904  1.00  0.00     0.165 A 
ATOM     12  O   UNL     1       7.521  -1.919  -2.937  1.00  0.00    -0.454 OA
ATOM     13  O   UNL     1       9.579  -1.235  -2.571  1.00  0.00    -0.454 OA
ATOM     14  C   UNL     1       8.857  -2.289  -3.164  1.00  0.00     0.468 C 
ENDBRANCH   5   6
ENDBRANCH   1   5
TORSDOF 3
ENDMDL
MODEL 2
REMARK VINA RESULT:      -7.5      1.895      2.356
REMARK SMILES CC(=O)CCc1ccc2c(c1)OCO2
REMARK SMILES IDX 4 1 2 2 1 3 3 4 5 5 6 6 7 7 11 8 8 9 10 10 9 11 12 12 14 13
REMARK SMILES IDX 13 14
REMARK H PARENT
REMARK Flexibility Score: inf
ROOT
ATOM      1  C   UNL     1       5.717   1.310  -0.289  1.00  0.00     0.080 C 
ENDROOT
BRANCH   1   2
ATOM      2  C   UNL     1       5.130   1.261   1.079  1.00  0.00     0.130 C 
ATOM      3  C   UNL     1       5.417   0.139   2.012  1.00  0.00     0.087 C 
ATOM      4  O   UNL     1       4.390   2.147   1.475  1.00  0.00    -0.300 OA
ENDBRANCH   1   2
BRANCH   1   5
ATOM      5  C   UNL     1       7.217   1.096  -0.253  1.00  0.00     0.043 C 
BRANCH   5   6
ATOM      6  C   UNL     1       7.602  -0.183  -0.876  1.00  0.00    -0.044 A 
ATOM      7  C   UNL     1       7.703  -0.321  -2.265  1.00  0.00     0.008 A 
ATOM      8  C   UNL     1       7.873  -1.275  -0.082  1.00  0.00     0.054 A 
ATOM      9  C   UNL     1       8.069  -1.546  -2.793  1.00  0.00     0.051 A 
ATOM     10  C   UNL     1       8.244  -2.510  -0.621  1.00  0.00     0.166 A 
ATOM     11  C   UNL     1       8.342  -2.647  -1.988  1.00  0.00     0.165 A 
ATOM     12  O   UNL     1       8.559  -3.727  -0.053  1.00  0.00    -0.454 OA
ATOM     13  O   UNL     1       8.721  -3.957  -2.233  1.00  0.00    -0.454 OA
ATOM     14  C   UNL     1       8.957  -4.652  -1.032  1.00  0.00     0.468 C 
ENDBRANCH   5   6
ENDBRANCH   1   5
TORSDOF 3
ENDMDL
MODEL 3
REMARK VINA RESULT:      -7.2      2.065      2.636
REMARK SMILES CC(=O)CCc1ccc2c(c1)OCO2
REMARK SMILES IDX 4 1 2 2 1 3 3 4 5 5 6 6 7 7 11 8 8 9 10 10 9 11 12 12 14 13
REMARK SMILES IDX 13 14
REMARK H PARENT
REMARK Flexibility Score: inf
ROOT
ATOM      1  C   UNL     1       5.455  -0.056   1.997  1.00  0.00     0.080 C 
ENDROOT
BRANCH   1   2
ATOM      2  C   UNL     1       4.609   1.145   1.750  1.00  0.00     0.130 C 
ATOM      3  C   UNL     1       4.936   2.123   0.678  1.00  0.00     0.087 C 
ATOM      4  O   UNL     1       3.616   1.362   2.425  1.00  0.00    -0.300 OA
ENDBRANCH   1   2
BRANCH   1   5
ATOM      5  C   UNL     1       6.890   0.185   1.572  1.00  0.00     0.043 C 
BRANCH   5   6
ATOM      6  C   UNL     1       7.311  -0.750   0.514  1.00  0.00    -0.044 A 
ATOM      7  C   UNL     1       7.181  -0.429  -0.842  1.00  0.00     0.008 A 
ATOM      8  C   UNL     1       7.848  -1.970   0.855  1.00  0.00     0.054 A 
ATOM      9  C   UNL     1       7.594  -1.346  -1.792  1.00  0.00     0.051 A 
ATOM     10  C   UNL     1       8.265  -2.893  -0.108  1.00  0.00     0.166 A 
ATOM     11  C   UNL     1       8.136  -2.579  -1.443  1.00  0.00     0.165 A 
ATOM     12  O   UNL     1       8.821  -4.152  -0.025  1.00  0.00    -0.454 OA
ATOM     13  O   UNL     1       8.621  -3.662  -2.159  1.00  0.00    -0.454 OA
ATOM     14  C   UNL     1       9.149  -4.644  -1.299  1.00  0.00     0.468 C 
ENDBRANCH   5   6
ENDBRANCH   1   5
TORSDOF 3
ENDMDL
MODEL 4
REMARK VINA RESULT:      -7.0      1.276      1.501
REMARK SMILES CC(=O)CCc1ccc2c(c1)OCO2
REMARK SMILES IDX 4 1 2 2 1 3 3 4 5 5 6 6 7 7 11 8 8 9 10 10 9 11 12 12 14 13
REMARK SMILES IDX 13 14
REMARK H PARENT
REMARK Flexibility Score: inf
ROOT
ATOM      1  C   UNL     1       6.422   1.192   0.944  1.00  0.00     0.080 C 
ENDROOT
BRANCH   1   2
ATOM      2  C   UNL     1       5.657   0.395   1.943  1.00  0.00     0.130 C 
ATOM      3  C   UNL     1       6.219  -0.840   2.553  1.00  0.00     0.087 C 
ATOM      4  O   UNL     1       4.538   0.736   2.291  1.00  0.00    -0.300 OA
ENDBRANCH   1   2
BRANCH   1   5
ATOM      5  C   UNL     1       5.917   0.941  -0.464  1.00  0.00     0.043 C 
BRANCH   5   6
ATOM      6  C   UNL     1       6.841   0.088  -1.232  1.00  0.00    -0.044 A 
ATOM      7  C   UNL     1       7.493   0.559  -2.378  1.00  0.00     0.008 A 
ATOM      8  C   UNL     1       7.079  -1.204  -0.821  1.00  0.00     0.054 A 
ATOM      9  C   UNL     1       8.350  -0.286  -3.058  1.00  0.00     0.051 A 
ATOM     10  C   UNL     1       7.947  -2.055  -1.512  1.00  0.00     0.166 A 
ATOM     11  C   UNL     1       8.587  -1.592  -2.640  1.00  0.00     0.165 A 
ATOM     12  O   UNL     1       8.343  -3.360  -1.309  1.00  0.00    -0.454 OA
ATOM     13  O   UNL     1       9.372  -2.633  -3.111  1.00  0.00    -0.454 OA
ATOM     14  C   UNL     1       9.317  -3.742  -2.246  1.00  0.00     0.468 C 
ENDBRANCH   5   6
ENDBRANCH   1   5
TORSDOF 3
ENDMDL
MODEL 5
REMARK VINA RESULT:      -6.9      1.943      2.654
REMARK SMILES CC(=O)CCc1ccc2c(c1)OCO2
REMARK SMILES IDX 4 1 2 2 1 3 3 4 5 5 6 6 7 7 11 8 8 9 10 10 9 11 12 12 14 13
REMARK SMILES IDX 13 14
REMARK H PARENT
REMARK Flexibility Score: inf
ROOT
ATOM      1  C   UNL     1       7.110   1.024   0.960  1.00  0.00     0.080 C 
ENDROOT
BRANCH   1   2
ATOM      2  C   UNL     1       5.668   1.380   1.077  1.00  0.00     0.130 C 
ATOM      3  C   UNL     1       4.966   2.150   0.015  1.00  0.00     0.087 C 
ATOM      4  O   UNL     1       5.018   1.048   2.055  1.00  0.00    -0.300 OA
ENDBRANCH   1   2
BRANCH   1   5
ATOM      5  C   UNL     1       7.577   1.084  -0.481  1.00  0.00     0.043 C 
BRANCH   5   6
ATOM      6  C   UNL     1       7.848  -0.259  -1.024  1.00  0.00    -0.044 A 
ATOM      7  C   UNL     1       7.895  -0.497  -2.402  1.00  0.00     0.008 A 
ATOM      8  C   UNL     1       8.066  -1.311  -0.164  1.00  0.00     0.054 A 
ATOM      9  C   UNL     1       8.155  -1.778  -2.854  1.00  0.00     0.051 A 
ATOM     10  C   UNL     1       8.329  -2.604  -0.625  1.00  0.00     0.166 A 
ATOM     11  C   UNL     1       8.374  -2.839  -1.982  1.00  0.00     0.165 A 
ATOM     12  O   UNL     1       8.574  -3.800   0.017  1.00  0.00    -0.454 OA
ATOM     13  O   UNL     1       8.649  -4.188  -2.146  1.00  0.00    -0.454 OA
ATOM     14  C   UNL     1       8.874  -4.815  -0.906  1.00  0.00     0.468 C 
ENDBRANCH   5   6
ENDBRANCH   1   5
TORSDOF 3
ENDMDL
