@<TRIPOS>MOLECULE
/home/cewinharhar/GITHUB/reincatalyze/data/processed/docking_pred/2023-May-22-2206_sub9_nm5_bs15_s42_ex16_mel10_mts10000_k50_ec02_g099_lra9e-4_lrc1e-3/b658f69152bbaa0d4df6d0fc1d77222c9f34aa3c_ligand_9.pdbqt
 14 15 0 0 0
SMALL
GASTEIGER

@<TRIPOS>ATOM
      1  C          5.7170    1.3100   -0.2890 C.3     1  UNL1        0.0800
      2  C          5.1300    1.2610    1.0790 C.2     1  UNL1        0.1300
      3  C          5.4170    0.1390    2.0120 C.3     1  UNL1        0.0870
      4  O          4.3900    2.1470    1.4750 O.2     1  UNL1       -0.3000
      5  C          7.2170    1.0960   -0.2530 C.3     1  UNL1        0.0430
      6  C          7.6020   -0.1830   -0.8760 C.2     1  UNL1       -0.0440
      7  C          7.7030   -0.3210   -2.2650 C.2     1  UNL1        0.0080
      8  C          7.8730   -1.2750   -0.0820 C.2     1  UNL1        0.0540
      9  C          8.0690   -1.5460   -2.7930 C.2     1  UNL1        0.0510
     10  C          8.2440   -2.5100   -0.6210 C.2     1  UNL1        0.1660
     11  C          8.3420   -2.6470   -1.9880 C.2     1  UNL1        0.1650
     12  O          8.5590   -3.7270   -0.0530 O.2     1  UNL1       -0.4540
     13  O          8.7210   -3.9570   -2.2330 O.2     1  UNL1       -0.4540
     14  C          8.9570   -4.6520   -1.0320 C.3     1  UNL1        0.4680
@<TRIPOS>BOND
     1     9     7    1
     2     9    11    2
     3     7     6    2
     4    13    11    1
     5    13    14    1
     6    11    10    1
     7    14    12    1
     8     6     5    1
     9     6     8    1
    10    10     8    2
    11    10    12    1
    12     1     5    1
    13     1     2    1
    14     2     4    2
    15     2     3    1
