@<TRIPOS>MOLECULE
/home/cewinharhar/GITHUB/reincatalyze/data/processed/docking_pred/2023-May-22-2206_sub9_nm5_bs15_s42_ex16_mel10_mts10000_k50_ec02_g099_lra9e-4_lrc1e-3/b658f69152bbaa0d4df6d0fc1d77222c9f34aa3c_ligand_9.pdbqt
 14 15 0 0 0
SMALL
GASTEIGER

@<TRIPOS>ATOM
      1  C          5.4550   -0.0560    1.9970 C.3     1  UNL1        0.0800
      2  C          4.6090    1.1450    1.7500 C.2     1  UNL1        0.1300
      3  C          4.9360    2.1230    0.6780 C.3     1  UNL1        0.0870
      4  O          3.6160    1.3620    2.4250 O.2     1  UNL1       -0.3000
      5  C          6.8900    0.1850    1.5720 C.3     1  UNL1        0.0430
      6  C          7.3110   -0.7500    0.5140 C.2     1  UNL1       -0.0440
      7  C          7.1810   -0.4290   -0.8420 C.2     1  UNL1        0.0080
      8  C          7.8480   -1.9700    0.8550 C.2     1  UNL1        0.0540
      9  C          7.5940   -1.3460   -1.7920 C.2     1  UNL1        0.0510
     10  C          8.2650   -2.8930   -0.1080 C.2     1  UNL1        0.1660
     11  C          8.1360   -2.5790   -1.4430 C.2     1  UNL1        0.1650
     12  O          8.8210   -4.1520   -0.0250 O.2     1  UNL1       -0.4540
     13  O          8.6210   -3.6620   -2.1590 O.2     1  UNL1       -0.4540
     14  C          9.1490   -4.6440   -1.2990 C.3     1  UNL1        0.4680
@<TRIPOS>BOND
     1    13    11    1
     2    13    14    1
     3     9    11    2
     4     9     7    1
     5    11    10    1
     6    14    12    1
     7     7     6    2
     8    10    12    1
     9    10     8    2
    10     6     8    1
    11     6     5    1
    12     3     2    1
    13     5     1    1
    14     2     1    1
    15     2     4    2
