MODEL 1
REMARK VINA RESULT:      -7.6      0.000      0.000
REMARK SMILES CC(=O)CCc1ccc2c(c1)OCO2
REMARK SMILES IDX 4 1 2 2 1 3 3 4 5 5 6 6 7 7 11 8 8 9 10 10 9 11 12 12 14 13
REMARK SMILES IDX 13 14
REMARK H PARENT
REMARK Flexibility Score: inf
ROOT
ATOM      1  C   UNL     1       5.505   1.917   1.267  1.00  0.00     0.080 C 
ENDROOT
BRANCH   1   2
ATOM      2  C   UNL     1       5.042   0.704   1.997  1.00  0.00     0.130 C 
ATOM      3  C   UNL     1       5.901  -0.503   2.130  1.00  0.00     0.087 C 
ATOM      4  O   UNL     1       3.936   0.667   2.511  1.00  0.00    -0.300 OA
ENDBRANCH   1   2
BRANCH   1   5
ATOM      5  C   UNL     1       5.386   1.735  -0.233  1.00  0.00     0.043 C 
BRANCH   5   6
ATOM      6  C   UNL     1       6.556   1.035  -0.793  1.00  0.00    -0.044 A 
ATOM      7  C   UNL     1       7.862   1.471  -0.540  1.00  0.00     0.008 A 
ATOM      8  C   UNL     1       6.372  -0.076  -1.584  1.00  0.00     0.054 A 
ATOM      9  C   UNL     1       8.921   0.774  -1.091  1.00  0.00     0.051 A 
ATOM     10  C   UNL     1       7.447  -0.778  -2.138  1.00  0.00     0.166 A 
ATOM     11  C   UNL     1       8.731  -0.349  -1.891  1.00  0.00     0.165 A 
ATOM     12  O   UNL     1       7.524  -1.894  -2.945  1.00  0.00    -0.454 OA
ATOM     13  O   UNL     1       9.580  -1.220  -2.556  1.00  0.00    -0.454 OA
ATOM     14  C   UNL     1       8.861  -2.267  -3.163  1.00  0.00     0.468 C 
ENDBRANCH   5   6
ENDBRANCH   1   5
TORSDOF 3
ENDMDL
MODEL 2
REMARK VINA RESULT:      -7.4      1.951      2.429
REMARK SMILES CC(=O)CCc1ccc2c(c1)OCO2
REMARK SMILES IDX 4 1 2 2 1 3 3 4 5 5 6 6 7 7 11 8 8 9 10 10 9 11 12 12 14 13
REMARK SMILES IDX 13 14
REMARK H PARENT
REMARK Flexibility Score: inf
ROOT
ATOM      1  C   UNL     1       5.785   1.345  -0.315  1.00  0.00     0.080 C 
ENDROOT
BRANCH   1   2
ATOM      2  C   UNL     1       5.142   1.286   1.028  1.00  0.00     0.130 C 
ATOM      3  C   UNL     1       5.425   0.179   1.980  1.00  0.00     0.087 C 
ATOM      4  O   UNL     1       4.359   2.150   1.387  1.00  0.00    -0.300 OA
ENDBRANCH   1   2
BRANCH   1   5
ATOM      5  C   UNL     1       7.273   1.071  -0.226  1.00  0.00     0.043 C 
BRANCH   5   6
ATOM      6  C   UNL     1       7.627  -0.224  -0.835  1.00  0.00    -0.044 A 
ATOM      7  C   UNL     1       7.658  -0.396  -2.224  1.00  0.00     0.008 A 
ATOM      8  C   UNL     1       7.940  -1.295  -0.029  1.00  0.00     0.054 A 
ATOM      9  C   UNL     1       7.998  -1.633  -2.739  1.00  0.00     0.051 A 
ATOM     10  C   UNL     1       8.284  -2.543  -0.555  1.00  0.00     0.166 A 
ATOM     11  C   UNL     1       8.313  -2.714  -1.922  1.00  0.00     0.165 A 
ATOM     12  O   UNL     1       8.629  -3.745   0.026  1.00  0.00    -0.454 OA
ATOM     13  O   UNL     1       8.681  -4.030  -2.153  1.00  0.00    -0.454 OA
ATOM     14  C   UNL     1       8.979  -4.694  -0.949  1.00  0.00     0.468 C 
ENDBRANCH   5   6
ENDBRANCH   1   5
TORSDOF 3
ENDMDL
MODEL 3
REMARK VINA RESULT:      -7.2      2.058      2.630
REMARK SMILES CC(=O)CCc1ccc2c(c1)OCO2
REMARK SMILES IDX 4 1 2 2 1 3 3 4 5 5 6 6 7 7 11 8 8 9 10 10 9 11 12 12 14 13
REMARK SMILES IDX 13 14
REMARK H PARENT
REMARK Flexibility Score: inf
ROOT
ATOM      1  C   UNL     1       5.411  -0.061   2.034  1.00  0.00     0.080 C 
ENDROOT
BRANCH   1   2
ATOM      2  C   UNL     1       4.556   1.130   1.770  1.00  0.00     0.130 C 
ATOM      3  C   UNL     1       4.894   2.114   0.707  1.00  0.00     0.087 C 
ATOM      4  O   UNL     1       3.546   1.335   2.425  1.00  0.00    -0.300 OA
ENDBRANCH   1   2
BRANCH   1   5
ATOM      5  C   UNL     1       6.847   0.190   1.620  1.00  0.00     0.043 C 
BRANCH   5   6
ATOM      6  C   UNL     1       7.277  -0.732   0.554  1.00  0.00    -0.044 A 
ATOM      7  C   UNL     1       7.158  -0.395  -0.800  1.00  0.00     0.008 A 
ATOM      8  C   UNL     1       7.812  -1.956   0.885  1.00  0.00     0.054 A 
ATOM      9  C   UNL     1       7.579  -1.301  -1.756  1.00  0.00     0.051 A 
ATOM     10  C   UNL     1       8.237  -2.868  -0.086  1.00  0.00     0.166 A 
ATOM     11  C   UNL     1       8.119  -2.538  -1.417  1.00  0.00     0.165 A 
ATOM     12  O   UNL     1       8.792  -4.128  -0.013  1.00  0.00    -0.454 OA
ATOM     13  O   UNL     1       8.611  -3.612  -2.142  1.00  0.00    -0.454 OA
ATOM     14  C   UNL     1       9.131  -4.604  -1.290  1.00  0.00     0.468 C 
ENDBRANCH   5   6
ENDBRANCH   1   5
TORSDOF 3
ENDMDL
MODEL 4
REMARK VINA RESULT:      -7.1      1.254      1.471
REMARK SMILES CC(=O)CCc1ccc2c(c1)OCO2
REMARK SMILES IDX 4 1 2 2 1 3 3 4 5 5 6 6 7 7 11 8 8 9 10 10 9 11 12 12 14 13
REMARK SMILES IDX 13 14
REMARK H PARENT
REMARK Flexibility Score: inf
ROOT
ATOM      1  C   UNL     1       6.364   1.231   0.881  1.00  0.00     0.080 C 
ENDROOT
BRANCH   1   2
ATOM      2  C   UNL     1       5.662   0.419   1.913  1.00  0.00     0.130 C 
ATOM      3  C   UNL     1       6.277  -0.802   2.498  1.00  0.00     0.087 C 
ATOM      4  O   UNL     1       4.552   0.736   2.312  1.00  0.00    -0.300 OA
ENDBRANCH   1   2
BRANCH   1   5
ATOM      5  C   UNL     1       5.853   0.914  -0.510  1.00  0.00     0.043 C 
BRANCH   5   6
ATOM      6  C   UNL     1       6.813   0.095  -1.271  1.00  0.00    -0.044 A 
ATOM      7  C   UNL     1       7.522   0.617  -2.359  1.00  0.00     0.008 A 
ATOM      8  C   UNL     1       7.027  -1.216  -0.911  1.00  0.00     0.054 A 
ATOM      9  C   UNL     1       8.410  -0.199  -3.036  1.00  0.00     0.051 A 
ATOM     10  C   UNL     1       7.927  -2.037  -1.598  1.00  0.00     0.166 A 
ATOM     11  C   UNL     1       8.624  -1.524  -2.669  1.00  0.00     0.165 A 
ATOM     12  O   UNL     1       8.310  -3.352  -1.438  1.00  0.00    -0.454 OA
ATOM     13  O   UNL     1       9.430  -2.545  -3.149  1.00  0.00    -0.454 OA
ATOM     14  C   UNL     1       9.329  -3.694  -2.342  1.00  0.00     0.468 C 
ENDBRANCH   5   6
ENDBRANCH   1   5
TORSDOF 3
ENDMDL
MODEL 5
REMARK VINA RESULT:      -7.0      1.947      2.490
REMARK SMILES CC(=O)CCc1ccc2c(c1)OCO2
REMARK SMILES IDX 4 1 2 2 1 3 3 4 5 5 6 6 7 7 11 8 8 9 10 10 9 11 12 12 14 13
REMARK SMILES IDX 13 14
REMARK H PARENT
REMARK Flexibility Score: inf
ROOT
ATOM      1  C   UNL     1       6.805   0.877   1.442  1.00  0.00     0.080 C 
ENDROOT
BRANCH   1   2
ATOM      2  C   UNL     1       5.351   1.199   1.461  1.00  0.00     0.130 C 
ATOM      3  C   UNL     1       4.749   2.150   0.489  1.00  0.00     0.087 C 
ATOM      4  O   UNL     1       4.606   0.687   2.281  1.00  0.00    -0.300 OA
ENDBRANCH   1   2
BRANCH   1   5
ATOM      5  C   UNL     1       7.402   1.106   0.068  1.00  0.00     0.043 C 
BRANCH   5   6
ATOM      6  C   UNL     1       7.688  -0.164  -0.623  1.00  0.00    -0.044 A 
ATOM      7  C   UNL     1       7.658  -0.262  -2.019  1.00  0.00     0.008 A 
ATOM      8  C   UNL     1       7.996  -1.286   0.112  1.00  0.00     0.054 A 
ATOM      9  C   UNL     1       7.936  -1.480  -2.612  1.00  0.00     0.051 A 
ATOM     10  C   UNL     1       8.277  -2.515  -0.492  1.00  0.00     0.166 A 
ATOM     11  C   UNL     1       8.247  -2.613  -1.865  1.00  0.00     0.165 A 
ATOM     12  O   UNL     1       8.605  -3.756   0.011  1.00  0.00    -0.454 OA
ATOM     13  O   UNL     1       8.560  -3.925  -2.180  1.00  0.00    -0.454 OA
ATOM     14  C   UNL     1       8.883  -4.662  -1.025  1.00  0.00     0.468 C 
ENDBRANCH   5   6
ENDBRANCH   1   5
TORSDOF 3
ENDMDL
