@<TRIPOS>MOLECULE
/home/cewinharhar/GITHUB/reincatalyze/data/processed/docking_pred/2023-May-22-2206_sub9_nm5_bs15_s42_ex16_mel10_mts10000_k50_ec02_g099_lra9e-4_lrc1e-3/b8d8050f43b71ccf975db7ed0a80e234855f027b_ligand_9.pdbqt
 14 15 0 0 0
SMALL
GASTEIGER

@<TRIPOS>ATOM
      1  C          6.3640    1.2310    0.8810 C.3     1  UNL1        0.0800
      2  C          5.6620    0.4190    1.9130 C.2     1  UNL1        0.1300
      3  C          6.2770   -0.8020    2.4980 C.3     1  UNL1        0.0870
      4  O          4.5520    0.7360    2.3120 O.2     1  UNL1       -0.3000
      5  C          5.8530    0.9140   -0.5100 C.3     1  UNL1        0.0430
      6  C          6.8130    0.0950   -1.2710 C.2     1  UNL1       -0.0440
      7  C          7.5220    0.6170   -2.3590 C.2     1  UNL1        0.0080
      8  C          7.0270   -1.2160   -0.9110 C.2     1  UNL1        0.0540
      9  C          8.4100   -0.1990   -3.0360 C.2     1  UNL1        0.0510
     10  C          7.9270   -2.0370   -1.5980 C.2     1  UNL1        0.1660
     11  C          8.6240   -1.5240   -2.6690 C.2     1  UNL1        0.1650
     12  O          8.3100   -3.3520   -1.4380 O.2     1  UNL1       -0.4540
     13  O          9.4300   -2.5450   -3.1490 O.2     1  UNL1       -0.4540
     14  C          9.3290   -3.6940   -2.3420 C.3     1  UNL1        0.4680
@<TRIPOS>BOND
     1    13    11    1
     2    13    14    1
     3     9    11    2
     4     9     7    1
     5    11    10    1
     6     7     6    2
     7    14    12    1
     8    10    12    1
     9    10     8    2
    10     6     8    1
    11     6     5    1
    12     5     1    1
    13     1     2    1
    14     2     4    2
    15     2     3    1
