@<TRIPOS>MOLECULE
/home/cewinharhar/GITHUB/reincatalyze/data/processed/docking_pred/2023-May-22-2206_sub9_nm5_bs15_s42_ex16_mel10_mts10000_k50_ec02_g099_lra9e-4_lrc1e-3/b8d8050f43b71ccf975db7ed0a80e234855f027b_ligand_9.pdbqt
 14 15 0 0 0
SMALL
GASTEIGER

@<TRIPOS>ATOM
      1  C          5.7850    1.3450   -0.3150 C.3     1  UNL1        0.0800
      2  C          5.1420    1.2860    1.0280 C.2     1  UNL1        0.1300
      3  C          5.4250    0.1790    1.9800 C.3     1  UNL1        0.0870
      4  O          4.3590    2.1500    1.3870 O.2     1  UNL1       -0.3000
      5  C          7.2730    1.0710   -0.2260 C.3     1  UNL1        0.0430
      6  C          7.6270   -0.2240   -0.8350 C.2     1  UNL1       -0.0440
      7  C          7.6580   -0.3960   -2.2240 C.2     1  UNL1        0.0080
      8  C          7.9400   -1.2950   -0.0290 C.2     1  UNL1        0.0540
      9  C          7.9980   -1.6330   -2.7390 C.2     1  UNL1        0.0510
     10  C          8.2840   -2.5430   -0.5550 C.2     1  UNL1        0.1660
     11  C          8.3130   -2.7140   -1.9220 C.2     1  UNL1        0.1650
     12  O          8.6290   -3.7450    0.0260 O.2     1  UNL1       -0.4540
     13  O          8.6810   -4.0300   -2.1530 O.2     1  UNL1       -0.4540
     14  C          8.9790   -4.6940   -0.9490 C.3     1  UNL1        0.4680
@<TRIPOS>BOND
     1     9     7    1
     2     9    11    2
     3     7     6    2
     4    13    11    1
     5    13    14    1
     6    11    10    1
     7    14    12    1
     8     6     5    1
     9     6     8    1
    10    10     8    2
    11    10    12    1
    12     1     5    1
    13     1     2    1
    14     2     4    2
    15     2     3    1
