@<TRIPOS>MOLECULE
/home/cewinharhar/GITHUB/reincatalyze/data/processed/docking_pred/2023-May-22-2206_sub9_nm5_bs15_s42_ex16_mel10_mts10000_k50_ec02_g099_lra9e-4_lrc1e-3/b96cff3dd76f6e411b830514c936223970a7489e_ligand_9.pdbqt
 14 15 0 0 0
SMALL
GASTEIGER

@<TRIPOS>ATOM
      1  C          5.7330    1.4360   -0.3050 C.3     1  UNL1        0.0800
      2  C          5.1530    1.2900    1.0590 C.2     1  UNL1        0.1300
      3  C          5.4350    0.0990    1.9040 C.3     1  UNL1        0.0870
      4  O          4.4230    2.1500    1.5250 O.2     1  UNL1       -0.3000
      5  C          7.2340    1.2210   -0.2900 C.3     1  UNL1        0.0430
      6  C          7.6070   -0.0690   -0.8970 C.2     1  UNL1       -0.0440
      7  C          7.6550   -0.2390   -2.2860 C.2     1  UNL1        0.0080
      8  C          7.9190   -1.1380   -0.0890 C.2     1  UNL1        0.0540
      9  C          8.0130   -1.4730   -2.7980 C.2     1  UNL1        0.0510
     10  C          8.2810   -2.3830   -0.6120 C.2     1  UNL1        0.1660
     11  C          8.3280   -2.5520   -1.9780 C.2     1  UNL1        0.1650
     12  O          8.6300   -3.5820   -0.0280 O.2     1  UNL1       -0.4540
     13  O          8.7100   -3.8640   -2.2060 O.2     1  UNL1       -0.4540
     14  C          8.9990   -4.5270   -0.9990 C.3     1  UNL1        0.4680
@<TRIPOS>BOND
     1     9     7    1
     2     9    11    2
     3     7     6    2
     4    13    11    1
     5    13    14    1
     6    11    10    1
     7    14    12    1
     8     6     5    1
     9     6     8    1
    10    10     8    2
    11    10    12    1
    12     1     5    1
    13     1     2    1
    14     2     4    2
    15     2     3    1
