@<TRIPOS>MOLECULE
/home/cewinharhar/GITHUB/reincatalyze/data/processed/docking_pred/2023-May-22-2206_sub9_nm5_bs15_s42_ex16_mel10_mts10000_k50_ec02_g099_lra9e-4_lrc1e-3/b96cff3dd76f6e411b830514c936223970a7489e_ligand_9.pdbqt
 14 15 0 0 0
SMALL
GASTEIGER

@<TRIPOS>ATOM
      1  C          6.3220    1.2810    0.8610 C.3     1  UNL1        0.0800
      2  C          5.6610    0.4620    1.9150 C.2     1  UNL1        0.1300
      3  C          6.3080   -0.7530    2.4800 C.3     1  UNL1        0.0870
      4  O          4.5610    0.7660    2.3480 O.2     1  UNL1       -0.3000
      5  C          5.8060    0.9220   -0.5190 C.3     1  UNL1        0.0430
      6  C          6.7820    0.1180   -1.2750 C.2     1  UNL1       -0.0440
      7  C          7.5090    0.6600   -2.3410 C.2     1  UNL1        0.0080
      8  C          6.9930   -1.1980   -0.9320 C.2     1  UNL1        0.0540
      9  C          8.4130   -0.1430   -3.0140 C.2     1  UNL1        0.0510
     10  C          7.9070   -2.0060   -1.6150 C.2     1  UNL1        0.1660
     11  C          8.6230   -1.4740   -2.6650 C.2     1  UNL1        0.1650
     12  O          8.2900   -3.3220   -1.4690 O.2     1  UNL1       -0.4540
     13  O          9.4400   -2.4850   -3.1460 O.2     1  UNL1       -0.4540
     14  C          9.3270   -3.6470   -2.3590 C.3     1  UNL1        0.4680
@<TRIPOS>BOND
     1    13    11    1
     2    13    14    1
     3     9    11    2
     4     9     7    1
     5    11    10    1
     6    14    12    1
     7     7     6    2
     8    10    12    1
     9    10     8    2
    10     6     8    1
    11     6     5    1
    12     5     1    1
    13     1     2    1
    14     2     4    2
    15     2     3    1
