@<TRIPOS>MOLECULE
/home/cewinharhar/GITHUB/reincatalyze/data/processed/docking_pred/2023-May-22-2206_sub9_nm5_bs15_s42_ex16_mel10_mts10000_k50_ec02_g099_lra9e-4_lrc1e-3/b99eeed02ad73e34178363463c07c25b6fbf2bee_ligand_9.pdbqt
 14 15 0 0 0
SMALL
GASTEIGER

@<TRIPOS>ATOM
      1  C          6.4080    1.1860    0.9530 C.3     1  UNL1        0.0800
      2  C          5.6670    0.3480    1.9360 C.2     1  UNL1        0.1300
      3  C          6.2600   -0.8890    2.5110 C.3     1  UNL1        0.0870
      4  O          4.5440    0.6560    2.3010 O.2     1  UNL1       -0.3000
      5  C          5.9080    0.9500   -0.4590 C.3     1  UNL1        0.0430
      6  C          6.8390    0.1140   -1.2360 C.2     1  UNL1       -0.0440
      7  C          7.5200    0.6160   -2.3510 C.2     1  UNL1        0.0080
      8  C          7.0550   -1.1940   -0.8640 C.2     1  UNL1        0.0540
      9  C          8.3820   -0.2150   -3.0420 C.2     1  UNL1        0.0510
     10  C          7.9280   -2.0300   -1.5650 C.2     1  UNL1        0.1660
     11  C          8.5970   -1.5370   -2.6630 C.2     1  UNL1        0.1650
     12  O          8.3070   -3.3450   -1.3990 O.2     1  UNL1       -0.4540
     13  O          9.3810   -2.5700   -3.1530 O.2     1  UNL1       -0.4540
     14  C          9.2970   -3.7070   -2.3270 C.3     1  UNL1        0.4680
@<TRIPOS>BOND
     1    13    11    1
     2    13    14    1
     3     9    11    2
     4     9     7    1
     5    11    10    1
     6     7     6    2
     7    14    12    1
     8    10    12    1
     9    10     8    2
    10     6     8    1
    11     6     5    1
    12     5     1    1
    13     1     2    1
    14     2     4    2
    15     2     3    1
