@<TRIPOS>MOLECULE
/home/cewinharhar/GITHUB/reincatalyze/data/processed/docking_pred/2023-May-22-2206_sub9_nm5_bs15_s42_ex16_mel10_mts10000_k50_ec02_g099_lra9e-4_lrc1e-3/ba254a63d1f23417312e0ffefa4719b754a9a4bf_ligand_9.pdbqt
 14 15 0 0 0
SMALL
GASTEIGER

@<TRIPOS>ATOM
      1  C          6.7060    0.5760    1.0860 C.3     1  UNL1        0.0800
      2  C          5.3400    1.0410    1.4530 C.2     1  UNL1        0.1300
      3  C          4.6700    2.1500    0.7220 C.3     1  UNL1        0.0870
      4  O          4.7260    0.5210    2.3710 O.2     1  UNL1       -0.3000
      5  C          6.9710    0.7580   -0.3960 C.3     1  UNL1        0.0430
      6  C          7.5030   -0.4700   -1.0110 C.2     1  UNL1       -0.0440
      7  C          7.7580   -0.5510   -2.3850 C.2     1  UNL1        0.0080
      8  C          7.7610   -1.5700   -0.2250 C.2     1  UNL1        0.0540
      9  C          8.2580   -1.7300   -2.9070 C.2     1  UNL1        0.0510
     10  C          8.2680   -2.7600   -0.7570 C.2     1  UNL1        0.1660
     11  C          8.5180   -2.8410   -2.1090 C.2     1  UNL1        0.1650
     12  O          8.6020   -3.9740   -0.1950 O.2     1  UNL1       -0.4540
     13  O          9.0070   -4.1150   -2.3510 O.2     1  UNL1       -0.4540
     14  C          9.1610   -4.8360   -1.1520 C.3     1  UNL1        0.4680
@<TRIPOS>BOND
     1     9     7    1
     2     9    11    2
     3     7     6    2
     4    13    11    1
     5    13    14    1
     6    11    10    1
     7    14    12    1
     8     6     5    1
     9     6     8    1
    10    10     8    2
    11    10    12    1
    12     5     1    1
    13     3     2    1
    14     1     2    1
    15     2     4    2
