MODEL 1
REMARK VINA RESULT:      -7.7      0.000      0.000
REMARK SMILES CC(=O)CCc1ccc2c(c1)OCO2
REMARK SMILES IDX 4 1 2 2 1 3 3 4 5 5 6 6 7 7 11 8 8 9 10 10 9 11 12 12 14 13
REMARK SMILES IDX 13 14
REMARK H PARENT
REMARK Flexibility Score: inf
ROOT
ATOM      1  C   UNL     1       5.509   1.926   1.249  1.00  0.00     0.080 C 
ENDROOT
BRANCH   1   2
ATOM      2  C   UNL     1       5.026   0.727   1.990  1.00  0.00     0.130 C 
ATOM      3  C   UNL     1       5.856  -0.500   2.116  1.00  0.00     0.087 C 
ATOM      4  O   UNL     1       3.925   0.718   2.518  1.00  0.00    -0.300 OA
ENDBRANCH   1   2
BRANCH   1   5
ATOM      5  C   UNL     1       5.390   1.731  -0.249  1.00  0.00     0.043 C 
BRANCH   5   6
ATOM      6  C   UNL     1       6.562   1.030  -0.804  1.00  0.00    -0.044 A 
ATOM      7  C   UNL     1       7.867   1.460  -0.540  1.00  0.00     0.008 A 
ATOM      8  C   UNL     1       6.379  -0.078  -1.600  1.00  0.00     0.054 A 
ATOM      9  C   UNL     1       8.928   0.762  -1.087  1.00  0.00     0.051 A 
ATOM     10  C   UNL     1       7.455  -0.781  -2.151  1.00  0.00     0.166 A 
ATOM     11  C   UNL     1       8.740  -0.358  -1.893  1.00  0.00     0.165 A 
ATOM     12  O   UNL     1       7.534  -1.894  -2.962  1.00  0.00    -0.454 OA
ATOM     13  O   UNL     1       9.590  -1.229  -2.556  1.00  0.00    -0.454 OA
ATOM     14  C   UNL     1       8.871  -2.271  -3.171  1.00  0.00     0.468 C 
ENDBRANCH   5   6
ENDBRANCH   1   5
TORSDOF 3
ENDMDL
MODEL 2
REMARK VINA RESULT:      -7.4      1.929      2.406
REMARK SMILES CC(=O)CCc1ccc2c(c1)OCO2
REMARK SMILES IDX 4 1 2 2 1 3 3 4 5 5 6 6 7 7 11 8 8 9 10 10 9 11 12 12 14 13
REMARK SMILES IDX 13 14
REMARK H PARENT
REMARK Flexibility Score: inf
ROOT
ATOM      1  C   UNL     1       5.745   1.254  -0.289  1.00  0.00     0.080 C 
ENDROOT
BRANCH   1   2
ATOM      2  C   UNL     1       5.232   1.216   1.109  1.00  0.00     0.130 C 
ATOM      3  C   UNL     1       5.471   0.047   1.997  1.00  0.00     0.087 C 
ATOM      4  O   UNL     1       4.595   2.150   1.568  1.00  0.00    -0.300 OA
ENDBRANCH   1   2
BRANCH   1   5
ATOM      5  C   UNL     1       7.250   1.077  -0.328  1.00  0.00     0.043 C 
BRANCH   5   6
ATOM      6  C   UNL     1       7.634  -0.218  -0.919  1.00  0.00    -0.044 A 
ATOM      7  C   UNL     1       7.694  -0.401  -2.305  1.00  0.00     0.008 A 
ATOM      8  C   UNL     1       7.944  -1.277  -0.097  1.00  0.00     0.054 A 
ATOM      9  C   UNL     1       8.061  -1.638  -2.803  1.00  0.00     0.051 A 
ATOM     10  C   UNL     1       8.315  -2.526  -0.605  1.00  0.00     0.166 A 
ATOM     11  C   UNL     1       8.374  -2.708  -1.969  1.00  0.00     0.165 A 
ATOM     12  O   UNL     1       8.664  -3.718  -0.007  1.00  0.00    -0.454 OA
ATOM     13  O   UNL     1       8.763  -4.021  -2.182  1.00  0.00    -0.454 OA
ATOM     14  C   UNL     1       9.045  -4.671  -0.966  1.00  0.00     0.468 C 
ENDBRANCH   5   6
ENDBRANCH   1   5
TORSDOF 3
ENDMDL
MODEL 3
REMARK VINA RESULT:      -7.3      2.059      2.632
REMARK SMILES CC(=O)CCc1ccc2c(c1)OCO2
REMARK SMILES IDX 4 1 2 2 1 3 3 4 5 5 6 6 7 7 11 8 8 9 10 10 9 11 12 12 14 13
REMARK SMILES IDX 13 14
REMARK H PARENT
REMARK Flexibility Score: inf
ROOT
ATOM      1  C   UNL     1       5.397  -0.074   2.048  1.00  0.00     0.080 C 
ENDROOT
BRANCH   1   2
ATOM      2  C   UNL     1       4.549   1.121   1.779  1.00  0.00     0.130 C 
ATOM      3  C   UNL     1       4.901   2.104   0.719  1.00  0.00     0.087 C 
ATOM      4  O   UNL     1       3.535   1.328   2.425  1.00  0.00    -0.300 OA
ENDBRANCH   1   2
BRANCH   1   5
ATOM      5  C   UNL     1       6.838   0.170   1.645  1.00  0.00     0.043 C 
BRANCH   5   6
ATOM      6  C   UNL     1       7.268  -0.744   0.572  1.00  0.00    -0.044 A 
ATOM      7  C   UNL     1       7.140  -0.401  -0.779  1.00  0.00     0.008 A 
ATOM      8  C   UNL     1       7.811  -1.967   0.895  1.00  0.00     0.054 A 
ATOM      9  C   UNL     1       7.562  -1.299  -1.742  1.00  0.00     0.051 A 
ATOM     10  C   UNL     1       8.237  -2.871  -0.083  1.00  0.00     0.166 A 
ATOM     11  C   UNL     1       8.111  -2.534  -1.412  1.00  0.00     0.165 A 
ATOM     12  O   UNL     1       8.800  -4.128  -0.019  1.00  0.00    -0.454 OA
ATOM     13  O   UNL     1       8.605  -3.602  -2.144  1.00  0.00    -0.454 OA
ATOM     14  C   UNL     1       9.136  -4.595  -1.300  1.00  0.00     0.468 C 
ENDBRANCH   5   6
ENDBRANCH   1   5
TORSDOF 3
ENDMDL
MODEL 4
REMARK VINA RESULT:      -7.1      1.254      1.461
REMARK SMILES CC(=O)CCc1ccc2c(c1)OCO2
REMARK SMILES IDX 4 1 2 2 1 3 3 4 5 5 6 6 7 7 11 8 8 9 10 10 9 11 12 12 14 13
REMARK SMILES IDX 13 14
REMARK H PARENT
REMARK Flexibility Score: inf
ROOT
ATOM      1  C   UNL     1       6.349   1.246   0.867  1.00  0.00     0.080 C 
ENDROOT
BRANCH   1   2
ATOM      2  C   UNL     1       5.661   0.434   1.909  1.00  0.00     0.130 C 
ATOM      3  C   UNL     1       6.279  -0.794   2.476  1.00  0.00     0.087 C 
ATOM      4  O   UNL     1       4.562   0.757   2.330  1.00  0.00    -0.300 OA
ENDBRANCH   1   2
BRANCH   1   5
ATOM      5  C   UNL     1       5.836   0.911  -0.520  1.00  0.00     0.043 C 
BRANCH   5   6
ATOM      6  C   UNL     1       6.803   0.097  -1.278  1.00  0.00    -0.044 A 
ATOM      7  C   UNL     1       7.520   0.628  -2.357  1.00  0.00     0.008 A 
ATOM      8  C   UNL     1       7.016  -1.215  -0.924  1.00  0.00     0.054 A 
ATOM      9  C   UNL     1       8.415  -0.183  -3.031  1.00  0.00     0.051 A 
ATOM     10  C   UNL     1       7.923  -2.031  -1.608  1.00  0.00     0.166 A 
ATOM     11  C   UNL     1       8.627  -1.510  -2.671  1.00  0.00     0.165 A 
ATOM     12  O   UNL     1       8.306  -3.346  -1.453  1.00  0.00    -0.454 OA
ATOM     13  O   UNL     1       9.438  -2.527  -3.151  1.00  0.00    -0.454 OA
ATOM     14  C   UNL     1       9.333  -3.681  -2.351  1.00  0.00     0.468 C 
ENDBRANCH   5   6
ENDBRANCH   1   5
TORSDOF 3
ENDMDL
MODEL 5
REMARK VINA RESULT:      -7.0      2.010      2.518
REMARK SMILES CC(=O)CCc1ccc2c(c1)OCO2
REMARK SMILES IDX 4 1 2 2 1 3 3 4 5 5 6 6 7 7 11 8 8 9 10 10 9 11 12 12 14 13
REMARK SMILES IDX 13 14
REMARK H PARENT
REMARK Flexibility Score: inf
ROOT
ATOM      1  C   UNL     1       6.867   0.870   1.447  1.00  0.00     0.080 C 
ENDROOT
BRANCH   1   2
ATOM      2  C   UNL     1       5.394   1.072   1.528  1.00  0.00     0.130 C 
ATOM      3  C   UNL     1       4.694   2.065   0.670  1.00  0.00     0.087 C 
ATOM      4  O   UNL     1       4.714   0.424   2.307  1.00  0.00    -0.300 OA
ENDBRANCH   1   2
BRANCH   1   5
ATOM      5  C   UNL     1       7.375   1.075   0.034  1.00  0.00     0.043 C 
BRANCH   5   6
ATOM      6  C   UNL     1       7.701  -0.204  -0.621  1.00  0.00    -0.044 A 
ATOM      7  C   UNL     1       7.725  -0.329  -2.015  1.00  0.00     0.008 A 
ATOM      8  C   UNL     1       7.995  -1.308   0.147  1.00  0.00     0.054 A 
ATOM      9  C   UNL     1       8.039  -1.554  -2.574  1.00  0.00     0.051 A 
ATOM     10  C   UNL     1       8.312  -2.544  -0.423  1.00  0.00     0.166 A 
ATOM     11  C   UNL     1       8.334  -2.669  -1.795  1.00  0.00     0.165 A 
ATOM     12  O   UNL     1       8.635  -3.772   0.115  1.00  0.00    -0.454 OA
ATOM     13  O   UNL     1       8.675  -3.983  -2.073  1.00  0.00    -0.454 OA
ATOM     14  C   UNL     1       8.963  -4.694  -0.892  1.00  0.00     0.468 C 
ENDBRANCH   5   6
ENDBRANCH   1   5
TORSDOF 3
ENDMDL
