@<TRIPOS>MOLECULE
/home/cewinharhar/GITHUB/reincatalyze/data/processed/docking_pred/2023-May-22-2206_sub9_nm5_bs15_s42_ex16_mel10_mts10000_k50_ec02_g099_lra9e-4_lrc1e-3/bb509c9d750c31c787a0dfaad7ceec12964b61ea_ligand_9.pdbqt
 14 15 0 0 0
SMALL
GASTEIGER

@<TRIPOS>ATOM
      1  C          5.6050    0.2540    2.5220 C.3     1  UNL1        0.0800
      2  C          4.4860    1.0800    1.9880 C.2     1  UNL1        0.1300
      3  C          4.6160    1.8400    0.7160 C.3     1  UNL1        0.0870
      4  O          3.4240    1.1560    2.5830 O.2     1  UNL1       -0.3000
      5  C          5.7410   -1.0490    1.7590 C.3     1  UNL1        0.0430
      6  C          6.7650   -0.9600    0.7040 C.2     1  UNL1       -0.0440
      7  C          8.0150   -0.3770    0.9430 C.2     1  UNL1        0.0080
      8  C          6.4980   -1.4600   -0.5500 C.2     1  UNL1        0.0540
      9  C          8.9380   -0.3220   -0.0860 C.2     1  UNL1        0.0510
     10  C          7.4340   -1.4030   -1.5870 C.2     1  UNL1        0.1660
     11  C          8.6640   -0.8290   -1.3530 C.2     1  UNL1        0.1650
     12  O          7.4090   -1.8220   -2.9000 O.2     1  UNL1       -0.4540
     13  O          9.3760   -0.9100   -2.5390 O.2     1  UNL1       -0.4540
     14  C          8.6520   -1.6130   -3.5200 C.3     1  UNL1        0.4680
@<TRIPOS>BOND
     1    14    12    1
     2    14    13    1
     3    12    10    1
     4    13    11    1
     5    10    11    2
     6    10     8    1
     7    11     9    1
     8     8     6    2
     9     9     7    2
    10     6     7    1
    11     6     5    1
    12     3     2    1
    13     5     1    1
    14     2     1    1
    15     2     4    2
