@<TRIPOS>MOLECULE
/home/cewinharhar/GITHUB/reincatalyze/data/processed/docking_pred/2023-May-22-2206_sub9_nm5_bs15_s42_ex16_mel10_mts10000_k50_ec02_g099_lra9e-4_lrc1e-3/bb509c9d750c31c787a0dfaad7ceec12964b61ea_ligand_9.pdbqt
 14 15 0 0 0
SMALL
GASTEIGER

@<TRIPOS>ATOM
      1  C          5.2900   -0.1550    2.3060 C.3     1  UNL1        0.0800
      2  C          4.3700    0.9680    1.9710 C.2     1  UNL1        0.1300
      3  C          4.6390    1.8840    0.8310 C.3     1  UNL1        0.0870
      4  O          3.3620    1.1680    2.6290 O.2     1  UNL1       -0.3000
      5  C          6.7260    0.1880    1.9590 C.3     1  UNL1        0.0430
      6  C          7.2690   -0.7140    0.9270 C.2     1  UNL1       -0.0440
      7  C          7.5640   -2.0530    1.2060 C.2     1  UNL1        0.0080
      8  C          7.4920   -0.2390   -0.3450 C.2     1  UNL1        0.0540
      9  C          8.0710   -2.8520    0.1980 C.2     1  UNL1        0.0510
     10  C          8.0050   -1.0510   -1.3610 C.2     1  UNL1        0.1660
     11  C          8.2970   -2.3690   -1.0870 C.2     1  UNL1        0.1650
     12  O          8.3120   -0.8190   -2.6850 O.2     1  UNL1       -0.4540
     13  O          8.7810   -2.9240   -2.2610 O.2     1  UNL1       -0.4540
     14  C          8.7220   -2.0010   -3.3220 C.3     1  UNL1        0.4680
@<TRIPOS>BOND
     1    14    12    1
     2    14    13    1
     3    12    10    1
     4    13    11    1
     5    10    11    2
     6    10     8    1
     7    11     9    1
     8     8     6    2
     9     9     7    2
    10     3     2    1
    11     6     7    1
    12     6     5    1
    13     5     1    1
    14     2     1    1
    15     2     4    2
