@<TRIPOS>MOLECULE
/home/cewinharhar/GITHUB/reincatalyze/data/processed/docking_pred/2023-May-22-2206_sub9_nm5_bs15_s42_ex16_mel10_mts10000_k50_ec02_g099_lra9e-4_lrc1e-3/bb509c9d750c31c787a0dfaad7ceec12964b61ea_ligand_9.pdbqt
 14 15 0 0 0
SMALL
GASTEIGER

@<TRIPOS>ATOM
      1  C          8.7820   -3.9480   -0.3720 C.3     1  UNL1        0.0800
      2  C          9.3020   -4.8480   -1.4390 C.2     1  UNL1        0.1300
      3  C          8.8940   -6.2750   -1.5250 C.3     1  UNL1        0.0870
      4  O         10.0850   -4.4350   -2.2800 O.2     1  UNL1       -0.3000
      5  C          8.3330   -2.6180   -0.9430 C.3     1  UNL1        0.0430
      6  C          7.4980   -1.8670    0.0110 C.2     1  UNL1       -0.0440
      7  C          7.4160   -2.2330    1.3590 C.2     1  UNL1        0.0080
      8  C          6.7780   -0.7770   -0.4230 C.2     1  UNL1        0.0540
      9  C          6.6170   -1.4900    2.2090 C.2     1  UNL1        0.0510
     10  C          5.9710   -0.0300    0.4400 C.2     1  UNL1        0.1660
     11  C          5.8890   -0.3890    1.7660 C.2     1  UNL1        0.1650
     12  O          5.1700    1.0770    0.2540 O.2     1  UNL1       -0.4540
     13  O          5.0320    0.5140    2.3750 O.2     1  UNL1       -0.4540
     14  C          4.6240    1.5150    1.4720 C.3     1  UNL1        0.4680
@<TRIPOS>BOND
     1     4     2    2
     2     3     2    1
     3     2     1    1
     4     5     1    1
     5     5     6    1
     6     8     6    2
     7     8    10    1
     8     6     7    1
     9    12    10    1
    10    12    14    1
    11    10    11    2
    12     7     9    2
    13    14    13    1
    14    11     9    1
    15    11    13    1
