@<TRIPOS>MOLECULE
/home/cewinharhar/GITHUB/reincatalyze/data/processed/docking_pred/2023-May-22-2206_sub9_nm5_bs15_s42_ex16_mel10_mts10000_k50_ec02_g099_lra9e-4_lrc1e-3/bb8285001221c2ec88d34c7e342a921234d5c761_ligand_9.pdbqt
 14 15 0 0 0
SMALL
GASTEIGER

@<TRIPOS>ATOM
      1  C          6.9010    0.9400    1.3350 C.3     1  UNL1        0.0800
      2  C          5.4350    1.1430    1.5090 C.2     1  UNL1        0.1300
      3  C          4.6860    2.1500    0.7110 C.3     1  UNL1        0.0870
      4  O          4.8040    0.4840    2.3190 O.2     1  UNL1       -0.3000
      5  C          7.3110    1.1110   -0.1150 C.3     1  UNL1        0.0430
      6  C          7.6150   -0.1820   -0.7530 C.2     1  UNL1       -0.0440
      7  C          7.5620   -0.3440   -2.1420 C.2     1  UNL1        0.0080
      8  C          7.9630   -1.2620    0.0260 C.2     1  UNL1        0.0540
      9  C          7.8580   -1.5810   -2.6850 C.2     1  UNL1        0.0510
     10  C          8.2620   -2.5100   -0.5280 C.2     1  UNL1        0.1660
     11  C          8.2090   -2.6710   -1.8950 C.2     1  UNL1        0.1650
     12  O          8.6280   -3.7200    0.0240 O.2     1  UNL1       -0.4540
     13  O          8.5480   -3.9890   -2.1570 O.2     1  UNL1       -0.4540
     14  C          8.9100   -4.6650   -0.9760 C.3     1  UNL1        0.4680
@<TRIPOS>BOND
     1     9     7    1
     2     9    11    2
     3    13    11    1
     4    13    14    1
     5     7     6    2
     6    11    10    1
     7    14    12    1
     8     6     5    1
     9     6     8    1
    10    10    12    1
    11    10     8    2
    12     5     1    1
    13     3     2    1
    14     1     2    1
    15     2     4    2
