@<TRIPOS>MOLECULE
/home/cewinharhar/GITHUB/reincatalyze/data/processed/docking_pred/2023-May-22-2206_sub9_nm5_bs15_s42_ex16_mel10_mts10000_k50_ec02_g099_lra9e-4_lrc1e-3/bde4f716ac8ce10fa2b7126593b1b8cc9fcb83f2_ligand_9.pdbqt
 14 15 0 0 0
SMALL
GASTEIGER

@<TRIPOS>ATOM
      1  C          5.4930    1.9330    1.2440 C.3     1  UNL1        0.0800
      2  C          5.0550    0.7220    1.9920 C.2     1  UNL1        0.1300
      3  C          5.9380   -0.4660    2.1410 C.3     1  UNL1        0.0870
      4  O          3.9500    0.6690    2.5080 O.2     1  UNL1       -0.3000
      5  C          5.3740    1.7280   -0.2530 C.3     1  UNL1        0.0430
      6  C          6.5490    1.0300   -0.8050 C.2     1  UNL1       -0.0440
      7  C          7.8520    1.4640   -0.5360 C.2     1  UNL1        0.0080
      8  C          6.3720   -0.0770   -1.6030 C.2     1  UNL1        0.0540
      9  C          8.9160    0.7690   -1.0810 C.2     1  UNL1        0.0510
     10  C          7.4510   -0.7770   -2.1500 C.2     1  UNL1        0.1660
     11  C          8.7340   -0.3500   -1.8880 C.2     1  UNL1        0.1650
     12  O          7.5360   -1.8880   -2.9620 O.2     1  UNL1       -0.4540
     13  O          9.5890   -1.2180   -2.5490 O.2     1  UNL1       -0.4540
     14  C          8.8750   -2.2610   -3.1680 C.3     1  UNL1        0.4680
@<TRIPOS>BOND
     1    14    12    1
     2    14    13    1
     3    12    10    1
     4    13    11    1
     5    10    11    2
     6    10     8    1
     7    11     9    1
     8     8     6    2
     9     9     7    2
    10     6     7    1
    11     6     5    1
    12     5     1    1
    13     1     2    1
    14     2     3    1
    15     2     4    2
