@<TRIPOS>MOLECULE
/home/cewinharhar/GITHUB/reincatalyze/data/processed/docking_pred/2023-May-22-2206_sub9_nm5_bs15_s42_ex16_mel10_mts10000_k50_ec02_g099_lra9e-4_lrc1e-3/bdfc35a41e3d78d3bf59a6b88613069133e00868_ligand_9.pdbqt
 14 15 0 0 0
SMALL
GASTEIGER

@<TRIPOS>ATOM
      1  C          6.3870    1.1890    0.9470 C.3     1  UNL1        0.0800
      2  C          5.6490    0.3750    1.9530 C.2     1  UNL1        0.1300
      3  C          6.2400   -0.8530    2.5480 C.3     1  UNL1        0.0870
      4  O          4.5290    0.6940    2.3180 O.2     1  UNL1       -0.3000
      5  C          5.8760    0.9270   -0.4560 C.3     1  UNL1        0.0430
      6  C          6.8150    0.0990   -1.2330 C.2     1  UNL1       -0.0440
      7  C          7.4790    0.6020   -2.3570 C.2     1  UNL1        0.0080
      8  C          7.0530   -1.2020   -0.8520 C.2     1  UNL1        0.0540
      9  C          8.3500   -0.2210   -3.0470 C.2     1  UNL1        0.0510
     10  C          7.9350   -2.0310   -1.5530 C.2     1  UNL1        0.1660
     11  C          8.5880   -1.5360   -2.6590 C.2     1  UNL1        0.1650
     12  O          8.3340   -3.3390   -1.3780 O.2     1  UNL1       -0.4540
     13  O          9.3840   -2.5610   -3.1460 O.2     1  UNL1       -0.4540
     14  C          9.3230   -3.6930   -2.3110 C.3     1  UNL1        0.4680
@<TRIPOS>BOND
     1    13    11    1
     2    13    14    1
     3     9    11    2
     4     9     7    1
     5    11    10    1
     6     7     6    2
     7    14    12    1
     8    10    12    1
     9    10     8    2
    10     6     8    1
    11     6     5    1
    12     5     1    1
    13     1     2    1
    14     2     4    2
    15     2     3    1
