@<TRIPOS>MOLECULE
/home/cewinharhar/GITHUB/reincatalyze/data/processed/docking_pred/2023-May-22-2206_sub9_nm5_bs15_s42_ex16_mel10_mts10000_k50_ec02_g099_lra9e-4_lrc1e-3/bdfc35a41e3d78d3bf59a6b88613069133e00868_ligand_9.pdbqt
 14 15 0 0 0
SMALL
GASTEIGER

@<TRIPOS>ATOM
      1  C          6.8270    0.6920    1.0060 C.3     1  UNL1        0.0800
      2  C          5.4490    1.1260    1.3670 C.2     1  UNL1        0.1300
      3  C          4.7190    2.1500    0.5720 C.3     1  UNL1        0.0870
      4  O          4.8750    0.6510    2.3340 O.2     1  UNL1       -0.3000
      5  C          7.0620    0.7920   -0.4880 C.3     1  UNL1        0.0430
      6  C          7.5790   -0.4710   -1.0450 C.2     1  UNL1       -0.0440
      7  C          7.8720   -0.6060   -2.4070 C.2     1  UNL1        0.0080
      8  C          7.7840   -1.5500   -0.2150 C.2     1  UNL1        0.0540
      9  C          8.3550   -1.8150   -2.8730 C.2     1  UNL1        0.0510
     10  C          8.2730   -2.7700   -0.6910 C.2     1  UNL1        0.1660
     11  C          8.5600   -2.9040   -2.0310 C.2     1  UNL1        0.1650
     12  O          8.5570   -3.9720   -0.0780 O.2     1  UNL1       -0.4540
     13  O          9.0210   -4.1980   -2.2150 O.2     1  UNL1       -0.4540
     14  C          9.1210   -4.8810   -0.9880 C.3     1  UNL1        0.4680
@<TRIPOS>BOND
     1     9     7    1
     2     9    11    2
     3     7     6    2
     4    13    11    1
     5    13    14    1
     6    11    10    1
     7     6     5    1
     8     6     8    1
     9    14    12    1
    10    10     8    2
    11    10    12    1
    12     5     1    1
    13     3     2    1
    14     1     2    1
    15     2     4    2
