MODEL 1
REMARK VINA RESULT:      -7.7      0.000      0.000
REMARK SMILES CC(=O)CCc1ccc2c(c1)OCO2
REMARK SMILES IDX 4 1 2 2 1 3 3 4 5 5 6 6 7 7 11 8 8 9 10 10 9 11 12 12 14 13
REMARK SMILES IDX 13 14
REMARK H PARENT
REMARK Flexibility Score: inf
ROOT
ATOM      1  C   UNL     1       5.502   1.939   1.253  1.00  0.00     0.080 C 
ENDROOT
BRANCH   1   2
ATOM      2  C   UNL     1       5.075   0.721   1.998  1.00  0.00     0.130 C 
ATOM      3  C   UNL     1       5.979  -0.448   2.166  1.00  0.00     0.087 C 
ATOM      4  O   UNL     1       3.962   0.648   2.494  1.00  0.00    -0.300 OA
ENDBRANCH   1   2
BRANCH   1   5
ATOM      5  C   UNL     1       5.380   1.739  -0.245  1.00  0.00     0.043 C 
BRANCH   5   6
ATOM      6  C   UNL     1       6.551   1.036  -0.799  1.00  0.00    -0.044 A 
ATOM      7  C   UNL     1       7.857   1.464  -0.533  1.00  0.00     0.008 A 
ATOM      8  C   UNL     1       6.368  -0.070  -1.597  1.00  0.00     0.054 A 
ATOM      9  C   UNL     1       8.917   0.765  -1.080  1.00  0.00     0.051 A 
ATOM     10  C   UNL     1       7.443  -0.774  -2.147  1.00  0.00     0.166 A 
ATOM     11  C   UNL     1       8.728  -0.353  -1.886  1.00  0.00     0.165 A 
ATOM     12  O   UNL     1       7.522  -1.886  -2.959  1.00  0.00    -0.454 OA
ATOM     13  O   UNL     1       9.578  -1.224  -2.550  1.00  0.00    -0.454 OA
ATOM     14  C   UNL     1       8.859  -2.264  -3.167  1.00  0.00     0.468 C 
ENDBRANCH   5   6
ENDBRANCH   1   5
TORSDOF 3
ENDMDL
MODEL 2
REMARK VINA RESULT:      -7.4      1.932      2.411
REMARK SMILES CC(=O)CCc1ccc2c(c1)OCO2
REMARK SMILES IDX 4 1 2 2 1 3 3 4 5 5 6 6 7 7 11 8 8 9 10 10 9 11 12 12 14 13
REMARK SMILES IDX 13 14
REMARK H PARENT
REMARK Flexibility Score: inf
ROOT
ATOM      1  C   UNL     1       5.753   1.335  -0.287  1.00  0.00     0.080 C 
ENDROOT
BRANCH   1   2
ATOM      2  C   UNL     1       5.162   1.245   1.077  1.00  0.00     0.130 C 
ATOM      3  C   UNL     1       5.381   0.059   1.947  1.00  0.00     0.087 C 
ATOM      4  O   UNL     1       4.475   2.150   1.523  1.00  0.00    -0.300 OA
ENDBRANCH   1   2
BRANCH   1   5
ATOM      5  C   UNL     1       7.248   1.082  -0.256  1.00  0.00     0.043 C 
BRANCH   5   6
ATOM      6  C   UNL     1       7.596  -0.213  -0.869  1.00  0.00    -0.044 A 
ATOM      7  C   UNL     1       7.614  -0.385  -2.257  1.00  0.00     0.008 A 
ATOM      8  C   UNL     1       7.914  -1.284  -0.065  1.00  0.00     0.054 A 
ATOM      9  C   UNL     1       7.949  -1.623  -2.775  1.00  0.00     0.051 A 
ATOM     10  C   UNL     1       8.253  -2.533  -0.594  1.00  0.00     0.166 A 
ATOM     11  C   UNL     1       8.270  -2.704  -1.960  1.00  0.00     0.165 A 
ATOM     12  O   UNL     1       8.602  -3.735  -0.015  1.00  0.00    -0.454 OA
ATOM     13  O   UNL     1       8.634  -4.021  -2.194  1.00  0.00    -0.454 OA
ATOM     14  C   UNL     1       8.943  -4.685  -0.992  1.00  0.00     0.468 C 
ENDBRANCH   5   6
ENDBRANCH   1   5
TORSDOF 3
ENDMDL
MODEL 3
REMARK VINA RESULT:      -7.2      2.092      2.634
REMARK SMILES CC(=O)CCc1ccc2c(c1)OCO2
REMARK SMILES IDX 4 1 2 2 1 3 3 4 5 5 6 6 7 7 11 8 8 9 10 10 9 11 12 12 14 13
REMARK SMILES IDX 13 14
REMARK H PARENT
REMARK Flexibility Score: inf
ROOT
ATOM      1  C   UNL     1       5.546  -0.008   1.951  1.00  0.00     0.080 C 
ENDROOT
BRANCH   1   2
ATOM      2  C   UNL     1       4.660   1.150   1.645  1.00  0.00     0.130 C 
ATOM      3  C   UNL     1       4.953   2.082   0.523  1.00  0.00     0.087 C 
ATOM      4  O   UNL     1       3.662   1.369   2.312  1.00  0.00    -0.300 OA
ENDBRANCH   1   2
BRANCH   1   5
ATOM      5  C   UNL     1       6.965   0.245   1.481  1.00  0.00     0.043 C 
BRANCH   5   6
ATOM      6  C   UNL     1       7.374  -0.714   0.439  1.00  0.00    -0.044 A 
ATOM      7  C   UNL     1       7.272  -0.406  -0.922  1.00  0.00     0.008 A 
ATOM      8  C   UNL     1       7.873  -1.944   0.803  1.00  0.00     0.054 A 
ATOM      9  C   UNL     1       7.672  -1.345  -1.855  1.00  0.00     0.051 A 
ATOM     10  C   UNL     1       8.277  -2.890  -0.144  1.00  0.00     0.166 A 
ATOM     11  C   UNL     1       8.176  -2.588  -1.484  1.00  0.00     0.165 A 
ATOM     12  O   UNL     1       8.797  -4.163  -0.038  1.00  0.00    -0.454 OA
ATOM     13  O   UNL     1       8.641  -3.693  -2.180  1.00  0.00    -0.454 OA
ATOM     14  C   UNL     1       9.130  -4.678  -1.302  1.00  0.00     0.468 C 
ENDBRANCH   5   6
ENDBRANCH   1   5
TORSDOF 3
ENDMDL
MODEL 4
REMARK VINA RESULT:      -7.1      1.270      1.488
REMARK SMILES CC(=O)CCc1ccc2c(c1)OCO2
REMARK SMILES IDX 4 1 2 2 1 3 3 4 5 5 6 6 7 7 11 8 8 9 10 10 9 11 12 12 14 13
REMARK SMILES IDX 13 14
REMARK H PARENT
REMARK Flexibility Score: inf
ROOT
ATOM      1  C   UNL     1       6.376   1.167   0.966  1.00  0.00     0.080 C 
ENDROOT
BRANCH   1   2
ATOM      2  C   UNL     1       5.665   0.331   1.972  1.00  0.00     0.130 C 
ATOM      3  C   UNL     1       6.277  -0.902   2.536  1.00  0.00     0.087 C 
ATOM      4  O   UNL     1       4.551   0.637   2.366  1.00  0.00    -0.300 OA
ENDBRANCH   1   2
BRANCH   1   5
ATOM      5  C   UNL     1       5.859   0.902  -0.434  1.00  0.00     0.043 C 
BRANCH   5   6
ATOM      6  C   UNL     1       6.801   0.085  -1.220  1.00  0.00    -0.044 A 
ATOM      7  C   UNL     1       7.463   0.601  -2.339  1.00  0.00     0.008 A 
ATOM      8  C   UNL     1       7.045  -1.219  -0.850  1.00  0.00     0.054 A 
ATOM      9  C   UNL     1       8.337  -0.213  -3.037  1.00  0.00     0.051 A 
ATOM     10  C   UNL     1       7.930  -2.037  -1.559  1.00  0.00     0.166 A 
ATOM     11  C   UNL     1       8.581  -1.530  -2.661  1.00  0.00     0.165 A 
ATOM     12  O   UNL     1       8.335  -3.345  -1.396  1.00  0.00    -0.454 OA
ATOM     13  O   UNL     1       9.381  -2.547  -3.157  1.00  0.00    -0.454 OA
ATOM     14  C   UNL     1       9.325  -3.686  -2.332  1.00  0.00     0.468 C 
ENDBRANCH   5   6
ENDBRANCH   1   5
TORSDOF 3
ENDMDL
MODEL 5
REMARK VINA RESULT:      -6.8      1.188      5.163
REMARK SMILES CC(=O)CCc1ccc2c(c1)OCO2
REMARK SMILES IDX 4 1 2 2 1 3 3 4 5 5 6 6 7 7 11 8 8 9 10 10 9 11 12 12 14 13
REMARK SMILES IDX 13 14
REMARK H PARENT
REMARK Flexibility Score: inf
ROOT
ATOM      1  C   UNL     1       8.340   0.216  -2.643  1.00  0.00     0.080 C 
ENDROOT
BRANCH   1   2
ATOM      2  C   UNL     1       8.026  -1.237  -2.735  1.00  0.00     0.130 C 
ATOM      3  C   UNL     1       9.077  -2.246  -3.033  1.00  0.00     0.087 C 
ATOM      4  O   UNL     1       6.887  -1.644  -2.568  1.00  0.00    -0.300 OA
ENDBRANCH   1   2
BRANCH   1   5
ATOM      5  C   UNL     1       8.857   0.580  -1.265  1.00  0.00     0.043 C 
BRANCH   5   6
ATOM      6  C   UNL     1       7.814   0.434  -0.234  1.00  0.00    -0.044 A 
ATOM      7  C   UNL     1       7.909  -0.534   0.772  1.00  0.00     0.008 A 
ATOM      8  C   UNL     1       6.718   1.267  -0.249  1.00  0.00     0.054 A 
ATOM      9  C   UNL     1       6.900  -0.624   1.714  1.00  0.00     0.051 A 
ATOM     10  C   UNL     1       5.701   1.172   0.706  1.00  0.00     0.166 A 
ATOM     11  C   UNL     1       5.793   0.219   1.695  1.00  0.00     0.165 A 
ATOM     12  O   UNL     1       4.529   1.871   0.902  1.00  0.00    -0.454 OA
ATOM     13  O   UNL     1       4.664   0.354   2.487  1.00  0.00    -0.454 OA
ATOM     14  C   UNL     1       3.881   1.448   2.074  1.00  0.00     0.468 C 
ENDBRANCH   5   6
ENDBRANCH   1   5
TORSDOF 3
ENDMDL
