@<TRIPOS>MOLECULE
/home/cewinharhar/GITHUB/reincatalyze/data/processed/docking_pred/2023-May-22-2206_sub9_nm5_bs15_s42_ex16_mel10_mts10000_k50_ec02_g099_lra9e-4_lrc1e-3/be159ddb300952c005bf82764a5ce22912cca304_ligand_9.pdbqt
 14 15 0 0 0
SMALL
GASTEIGER

@<TRIPOS>ATOM
      1  C          5.5460   -0.0080    1.9510 C.3     1  UNL1        0.0800
      2  C          4.6600    1.1500    1.6450 C.2     1  UNL1        0.1300
      3  C          4.9530    2.0820    0.5230 C.3     1  UNL1        0.0870
      4  O          3.6620    1.3690    2.3120 O.2     1  UNL1       -0.3000
      5  C          6.9650    0.2450    1.4810 C.3     1  UNL1        0.0430
      6  C          7.3740   -0.7140    0.4390 C.2     1  UNL1       -0.0440
      7  C          7.2720   -0.4060   -0.9220 C.2     1  UNL1        0.0080
      8  C          7.8730   -1.9440    0.8030 C.2     1  UNL1        0.0540
      9  C          7.6720   -1.3450   -1.8550 C.2     1  UNL1        0.0510
     10  C          8.2770   -2.8900   -0.1440 C.2     1  UNL1        0.1660
     11  C          8.1760   -2.5880   -1.4840 C.2     1  UNL1        0.1650
     12  O          8.7970   -4.1630   -0.0380 O.2     1  UNL1       -0.4540
     13  O          8.6410   -3.6930   -2.1800 O.2     1  UNL1       -0.4540
     14  C          9.1300   -4.6780   -1.3020 C.3     1  UNL1        0.4680
@<TRIPOS>BOND
     1    13    11    1
     2    13    14    1
     3     9    11    2
     4     9     7    1
     5    11    10    1
     6    14    12    1
     7     7     6    2
     8    10    12    1
     9    10     8    2
    10     6     8    1
    11     6     5    1
    12     3     2    1
    13     5     1    1
    14     2     1    1
    15     2     4    2
