@<TRIPOS>MOLECULE
/home/cewinharhar/GITHUB/reincatalyze/data/processed/docking_pred/2023-May-22-2206_sub9_nm5_bs15_s42_ex16_mel10_mts10000_k50_ec02_g099_lra9e-4_lrc1e-3/be159ddb300952c005bf82764a5ce22912cca304_ligand_9.pdbqt
 14 15 0 0 0
SMALL
GASTEIGER

@<TRIPOS>ATOM
      1  C          5.7530    1.3350   -0.2870 C.3     1  UNL1        0.0800
      2  C          5.1620    1.2450    1.0770 C.2     1  UNL1        0.1300
      3  C          5.3810    0.0590    1.9470 C.3     1  UNL1        0.0870
      4  O          4.4750    2.1500    1.5230 O.2     1  UNL1       -0.3000
      5  C          7.2480    1.0820   -0.2560 C.3     1  UNL1        0.0430
      6  C          7.5960   -0.2130   -0.8690 C.2     1  UNL1       -0.0440
      7  C          7.6140   -0.3850   -2.2570 C.2     1  UNL1        0.0080
      8  C          7.9140   -1.2840   -0.0650 C.2     1  UNL1        0.0540
      9  C          7.9490   -1.6230   -2.7750 C.2     1  UNL1        0.0510
     10  C          8.2530   -2.5330   -0.5940 C.2     1  UNL1        0.1660
     11  C          8.2700   -2.7040   -1.9600 C.2     1  UNL1        0.1650
     12  O          8.6020   -3.7350   -0.0150 O.2     1  UNL1       -0.4540
     13  O          8.6340   -4.0210   -2.1940 O.2     1  UNL1       -0.4540
     14  C          8.9430   -4.6850   -0.9920 C.3     1  UNL1        0.4680
@<TRIPOS>BOND
     1     9     7    1
     2     9    11    2
     3     7     6    2
     4    13    11    1
     5    13    14    1
     6    11    10    1
     7    14    12    1
     8     6     5    1
     9     6     8    1
    10    10     8    2
    11    10    12    1
    12     1     5    1
    13     1     2    1
    14     2     4    2
    15     2     3    1
