@<TRIPOS>MOLECULE
/home/cewinharhar/GITHUB/reincatalyze/data/processed/docking_pred/2023-May-22-2206_sub9_nm5_bs15_s42_ex16_mel10_mts10000_k50_ec02_g099_lra9e-4_lrc1e-3/c00c8b20774af87dd702fd508d588995eeb45aaa_ligand_9.pdbqt
 14 15 0 0 0
SMALL
GASTEIGER

@<TRIPOS>ATOM
      1  C          5.4760    1.7250    0.0910 C.3     1  UNL1        0.0800
      2  C          4.8560    1.2650    1.3640 C.2     1  UNL1        0.1300
      3  C          5.3920    0.0990    2.1170 C.3     1  UNL1        0.0870
      4  O          3.8830    1.8360    1.8290 O.2     1  UNL1       -0.3000
      5  C          6.9690    1.4640    0.0790 C.3     1  UNL1        0.0430
      6  C          7.3060    0.2560   -0.6960 C.2     1  UNL1       -0.0440
      7  C          7.1880    0.2240   -2.0900 C.2     1  UNL1        0.0080
      8  C          7.7510   -0.8710   -0.0440 C.2     1  UNL1        0.0540
      9  C          7.5200   -0.9380   -2.7650 C.2     1  UNL1        0.0510
     10  C          8.0860   -2.0420   -0.7300 C.2     1  UNL1        0.1660
     11  C          7.9690   -2.0760   -2.1020 C.2     1  UNL1        0.1650
     12  O          8.5430   -3.2760   -0.3170 O.2     1  UNL1       -0.4540
     13  O          8.3620   -3.3420   -2.5070 O.2     1  UNL1       -0.4540
     14  C          8.8200   -4.1050   -1.4160 C.3     1  UNL1        0.4680
@<TRIPOS>BOND
     1     9    11    2
     2     9     7    1
     3    13    11    1
     4    13    14    1
     5    11    10    1
     6     7     6    2
     7    14    12    1
     8    10    12    1
     9    10     8    2
    10     6     8    1
    11     6     5    1
    12     5     1    1
    13     1     2    1
    14     2     4    2
    15     2     3    1
