MODEL 1
REMARK VINA RESULT:      -7.7      0.000      0.000
REMARK SMILES CC(=O)CCc1ccc2c(c1)OCO2
REMARK SMILES IDX 4 1 2 2 1 3 3 4 5 5 6 6 7 7 11 8 8 9 10 10 9 11 12 12 14 13
REMARK SMILES IDX 13 14
REMARK H PARENT
REMARK Flexibility Score: inf
ROOT
ATOM      1  C   UNL     1       5.565   1.870   1.311  1.00  0.00     0.080 C 
ENDROOT
BRANCH   1   2
ATOM      2  C   UNL     1       5.115   0.647   2.033  1.00  0.00     0.130 C 
ATOM      3  C   UNL     1       6.002  -0.537   2.192  1.00  0.00     0.087 C 
ATOM      4  O   UNL     1       3.997   0.582   2.518  1.00  0.00    -0.300 OA
ENDBRANCH   1   2
BRANCH   1   5
ATOM      5  C   UNL     1       5.424   1.706  -0.190  1.00  0.00     0.043 C 
BRANCH   5   6
ATOM      6  C   UNL     1       6.585   1.012  -0.775  1.00  0.00    -0.044 A 
ATOM      7  C   UNL     1       7.893   1.456  -0.552  1.00  0.00     0.008 A 
ATOM      8  C   UNL     1       6.390  -0.102  -1.559  1.00  0.00     0.054 A 
ATOM      9  C   UNL     1       8.944   0.764  -1.126  1.00  0.00     0.051 A 
ATOM     10  C   UNL     1       7.455  -0.799  -2.137  1.00  0.00     0.166 A 
ATOM     11  C   UNL     1       8.743  -0.362  -1.919  1.00  0.00     0.165 A 
ATOM     12  O   UNL     1       7.521  -1.915  -2.944  1.00  0.00    -0.454 OA
ATOM     13  O   UNL     1       9.582  -1.229  -2.603  1.00  0.00    -0.454 OA
ATOM     14  C   UNL     1       8.855  -2.281  -3.191  1.00  0.00     0.468 C 
ENDBRANCH   5   6
ENDBRANCH   1   5
TORSDOF 3
ENDMDL
MODEL 2
REMARK VINA RESULT:      -7.2      1.252      1.462
REMARK SMILES CC(=O)CCc1ccc2c(c1)OCO2
REMARK SMILES IDX 4 1 2 2 1 3 3 4 5 5 6 6 7 7 11 8 8 9 10 10 9 11 12 12 14 13
REMARK SMILES IDX 13 14
REMARK H PARENT
REMARK Flexibility Score: inf
ROOT
ATOM      1  C   UNL     1       6.392   1.199   0.935  1.00  0.00     0.080 C 
ENDROOT
BRANCH   1   2
ATOM      2  C   UNL     1       5.661   0.378   1.941  1.00  0.00     0.130 C 
ATOM      3  C   UNL     1       6.260  -0.848   2.532  1.00  0.00     0.087 C 
ATOM      4  O   UNL     1       4.540   0.691   2.309  1.00  0.00    -0.300 OA
ENDBRANCH   1   2
BRANCH   1   5
ATOM      5  C   UNL     1       5.888   0.929  -0.468  1.00  0.00     0.043 C 
BRANCH   5   6
ATOM      6  C   UNL     1       6.830   0.095  -1.236  1.00  0.00    -0.044 A 
ATOM      7  C   UNL     1       7.514   0.597  -2.349  1.00  0.00     0.008 A 
ATOM      8  C   UNL     1       7.051  -1.210  -0.857  1.00  0.00     0.054 A 
ATOM      9  C   UNL     1       8.387  -0.231  -3.030  1.00  0.00     0.051 A 
ATOM     10  C   UNL     1       7.935  -2.043  -1.549  1.00  0.00     0.166 A 
ATOM     11  C   UNL     1       8.608  -1.550  -2.645  1.00  0.00     0.165 A 
ATOM     12  O   UNL     1       8.321  -3.355  -1.375  1.00  0.00    -0.454 OA
ATOM     13  O   UNL     1       9.402  -2.580  -3.125  1.00  0.00    -0.454 OA
ATOM     14  C   UNL     1       9.319  -3.714  -2.295  1.00  0.00     0.468 C 
ENDBRANCH   5   6
ENDBRANCH   1   5
TORSDOF 3
ENDMDL
MODEL 3
REMARK VINA RESULT:      -7.0      1.734      2.313
REMARK SMILES CC(=O)CCc1ccc2c(c1)OCO2
REMARK SMILES IDX 4 1 2 2 1 3 3 4 5 5 6 6 7 7 11 8 8 9 10 10 9 11 12 12 14 13
REMARK SMILES IDX 13 14
REMARK H PARENT
REMARK Flexibility Score: inf
ROOT
ATOM      1  C   UNL     1       5.473   0.096   2.029  1.00  0.00     0.080 C 
ENDROOT
BRANCH   1   2
ATOM      2  C   UNL     1       4.483   1.183   1.788  1.00  0.00     0.130 C 
ATOM      3  C   UNL     1       4.641   2.148   0.668  1.00  0.00     0.087 C 
ATOM      4  O   UNL     1       3.508   1.314   2.510  1.00  0.00    -0.300 OA
ENDBRANCH   1   2
BRANCH   1   5
ATOM      5  C   UNL     1       6.829   0.448   1.451  1.00  0.00     0.043 C 
BRANCH   5   6
ATOM      6  C   UNL     1       7.173  -0.410   0.303  1.00  0.00    -0.044 A 
ATOM      7  C   UNL     1       6.899  -0.019  -1.012  1.00  0.00     0.008 A 
ATOM      8  C   UNL     1       7.781  -1.626   0.518  1.00  0.00     0.054 A 
ATOM      9  C   UNL     1       7.245  -0.865  -2.050  1.00  0.00     0.051 A 
ATOM     10  C   UNL     1       8.130  -2.478  -0.534  1.00  0.00     0.166 A 
ATOM     11  C   UNL     1       7.859  -2.094  -1.829  1.00  0.00     0.165 A 
ATOM     12  O   UNL     1       8.732  -3.717  -0.580  1.00  0.00    -0.454 OA
ATOM     13  O   UNL     1       8.306  -3.116  -2.651  1.00  0.00    -0.454 OA
ATOM     14  C   UNL     1       8.948  -4.124  -1.907  1.00  0.00     0.468 C 
ENDBRANCH   5   6
ENDBRANCH   1   5
TORSDOF 3
ENDMDL
MODEL 4
REMARK VINA RESULT:      -7.0      1.615      1.988
REMARK SMILES CC(=O)CCc1ccc2c(c1)OCO2
REMARK SMILES IDX 4 1 2 2 1 3 3 4 5 5 6 6 7 7 11 8 8 9 10 10 9 11 12 12 14 13
REMARK SMILES IDX 13 14
REMARK H PARENT
REMARK Flexibility Score: inf
ROOT
ATOM      1  C   UNL     1       5.476   1.725   0.091  1.00  0.00     0.080 C 
ENDROOT
BRANCH   1   2
ATOM      2  C   UNL     1       4.856   1.265   1.364  1.00  0.00     0.130 C 
ATOM      3  C   UNL     1       5.392   0.099   2.117  1.00  0.00     0.087 C 
ATOM      4  O   UNL     1       3.883   1.836   1.829  1.00  0.00    -0.300 OA
ENDBRANCH   1   2
BRANCH   1   5
ATOM      5  C   UNL     1       6.969   1.464   0.079  1.00  0.00     0.043 C 
BRANCH   5   6
ATOM      6  C   UNL     1       7.306   0.256  -0.696  1.00  0.00    -0.044 A 
ATOM      7  C   UNL     1       7.188   0.224  -2.090  1.00  0.00     0.008 A 
ATOM      8  C   UNL     1       7.751  -0.871  -0.044  1.00  0.00     0.054 A 
ATOM      9  C   UNL     1       7.520  -0.938  -2.765  1.00  0.00     0.051 A 
ATOM     10  C   UNL     1       8.086  -2.042  -0.730  1.00  0.00     0.166 A 
ATOM     11  C   UNL     1       7.969  -2.076  -2.102  1.00  0.00     0.165 A 
ATOM     12  O   UNL     1       8.543  -3.276  -0.317  1.00  0.00    -0.454 OA
ATOM     13  O   UNL     1       8.362  -3.342  -2.507  1.00  0.00    -0.454 OA
ATOM     14  C   UNL     1       8.820  -4.105  -1.416  1.00  0.00     0.468 C 
ENDBRANCH   5   6
ENDBRANCH   1   5
TORSDOF 3
ENDMDL
MODEL 5
REMARK VINA RESULT:      -6.8      1.263      1.748
REMARK SMILES CC(=O)CCc1ccc2c(c1)OCO2
REMARK SMILES IDX 4 1 2 2 1 3 3 4 5 5 6 6 7 7 11 8 8 9 10 10 9 11 12 12 14 13
REMARK SMILES IDX 13 14
REMARK H PARENT
REMARK Flexibility Score: inf
ROOT
ATOM      1  C   UNL     1       5.312  -0.078   1.963  1.00  0.00     0.080 C 
ENDROOT
BRANCH   1   2
ATOM      2  C   UNL     1       4.439   1.117   1.789  1.00  0.00     0.130 C 
ATOM      3  C   UNL     1       4.725   2.148   0.756  1.00  0.00     0.087 C 
ATOM      4  O   UNL     1       3.458   1.285   2.495  1.00  0.00    -0.300 OA
ENDBRANCH   1   2
BRANCH   1   5
ATOM      5  C   UNL     1       6.779   0.299   1.910  1.00  0.00     0.043 C 
BRANCH   5   6
ATOM      6  C   UNL     1       7.387  -0.050   0.614  1.00  0.00    -0.044 A 
ATOM      7  C   UNL     1       7.884   0.931  -0.251  1.00  0.00     0.008 A 
ATOM      8  C   UNL     1       7.475  -1.371   0.236  1.00  0.00     0.054 A 
ATOM      9  C   UNL     1       8.445   0.543  -1.454  1.00  0.00     0.051 A 
ATOM     10  C   UNL     1       8.043  -1.758  -0.981  1.00  0.00     0.166 A 
ATOM     11  C   UNL     1       8.532  -0.793  -1.834  1.00  0.00     0.165 A 
ATOM     12  O   UNL     1       8.244  -2.985  -1.577  1.00  0.00    -0.454 OA
ATOM     13  O   UNL     1       9.029  -1.454  -2.946  1.00  0.00    -0.454 OA
ATOM     14  C   UNL     1       8.948  -2.850  -2.785  1.00  0.00     0.468 C 
ENDBRANCH   5   6
ENDBRANCH   1   5
TORSDOF 3
ENDMDL
