MODEL 1
REMARK VINA RESULT:      -7.6      0.000      0.000
REMARK SMILES CC(=O)CCc1ccc2c(c1)OCO2
REMARK SMILES IDX 4 1 2 2 1 3 3 4 5 5 6 6 7 7 11 8 8 9 10 10 9 11 12 12 14 13
REMARK SMILES IDX 13 14
REMARK H PARENT
REMARK Flexibility Score: inf
ROOT
ATOM      1  C   UNL     1       5.532   1.897   1.282  1.00  0.00     0.080 C 
ENDROOT
BRANCH   1   2
ATOM      2  C   UNL     1       5.090   0.674   2.010  1.00  0.00     0.130 C 
ATOM      3  C   UNL     1       5.987  -0.500   2.181  1.00  0.00     0.087 C 
ATOM      4  O   UNL     1       3.971   0.602   2.491  1.00  0.00    -0.300 OA
ENDBRANCH   1   2
BRANCH   1   5
ATOM      5  C   UNL     1       5.403   1.721  -0.218  1.00  0.00     0.043 C 
BRANCH   5   6
ATOM      6  C   UNL     1       6.569   1.022  -0.788  1.00  0.00    -0.044 A 
ATOM      7  C   UNL     1       7.876   1.462  -0.550  1.00  0.00     0.008 A 
ATOM      8  C   UNL     1       6.379  -0.092  -1.574  1.00  0.00     0.054 A 
ATOM      9  C   UNL     1       8.931   0.765  -1.111  1.00  0.00     0.051 A 
ATOM     10  C   UNL     1       7.449  -0.793  -2.138  1.00  0.00     0.166 A 
ATOM     11  C   UNL     1       8.735  -0.361  -1.905  1.00  0.00     0.165 A 
ATOM     12  O   UNL     1       7.520  -1.911  -2.942  1.00  0.00    -0.454 OA
ATOM     13  O   UNL     1       9.579  -1.231  -2.577  1.00  0.00    -0.454 OA
ATOM     14  C   UNL     1       8.856  -2.281  -3.173  1.00  0.00     0.468 C 
ENDBRANCH   5   6
ENDBRANCH   1   5
TORSDOF 3
ENDMDL
MODEL 2
REMARK VINA RESULT:      -7.5      1.928      2.381
REMARK SMILES CC(=O)CCc1ccc2c(c1)OCO2
REMARK SMILES IDX 4 1 2 2 1 3 3 4 5 5 6 6 7 7 11 8 8 9 10 10 9 11 12 12 14 13
REMARK SMILES IDX 13 14
REMARK H PARENT
REMARK Flexibility Score: inf
ROOT
ATOM      1  C   UNL     1       5.741   1.410  -0.285  1.00  0.00     0.080 C 
ENDROOT
BRANCH   1   2
ATOM      2  C   UNL     1       5.087   1.276   1.047  1.00  0.00     0.130 C 
ATOM      3  C   UNL     1       5.392   0.140   1.956  1.00  0.00     0.087 C 
ATOM      4  O   UNL     1       4.275   2.102   1.432  1.00  0.00    -0.300 OA
ENDBRANCH   1   2
BRANCH   1   5
ATOM      5  C   UNL     1       7.230   1.139  -0.197  1.00  0.00     0.043 C 
BRANCH   5   6
ATOM      6  C   UNL     1       7.586  -0.155  -0.805  1.00  0.00    -0.044 A 
ATOM      7  C   UNL     1       7.610  -0.332  -2.193  1.00  0.00     0.008 A 
ATOM      8  C   UNL     1       7.908  -1.222   0.003  1.00  0.00     0.054 A 
ATOM      9  C   UNL     1       7.953  -1.569  -2.706  1.00  0.00     0.051 A 
ATOM     10  C   UNL     1       8.256  -2.471  -0.521  1.00  0.00     0.166 A 
ATOM     11  C   UNL     1       8.278  -2.646  -1.887  1.00  0.00     0.165 A 
ATOM     12  O   UNL     1       8.610  -3.669   0.062  1.00  0.00    -0.454 OA
ATOM     13  O   UNL     1       8.650  -3.961  -2.117  1.00  0.00    -0.454 OA
ATOM     14  C   UNL     1       8.958  -4.620  -0.912  1.00  0.00     0.468 C 
ENDBRANCH   5   6
ENDBRANCH   1   5
TORSDOF 3
ENDMDL
MODEL 3
REMARK VINA RESULT:      -7.2      2.059      2.629
REMARK SMILES CC(=O)CCc1ccc2c(c1)OCO2
REMARK SMILES IDX 4 1 2 2 1 3 3 4 5 5 6 6 7 7 11 8 8 9 10 10 9 11 12 12 14 13
REMARK SMILES IDX 13 14
REMARK H PARENT
REMARK Flexibility Score: inf
ROOT
ATOM      1  C   UNL     1       5.424  -0.051   1.978  1.00  0.00     0.080 C 
ENDROOT
BRANCH   1   2
ATOM      2  C   UNL     1       4.584   1.152   1.719  1.00  0.00     0.130 C 
ATOM      3  C   UNL     1       4.919   2.120   0.641  1.00  0.00     0.087 C 
ATOM      4  O   UNL     1       3.591   1.379   2.391  1.00  0.00    -0.300 OA
ENDBRANCH   1   2
BRANCH   1   5
ATOM      5  C   UNL     1       6.864   0.185   1.570  1.00  0.00     0.043 C 
BRANCH   5   6
ATOM      6  C   UNL     1       7.290  -0.745   0.508  1.00  0.00    -0.044 A 
ATOM      7  C   UNL     1       7.155  -0.422  -0.847  1.00  0.00     0.008 A 
ATOM      8  C   UNL     1       7.838  -1.961   0.846  1.00  0.00     0.054 A 
ATOM      9  C   UNL     1       7.573  -1.333  -1.799  1.00  0.00     0.051 A 
ATOM     10  C   UNL     1       8.260  -2.879  -0.121  1.00  0.00     0.166 A 
ATOM     11  C   UNL     1       8.126  -2.562  -1.454  1.00  0.00     0.165 A 
ATOM     12  O   UNL     1       8.826  -4.134  -0.042  1.00  0.00    -0.454 OA
ATOM     13  O   UNL     1       8.618  -3.640  -2.174  1.00  0.00    -0.454 OA
ATOM     14  C   UNL     1       9.156  -4.620  -1.318  1.00  0.00     0.468 C 
ENDBRANCH   5   6
ENDBRANCH   1   5
TORSDOF 3
ENDMDL
MODEL 4
REMARK VINA RESULT:      -7.1      1.244      1.447
REMARK SMILES CC(=O)CCc1ccc2c(c1)OCO2
REMARK SMILES IDX 4 1 2 2 1 3 3 4 5 5 6 6 7 7 11 8 8 9 10 10 9 11 12 12 14 13
REMARK SMILES IDX 13 14
REMARK H PARENT
REMARK Flexibility Score: inf
ROOT
ATOM      1  C   UNL     1       6.374   1.208   0.936  1.00  0.00     0.080 C 
ENDROOT
BRANCH   1   2
ATOM      2  C   UNL     1       5.661   0.368   1.938  1.00  0.00     0.130 C 
ATOM      3  C   UNL     1       6.278  -0.859   2.509  1.00  0.00     0.087 C 
ATOM      4  O   UNL     1       4.540   0.664   2.321  1.00  0.00    -0.300 OA
ENDBRANCH   1   2
BRANCH   1   5
ATOM      5  C   UNL     1       5.869   0.938  -0.468  1.00  0.00     0.043 C 
BRANCH   5   6
ATOM      6  C   UNL     1       6.817   0.114  -1.240  1.00  0.00    -0.044 A 
ATOM      7  C   UNL     1       7.508   0.631  -2.342  1.00  0.00     0.008 A 
ATOM      8  C   UNL     1       7.036  -1.195  -0.876  1.00  0.00     0.054 A 
ATOM      9  C   UNL     1       8.385  -0.189  -3.028  1.00  0.00     0.051 A 
ATOM     10  C   UNL     1       7.925  -2.019  -1.572  1.00  0.00     0.166 A 
ATOM     11  C   UNL     1       8.605  -1.512  -2.658  1.00  0.00     0.165 A 
ATOM     12  O   UNL     1       8.310  -3.333  -1.412  1.00  0.00    -0.454 OA
ATOM     13  O   UNL     1       9.402  -2.536  -3.145  1.00  0.00    -0.454 OA
ATOM     14  C   UNL     1       9.315  -3.680  -2.330  1.00  0.00     0.468 C 
ENDBRANCH   5   6
ENDBRANCH   1   5
TORSDOF 3
ENDMDL
MODEL 5
REMARK VINA RESULT:      -6.8      1.180      5.193
REMARK SMILES CC(=O)CCc1ccc2c(c1)OCO2
REMARK SMILES IDX 4 1 2 2 1 3 3 4 5 5 6 6 7 7 11 8 8 9 10 10 9 11 12 12 14 13
REMARK SMILES IDX 13 14
REMARK H PARENT
REMARK Flexibility Score: inf
ROOT
ATOM      1  C   UNL     1       8.363   0.240  -2.517  1.00  0.00     0.080 C 
ENDROOT
BRANCH   1   2
ATOM      2  C   UNL     1       8.043  -1.205  -2.686  1.00  0.00     0.130 C 
ATOM      3  C   UNL     1       9.093  -2.202  -3.025  1.00  0.00     0.087 C 
ATOM      4  O   UNL     1       6.902  -1.614  -2.550  1.00  0.00    -0.300 OA
ENDBRANCH   1   2
BRANCH   1   5
ATOM      5  C   UNL     1       8.862   0.534  -1.116  1.00  0.00     0.043 C 
BRANCH   5   6
ATOM      6  C   UNL     1       7.789   0.400  -0.115  1.00  0.00    -0.044 A 
ATOM      7  C   UNL     1       7.840  -0.575   0.889  1.00  0.00     0.008 A 
ATOM      8  C   UNL     1       6.708   1.251  -0.156  1.00  0.00     0.054 A 
ATOM      9  C   UNL     1       6.804  -0.652   1.802  1.00  0.00     0.051 A 
ATOM     10  C   UNL     1       5.664   1.169   0.771  1.00  0.00     0.166 A 
ATOM     11  C   UNL     1       5.712   0.209   1.757  1.00  0.00     0.165 A 
ATOM     12  O   UNL     1       4.498   1.886   0.938  1.00  0.00    -0.454 OA
ATOM     13  O   UNL     1       4.564   0.359   2.519  1.00  0.00    -0.454 OA
ATOM     14  C   UNL     1       3.811   1.468   2.090  1.00  0.00     0.468 C 
ENDBRANCH   5   6
ENDBRANCH   1   5
TORSDOF 3
ENDMDL
