@<TRIPOS>MOLECULE
/home/cewinharhar/GITHUB/reincatalyze/data/processed/docking_pred/2023-May-22-2206_sub9_nm5_bs15_s42_ex16_mel10_mts10000_k50_ec02_g099_lra9e-4_lrc1e-3/c054a7f490e8e5c171bc57af56a9ae5cb4d717f8_ligand_9.pdbqt
 14 15 0 0 0
SMALL
GASTEIGER

@<TRIPOS>ATOM
      1  C          5.7410    1.4100   -0.2850 C.3     1  UNL1        0.0800
      2  C          5.0870    1.2760    1.0470 C.2     1  UNL1        0.1300
      3  C          5.3920    0.1400    1.9560 C.3     1  UNL1        0.0870
      4  O          4.2750    2.1020    1.4320 O.2     1  UNL1       -0.3000
      5  C          7.2300    1.1390   -0.1970 C.3     1  UNL1        0.0430
      6  C          7.5860   -0.1550   -0.8050 C.2     1  UNL1       -0.0440
      7  C          7.6100   -0.3320   -2.1930 C.2     1  UNL1        0.0080
      8  C          7.9080   -1.2220    0.0030 C.2     1  UNL1        0.0540
      9  C          7.9530   -1.5690   -2.7060 C.2     1  UNL1        0.0510
     10  C          8.2560   -2.4710   -0.5210 C.2     1  UNL1        0.1660
     11  C          8.2780   -2.6460   -1.8870 C.2     1  UNL1        0.1650
     12  O          8.6100   -3.6690    0.0620 O.2     1  UNL1       -0.4540
     13  O          8.6500   -3.9610   -2.1170 O.2     1  UNL1       -0.4540
     14  C          8.9580   -4.6200   -0.9120 C.3     1  UNL1        0.4680
@<TRIPOS>BOND
     1     9     7    1
     2     9    11    2
     3     7     6    2
     4    13    11    1
     5    13    14    1
     6    11    10    1
     7    14    12    1
     8     6     5    1
     9     6     8    1
    10    10     8    2
    11    10    12    1
    12     1     5    1
    13     1     2    1
    14     2     4    2
    15     2     3    1
