@<TRIPOS>MOLECULE
/home/cewinharhar/GITHUB/reincatalyze/data/processed/docking_pred/2023-May-22-2206_sub9_nm5_bs15_s42_ex16_mel10_mts10000_k50_ec02_g099_lra9e-4_lrc1e-3/c2b16f598521213e119e3a09a49f7e8c9c89cc3b_ligand_9.pdbqt
 14 15 0 0 0
SMALL
GASTEIGER

@<TRIPOS>ATOM
      1  C          6.3850    1.1780    0.9550 C.3     1  UNL1        0.0800
      2  C          5.6460    0.3640    1.9610 C.2     1  UNL1        0.1300
      3  C          6.2360   -0.8650    2.5550 C.3     1  UNL1        0.0870
      4  O          4.5270    0.6850    2.3270 O.2     1  UNL1       -0.3000
      5  C          5.8730    0.9170   -0.4480 C.3     1  UNL1        0.0430
      6  C          6.8130    0.0920   -1.2270 C.2     1  UNL1       -0.0440
      7  C          7.4770    0.5980   -2.3500 C.2     1  UNL1        0.0080
      8  C          7.0540   -1.2100   -0.8480 C.2     1  UNL1        0.0540
      9  C          8.3490   -0.2230   -3.0420 C.2     1  UNL1        0.0510
     10  C          7.9360   -2.0360   -1.5510 C.2     1  UNL1        0.1660
     11  C          8.5890   -1.5380   -2.6570 C.2     1  UNL1        0.1650
     12  O          8.3380   -3.3430   -1.3790 O.2     1  UNL1       -0.4540
     13  O          9.3870   -2.5610   -3.1450 O.2     1  UNL1       -0.4540
     14  C          9.3270   -3.6940   -2.3120 C.3     1  UNL1        0.4680
@<TRIPOS>BOND
     1    13    11    1
     2    13    14    1
     3     9    11    2
     4     9     7    1
     5    11    10    1
     6     7     6    2
     7    14    12    1
     8    10    12    1
     9    10     8    2
    10     6     8    1
    11     6     5    1
    12     5     1    1
    13     1     2    1
    14     2     4    2
    15     2     3    1
