@<TRIPOS>MOLECULE
/home/cewinharhar/GITHUB/reincatalyze/data/processed/docking_pred/2023-May-22-2206_sub9_nm5_bs15_s42_ex16_mel10_mts10000_k50_ec02_g099_lra9e-4_lrc1e-3/c2b16f598521213e119e3a09a49f7e8c9c89cc3b_ligand_9.pdbqt
 14 15 0 0 0
SMALL
GASTEIGER

@<TRIPOS>ATOM
      1  C          5.7990    1.3460   -0.2790 C.3     1  UNL1        0.0800
      2  C          5.2020    1.2480    1.0820 C.2     1  UNL1        0.1300
      3  C          5.4170    0.0550    1.9450 C.3     1  UNL1        0.0870
      4  O          4.5140    2.1500    1.5310 O.2     1  UNL1       -0.3000
      5  C          7.2920    1.0880   -0.2450 C.3     1  UNL1        0.0430
      6  C          7.6360   -0.2110   -0.8510 C.2     1  UNL1       -0.0440
      7  C          7.6520   -0.3910   -2.2390 C.2     1  UNL1        0.0080
      8  C          7.9540   -1.2780   -0.0420 C.2     1  UNL1        0.0540
      9  C          7.9830   -1.6330   -2.7500 C.2     1  UNL1        0.0510
     10  C          8.2890   -2.5310   -0.5630 C.2     1  UNL1        0.1660
     11  C          8.3040   -2.7100   -1.9290 C.2     1  UNL1        0.1650
     12  O          8.6370   -3.7300    0.0220 O.2     1  UNL1       -0.4540
     13  O          8.6650   -4.0280   -2.1560 O.2     1  UNL1       -0.4540
     14  C          8.9740   -4.6860   -0.9510 C.3     1  UNL1        0.4680
@<TRIPOS>BOND
     1     9     7    1
     2     9    11    2
     3     7     6    2
     4    13    11    1
     5    13    14    1
     6    11    10    1
     7    14    12    1
     8     6     5    1
     9     6     8    1
    10    10     8    2
    11    10    12    1
    12     1     5    1
    13     1     2    1
    14     2     4    2
    15     2     3    1
