@<TRIPOS>MOLECULE
/home/cewinharhar/GITHUB/reincatalyze/data/processed/docking_pred/2023-May-22-2206_sub9_nm5_bs15_s42_ex16_mel10_mts10000_k50_ec02_g099_lra9e-4_lrc1e-3/c2bbe2b0b698b4c34a14c6b9d782c5d04fb4e97c_ligand_9.pdbqt
 14 15 0 0 0
SMALL
GASTEIGER

@<TRIPOS>ATOM
      1  C          6.9830    1.0670    1.1090 C.3     1  UNL1        0.0800
      2  C          5.5160    1.2100    1.3290 C.2     1  UNL1        0.1300
      3  C          4.6940    2.1500    0.5210 C.3     1  UNL1        0.0870
      4  O          4.9440    0.5550    2.1850 O.2     1  UNL1       -0.3000
      5  C          7.3310    1.1620   -0.3630 C.3     1  UNL1        0.0430
      6  C          7.6860   -0.1520   -0.9270 C.2     1  UNL1       -0.0440
      7  C          7.7760   -0.3570   -2.3080 C.2     1  UNL1        0.0080
      8  C          7.9380   -1.2110   -0.0840 C.2     1  UNL1        0.0540
      9  C          8.1140   -1.6120   -2.7800 C.2     1  UNL1        0.0510
     10  C          8.2800   -2.4780   -0.5660 C.2     1  UNL1        0.1660
     11  C          8.3690   -2.6800   -1.9250 C.2     1  UNL1        0.1650
     12  O          8.5730   -3.6720    0.0570 O.2     1  UNL1       -0.4540
     13  O          8.7190   -4.0080   -2.1110 O.2     1  UNL1       -0.4540
     14  C          8.9470   -4.6500   -0.8790 C.3     1  UNL1        0.4680
@<TRIPOS>BOND
     1     9     7    1
     2     9    11    2
     3     7     6    2
     4    13    11    1
     5    13    14    1
     6    11    10    1
     7     6     5    1
     8     6     8    1
     9    14    12    1
    10    10     8    2
    11    10    12    1
    12     5     1    1
    13     3     2    1
    14     1     2    1
    15     2     4    2
