@<TRIPOS>MOLECULE
/home/cewinharhar/GITHUB/reincatalyze/data/processed/docking_pred/2023-May-22-2206_sub9_nm5_bs15_s42_ex16_mel10_mts10000_k50_ec02_g099_lra9e-4_lrc1e-3/c2bbe2b0b698b4c34a14c6b9d782c5d04fb4e97c_ligand_9.pdbqt
 14 15 0 0 0
SMALL
GASTEIGER

@<TRIPOS>ATOM
      1  C          5.7290    1.2890   -0.3100 C.3     1  UNL1        0.0800
      2  C          5.1470    1.2360    1.0600 C.2     1  UNL1        0.1300
      3  C          5.3770    0.0750    1.9620 C.3     1  UNL1        0.0870
      4  O          4.4590    2.1500    1.4850 O.2     1  UNL1       -0.3000
      5  C          7.2300    1.0790   -0.2790 C.3     1  UNL1        0.0430
      6  C          7.6130   -0.2100   -0.8820 C.2     1  UNL1       -0.0440
      7  C          7.7120   -0.3700   -2.2690 C.2     1  UNL1        0.0080
      8  C          7.8860   -1.2880   -0.0710 C.2     1  UNL1        0.0540
      9  C          8.0780   -1.6030   -2.7770 C.2     1  UNL1        0.0510
     10  C          8.2560   -2.5320   -0.5890 C.2     1  UNL1        0.1660
     11  C          8.3520   -2.6910   -1.9540 C.2     1  UNL1        0.1650
     12  O          8.5720   -3.7390   -0.0020 O.2     1  UNL1       -0.4540
     13  O          8.7300   -4.0060   -2.1790 O.2     1  UNL1       -0.4540
     14  C          8.9690   -4.6800   -0.9660 C.3     1  UNL1        0.4680
@<TRIPOS>BOND
     1     9     7    1
     2     9    11    2
     3     7     6    2
     4    13    11    1
     5    13    14    1
     6    11    10    1
     7    14    12    1
     8     6     5    1
     9     6     8    1
    10    10     8    2
    11    10    12    1
    12     1     5    1
    13     1     2    1
    14     2     4    2
    15     2     3    1
