@<TRIPOS>MOLECULE
/home/cewinharhar/GITHUB/reincatalyze/data/processed/docking_pred/2023-May-22-2206_sub9_nm5_bs15_s42_ex16_mel10_mts10000_k50_ec02_g099_lra9e-4_lrc1e-3/c584487daa348165e33ca71579c90fd99cb4babd_ligand_9.pdbqt
 14 15 0 0 0
SMALL
GASTEIGER

@<TRIPOS>ATOM
      1  C          5.5780    0.0160    1.9470 C.3     1  UNL1        0.0800
      2  C          4.6750    1.1580    1.6350 C.2     1  UNL1        0.1300
      3  C          4.9540    2.0890    0.5090 C.3     1  UNL1        0.0870
      4  O          3.6720    1.3650    2.3000 O.2     1  UNL1       -0.3000
      5  C          6.9870    0.2760    1.4520 C.3     1  UNL1        0.0430
      6  C          7.3890   -0.6900    0.4150 C.2     1  UNL1       -0.0440
      7  C          7.2840   -0.3890   -0.9480 C.2     1  UNL1        0.0080
      8  C          7.8830   -1.9210    0.7840 C.2     1  UNL1        0.0540
      9  C          7.6780   -1.3350   -1.8770 C.2     1  UNL1        0.0510
     10  C          8.2800   -2.8740   -0.1590 C.2     1  UNL1        0.1660
     11  C          8.1760   -2.5780   -1.5000 C.2     1  UNL1        0.1650
     12  O          8.7940   -4.1480   -0.0480 O.2     1  UNL1       -0.4540
     13  O          8.6340   -3.6890   -2.1920 O.2     1  UNL1       -0.4540
     14  C          9.1210   -4.6720   -1.3100 C.3     1  UNL1        0.4680
@<TRIPOS>BOND
     1    13    11    1
     2    13    14    1
     3     9    11    2
     4     9     7    1
     5    11    10    1
     6    14    12    1
     7     7     6    2
     8    10    12    1
     9    10     8    2
    10     6     8    1
    11     6     5    1
    12     3     2    1
    13     5     1    1
    14     2     1    1
    15     2     4    2
