MODEL 1
REMARK VINA RESULT:      -7.6      0.000      0.000
REMARK SMILES CC(=O)CCc1ccc2c(c1)OCO2
REMARK SMILES IDX 4 1 2 2 1 3 3 4 5 5 6 6 7 7 11 8 8 9 10 10 9 11 12 12 14 13
REMARK SMILES IDX 13 14
REMARK H PARENT
REMARK Flexibility Score: inf
ROOT
ATOM      1  C   UNL     1       5.512   1.948   1.260  1.00  0.00     0.080 C 
ENDROOT
BRANCH   1   2
ATOM      2  C   UNL     1       5.078   0.732   2.003  1.00  0.00     0.130 C 
ATOM      3  C   UNL     1       5.985  -0.432   2.194  1.00  0.00     0.087 C 
ATOM      4  O   UNL     1       3.958   0.655   2.481  1.00  0.00    -0.300 OA
ENDBRANCH   1   2
BRANCH   1   5
ATOM      5  C   UNL     1       5.385   1.752  -0.238  1.00  0.00     0.043 C 
BRANCH   5   6
ATOM      6  C   UNL     1       6.553   1.048  -0.797  1.00  0.00    -0.044 A 
ATOM      7  C   UNL     1       7.860   1.484  -0.548  1.00  0.00     0.008 A 
ATOM      8  C   UNL     1       6.366  -0.066  -1.583  1.00  0.00     0.054 A 
ATOM      9  C   UNL     1       8.917   0.783  -1.099  1.00  0.00     0.051 A 
ATOM     10  C   UNL     1       7.438  -0.771  -2.138  1.00  0.00     0.166 A 
ATOM     11  C   UNL     1       8.724  -0.343  -1.894  1.00  0.00     0.165 A 
ATOM     12  O   UNL     1       7.513  -1.890  -2.940  1.00  0.00    -0.454 OA
ATOM     13  O   UNL     1       9.570  -1.217  -2.558  1.00  0.00    -0.454 OA
ATOM     14  C   UNL     1       8.848  -2.266  -3.159  1.00  0.00     0.468 C 
ENDBRANCH   5   6
ENDBRANCH   1   5
TORSDOF 3
ENDMDL
MODEL 2
REMARK VINA RESULT:      -7.4      1.887      2.349
REMARK SMILES CC(=O)CCc1ccc2c(c1)OCO2
REMARK SMILES IDX 4 1 2 2 1 3 3 4 5 5 6 6 7 7 11 8 8 9 10 10 9 11 12 12 14 13
REMARK SMILES IDX 13 14
REMARK H PARENT
REMARK Flexibility Score: inf
ROOT
ATOM      1  C   UNL     1       5.784   1.496  -0.326  1.00  0.00     0.080 C 
ENDROOT
BRANCH   1   2
ATOM      2  C   UNL     1       5.080   1.336   0.976  1.00  0.00     0.130 C 
ATOM      3  C   UNL     1       5.358   0.186   1.878  1.00  0.00     0.087 C 
ATOM      4  O   UNL     1       4.247   2.149   1.343  1.00  0.00    -0.300 OA
ENDBRANCH   1   2
BRANCH   1   5
ATOM      5  C   UNL     1       7.262   1.187  -0.194  1.00  0.00     0.043 C 
BRANCH   5   6
ATOM      6  C   UNL     1       7.610  -0.098  -0.828  1.00  0.00    -0.044 A 
ATOM      7  C   UNL     1       7.633  -0.247  -2.219  1.00  0.00     0.008 A 
ATOM      8  C   UNL     1       7.924  -1.183  -0.041  1.00  0.00     0.054 A 
ATOM      9  C   UNL     1       7.968  -1.476  -2.757  1.00  0.00     0.051 A 
ATOM     10  C   UNL     1       8.263  -2.423  -0.590  1.00  0.00     0.166 A 
ATOM     11  C   UNL     1       8.285  -2.571  -1.959  1.00  0.00     0.165 A 
ATOM     12  O   UNL     1       8.608  -3.635  -0.030  1.00  0.00    -0.454 OA
ATOM     13  O   UNL     1       8.648  -3.884  -2.214  1.00  0.00    -0.454 OA
ATOM     14  C   UNL     1       8.950  -4.569  -1.022  1.00  0.00     0.468 C 
ENDBRANCH   5   6
ENDBRANCH   1   5
TORSDOF 3
ENDMDL
MODEL 3
REMARK VINA RESULT:      -7.3      2.056      2.612
REMARK SMILES CC(=O)CCc1ccc2c(c1)OCO2
REMARK SMILES IDX 4 1 2 2 1 3 3 4 5 5 6 6 7 7 11 8 8 9 10 10 9 11 12 12 14 13
REMARK SMILES IDX 13 14
REMARK H PARENT
REMARK Flexibility Score: inf
ROOT
ATOM      1  C   UNL     1       5.453  -0.013   2.004  1.00  0.00     0.080 C 
ENDROOT
BRANCH   1   2
ATOM      2  C   UNL     1       4.540   1.136   1.745  1.00  0.00     0.130 C 
ATOM      3  C   UNL     1       4.812   2.120   0.664  1.00  0.00     0.087 C 
ATOM      4  O   UNL     1       3.537   1.302   2.419  1.00  0.00    -0.300 OA
ENDBRANCH   1   2
BRANCH   1   5
ATOM      5  C   UNL     1       6.858   0.279   1.514  1.00  0.00     0.043 C 
BRANCH   5   6
ATOM      6  C   UNL     1       7.281  -0.672   0.471  1.00  0.00    -0.044 A 
ATOM      7  C   UNL     1       7.156  -0.371  -0.890  1.00  0.00     0.008 A 
ATOM      8  C   UNL     1       7.816  -1.887   0.833  1.00  0.00     0.054 A 
ATOM      9  C   UNL     1       7.572  -1.302  -1.824  1.00  0.00     0.051 A 
ATOM     10  C   UNL     1       8.236  -2.825  -0.116  1.00  0.00     0.166 A 
ATOM     11  C   UNL     1       8.112  -2.530  -1.455  1.00  0.00     0.165 A 
ATOM     12  O   UNL     1       8.790  -4.083  -0.012  1.00  0.00    -0.454 OA
ATOM     13  O   UNL     1       8.599  -3.624  -2.153  1.00  0.00    -0.454 OA
ATOM     14  C   UNL     1       9.123  -4.594  -1.277  1.00  0.00     0.468 C 
ENDBRANCH   5   6
ENDBRANCH   1   5
TORSDOF 3
ENDMDL
MODEL 4
REMARK VINA RESULT:      -7.1      1.965      2.524
REMARK SMILES CC(=O)CCc1ccc2c(c1)OCO2
REMARK SMILES IDX 4 1 2 2 1 3 3 4 5 5 6 6 7 7 11 8 8 9 10 10 9 11 12 12 14 13
REMARK SMILES IDX 13 14
REMARK H PARENT
REMARK Flexibility Score: inf
ROOT
ATOM      1  C   UNL     1       6.757   0.762   1.329  1.00  0.00     0.080 C 
ENDROOT
BRANCH   1   2
ATOM      2  C   UNL     1       5.322   1.155   1.399  1.00  0.00     0.130 C 
ATOM      3  C   UNL     1       4.738   2.150   0.461  1.00  0.00     0.087 C 
ATOM      4  O   UNL     1       4.579   0.667   2.236  1.00  0.00    -0.300 OA
ENDBRANCH   1   2
BRANCH   1   5
ATOM      5  C   UNL     1       7.326   0.998  -0.056  1.00  0.00     0.043 C 
BRANCH   5   6
ATOM      6  C   UNL     1       7.681  -0.266  -0.724  1.00  0.00    -0.044 A 
ATOM      7  C   UNL     1       7.764  -0.361  -2.118  1.00  0.00     0.008 A 
ATOM      8  C   UNL     1       7.944  -1.386   0.032  1.00  0.00     0.054 A 
ATOM      9  C   UNL     1       8.103  -1.574  -2.689  1.00  0.00     0.051 A 
ATOM     10  C   UNL     1       8.287  -2.610  -0.551  1.00  0.00     0.166 A 
ATOM     11  C   UNL     1       8.367  -2.705  -1.922  1.00  0.00     0.165 A 
ATOM     12  O   UNL     1       8.588  -3.849  -0.026  1.00  0.00    -0.454 OA
ATOM     13  O   UNL     1       8.721  -4.013  -2.214  1.00  0.00    -0.454 OA
ATOM     14  C   UNL     1       8.960  -4.749  -1.038  1.00  0.00     0.468 C 
ENDBRANCH   5   6
ENDBRANCH   1   5
TORSDOF 3
ENDMDL
MODEL 5
REMARK VINA RESULT:      -7.0      1.237      1.427
REMARK SMILES CC(=O)CCc1ccc2c(c1)OCO2
REMARK SMILES IDX 4 1 2 2 1 3 3 4 5 5 6 6 7 7 11 8 8 9 10 10 9 11 12 12 14 13
REMARK SMILES IDX 13 14
REMARK H PARENT
REMARK Flexibility Score: inf
ROOT
ATOM      1  C   UNL     1       6.304   1.279   0.853  1.00  0.00     0.080 C 
ENDROOT
BRANCH   1   2
ATOM      2  C   UNL     1       5.646   0.431   1.886  1.00  0.00     0.130 C 
ATOM      3  C   UNL     1       6.320  -0.764   2.460  1.00  0.00     0.087 C 
ATOM      4  O   UNL     1       4.526   0.695   2.293  1.00  0.00    -0.300 OA
ENDBRANCH   1   2
BRANCH   1   5
ATOM      5  C   UNL     1       5.805   0.940  -0.537  1.00  0.00     0.043 C 
BRANCH   5   6
ATOM      6  C   UNL     1       6.783   0.131  -1.287  1.00  0.00    -0.044 A 
ATOM      7  C   UNL     1       7.523   0.671  -2.345  1.00  0.00     0.008 A 
ATOM      8  C   UNL     1       6.982  -1.187  -0.945  1.00  0.00     0.054 A 
ATOM      9  C   UNL     1       8.427  -0.136  -3.011  1.00  0.00     0.051 A 
ATOM     10  C   UNL     1       7.898  -1.999  -1.621  1.00  0.00     0.166 A 
ATOM     11  C   UNL     1       8.626  -1.469  -2.663  1.00  0.00     0.165 A 
ATOM     12  O   UNL     1       8.272  -3.317  -1.475  1.00  0.00    -0.454 OA
ATOM     13  O   UNL     1       9.442  -2.483  -3.139  1.00  0.00    -0.454 OA
ATOM     14  C   UNL     1       9.315  -3.647  -2.357  1.00  0.00     0.468 C 
ENDBRANCH   5   6
ENDBRANCH   1   5
TORSDOF 3
ENDMDL
