@<TRIPOS>MOLECULE
/home/cewinharhar/GITHUB/reincatalyze/data/processed/docking_pred/2023-May-22-2206_sub9_nm5_bs15_s42_ex16_mel10_mts10000_k50_ec02_g099_lra9e-4_lrc1e-3/ca2511eb0ea692a115cf18c67ef7ccdfaa736476_ligand_9.pdbqt
 14 15 0 0 0
SMALL
GASTEIGER

@<TRIPOS>ATOM
      1  C          5.3390   -0.0900    1.9320 C.3     1  UNL1        0.0800
      2  C          4.4590    1.1010    1.7680 C.2     1  UNL1        0.1300
      3  C          4.7450    2.1490    0.7520 C.3     1  UNL1        0.0870
      4  O          3.4720    1.2520    2.4700 O.2     1  UNL1       -0.3000
      5  C          6.8040    0.2960    1.8810 C.3     1  UNL1        0.0430
      6  C          7.4170   -0.0550    0.5880 C.2     1  UNL1       -0.0440
      7  C          7.9370    0.9250   -0.2660 C.2     1  UNL1        0.0080
      8  C          7.4880   -1.3740    0.2020 C.2     1  UNL1        0.0540
      9  C          8.5020    0.5360   -1.4670 C.2     1  UNL1        0.0510
     10  C          8.0610   -1.7610   -1.0130 C.2     1  UNL1        0.1660
     11  C          8.5720   -0.7980   -1.8550 C.2     1  UNL1        0.1650
     12  O          8.2480   -2.9880   -1.6150 O.2     1  UNL1       -0.4540
     13  O          9.0680   -1.4600   -2.9670 O.2     1  UNL1       -0.4540
     14  C          8.9650   -2.8560   -2.8160 C.3     1  UNL1        0.4680
@<TRIPOS>BOND
     1    13    14    1
     2    13    11    1
     3    14    12    1
     4    11     9    2
     5    11    10    1
     6    12    10    1
     7     9     7    1
     8    10     8    2
     9     7     6    2
    10     8     6    1
    11     6     5    1
    12     3     2    1
    13     2     1    1
    14     2     4    2
    15     5     1    1
