MODEL 1
REMARK VINA RESULT:      -7.7      0.000      0.000
REMARK SMILES CC(=O)CCc1ccc2c(c1)OCO2
REMARK SMILES IDX 4 1 2 2 1 3 3 4 5 5 6 6 7 7 11 8 8 9 10 10 9 11 12 12 14 13
REMARK SMILES IDX 13 14
REMARK H PARENT
REMARK Flexibility Score: inf
ROOT
ATOM      1  C   UNL     1       5.501   1.936   1.250  1.00  0.00     0.080 C 
ENDROOT
BRANCH   1   2
ATOM      2  C   UNL     1       5.072   0.721   1.996  1.00  0.00     0.130 C 
ATOM      3  C   UNL     1       5.975  -0.449   2.167  1.00  0.00     0.087 C 
ATOM      4  O   UNL     1       3.959   0.650   2.492  1.00  0.00    -0.300 OA
ENDBRANCH   1   2
BRANCH   1   5
ATOM      5  C   UNL     1       5.378   1.734  -0.248  1.00  0.00     0.043 C 
BRANCH   5   6
ATOM      6  C   UNL     1       6.548   1.032  -0.803  1.00  0.00    -0.044 A 
ATOM      7  C   UNL     1       7.854   1.463  -0.541  1.00  0.00     0.008 A 
ATOM      8  C   UNL     1       6.365  -0.077  -1.597  1.00  0.00     0.054 A 
ATOM      9  C   UNL     1       8.914   0.764  -1.088  1.00  0.00     0.051 A 
ATOM     10  C   UNL     1       7.440  -0.781  -2.147  1.00  0.00     0.166 A 
ATOM     11  C   UNL     1       8.725  -0.357  -1.891  1.00  0.00     0.165 A 
ATOM     12  O   UNL     1       7.519  -1.895  -2.956  1.00  0.00    -0.454 OA
ATOM     13  O   UNL     1       9.575  -1.229  -2.554  1.00  0.00    -0.454 OA
ATOM     14  C   UNL     1       8.855  -2.272  -3.167  1.00  0.00     0.468 C 
ENDBRANCH   5   6
ENDBRANCH   1   5
TORSDOF 3
ENDMDL
MODEL 2
REMARK VINA RESULT:      -7.4      1.944      2.369
REMARK SMILES CC(=O)CCc1ccc2c(c1)OCO2
REMARK SMILES IDX 4 1 2 2 1 3 3 4 5 5 6 6 7 7 11 8 8 9 10 10 9 11 12 12 14 13
REMARK SMILES IDX 13 14
REMARK H PARENT
REMARK Flexibility Score: inf
ROOT
ATOM      1  C   UNL     1       5.705   1.319  -0.230  1.00  0.00     0.080 C 
ENDROOT
BRANCH   1   2
ATOM      2  C   UNL     1       5.109   1.223   1.132  1.00  0.00     0.130 C 
ATOM      3  C   UNL     1       5.452   0.111   2.058  1.00  0.00     0.087 C 
ATOM      4  O   UNL     1       4.315   2.061   1.529  1.00  0.00    -0.300 OA
ENDBRANCH   1   2
BRANCH   1   5
ATOM      5  C   UNL     1       7.206   1.114  -0.190  1.00  0.00     0.043 C 
BRANCH   5   6
ATOM      6  C   UNL     1       7.599  -0.169  -0.798  1.00  0.00    -0.044 A 
ATOM      7  C   UNL     1       7.679  -0.328  -2.187  1.00  0.00     0.008 A 
ATOM      8  C   UNL     1       7.899  -1.243   0.008  1.00  0.00     0.054 A 
ATOM      9  C   UNL     1       8.055  -1.556  -2.701  1.00  0.00     0.051 A 
ATOM     10  C   UNL     1       8.279  -2.482  -0.517  1.00  0.00     0.166 A 
ATOM     11  C   UNL     1       8.357  -2.640  -1.883  1.00  0.00     0.165 A 
ATOM     12  O   UNL     1       8.621  -3.684   0.065  1.00  0.00    -0.454 OA
ATOM     13  O   UNL     1       8.751  -3.949  -2.113  1.00  0.00    -0.454 OA
ATOM     14  C   UNL     1       9.017  -4.620  -0.905  1.00  0.00     0.468 C 
ENDBRANCH   5   6
ENDBRANCH   1   5
TORSDOF 3
ENDMDL
MODEL 3
REMARK VINA RESULT:      -7.2      2.066      2.646
REMARK SMILES CC(=O)CCc1ccc2c(c1)OCO2
REMARK SMILES IDX 4 1 2 2 1 3 3 4 5 5 6 6 7 7 11 8 8 9 10 10 9 11 12 12 14 13
REMARK SMILES IDX 13 14
REMARK H PARENT
REMARK Flexibility Score: inf
ROOT
ATOM      1  C   UNL     1       5.400  -0.065   1.982  1.00  0.00     0.080 C 
ENDROOT
BRANCH   1   2
ATOM      2  C   UNL     1       4.570   1.147   1.740  1.00  0.00     0.130 C 
ATOM      3  C   UNL     1       4.904   2.121   0.666  1.00  0.00     0.087 C 
ATOM      4  O   UNL     1       3.584   1.378   2.422  1.00  0.00    -0.300 OA
ENDBRANCH   1   2
BRANCH   1   5
ATOM      5  C   UNL     1       6.843   0.167   1.581  1.00  0.00     0.043 C 
BRANCH   5   6
ATOM      6  C   UNL     1       7.271  -0.761   0.518  1.00  0.00    -0.044 A 
ATOM      7  C   UNL     1       7.124  -0.442  -0.836  1.00  0.00     0.008 A 
ATOM      8  C   UNL     1       7.833  -1.971   0.855  1.00  0.00     0.054 A 
ATOM      9  C   UNL     1       7.545  -1.352  -1.789  1.00  0.00     0.051 A 
ATOM     10  C   UNL     1       8.257  -2.887  -0.112  1.00  0.00     0.166 A 
ATOM     11  C   UNL     1       8.112  -2.575  -1.445  1.00  0.00     0.165 A 
ATOM     12  O   UNL     1       8.835  -4.137  -0.033  1.00  0.00    -0.454 OA
ATOM     13  O   UNL     1       8.610  -3.649  -2.165  1.00  0.00    -0.454 OA
ATOM     14  C   UNL     1       9.162  -4.622  -1.310  1.00  0.00     0.468 C 
ENDBRANCH   5   6
ENDBRANCH   1   5
TORSDOF 3
ENDMDL
MODEL 4
REMARK VINA RESULT:      -7.1      1.275      1.507
REMARK SMILES CC(=O)CCc1ccc2c(c1)OCO2
REMARK SMILES IDX 4 1 2 2 1 3 3 4 5 5 6 6 7 7 11 8 8 9 10 10 9 11 12 12 14 13
REMARK SMILES IDX 13 14
REMARK H PARENT
REMARK Flexibility Score: inf
ROOT
ATOM      1  C   UNL     1       6.422   1.175   0.915  1.00  0.00     0.080 C 
ENDROOT
BRANCH   1   2
ATOM      2  C   UNL     1       5.708   0.361   1.938  1.00  0.00     0.130 C 
ATOM      3  C   UNL     1       6.309  -0.872   2.514  1.00  0.00     0.087 C 
ATOM      4  O   UNL     1       4.601   0.686   2.336  1.00  0.00    -0.300 OA
ENDBRANCH   1   2
BRANCH   1   5
ATOM      5  C   UNL     1       5.907   0.880  -0.480  1.00  0.00     0.043 C 
BRANCH   5   6
ATOM      6  C   UNL     1       6.855   0.055  -1.250  1.00  0.00    -0.044 A 
ATOM      7  C   UNL     1       7.550   0.572  -2.350  1.00  0.00     0.008 A 
ATOM      8  C   UNL     1       7.072  -1.254  -0.887  1.00  0.00     0.054 A 
ATOM      9  C   UNL     1       8.428  -0.249  -3.034  1.00  0.00     0.051 A 
ATOM     10  C   UNL     1       7.961  -2.079  -1.581  1.00  0.00     0.166 A 
ATOM     11  C   UNL     1       8.644  -1.573  -2.664  1.00  0.00     0.165 A 
ATOM     12  O   UNL     1       8.344  -3.394  -1.420  1.00  0.00    -0.454 OA
ATOM     13  O   UNL     1       9.442  -2.597  -3.150  1.00  0.00    -0.454 OA
ATOM     14  C   UNL     1       9.351  -3.742  -2.336  1.00  0.00     0.468 C 
ENDBRANCH   5   6
ENDBRANCH   1   5
TORSDOF 3
ENDMDL
MODEL 5
REMARK VINA RESULT:      -6.9      1.942      2.516
REMARK SMILES CC(=O)CCc1ccc2c(c1)OCO2
REMARK SMILES IDX 4 1 2 2 1 3 3 4 5 5 6 6 7 7 11 8 8 9 10 10 9 11 12 12 14 13
REMARK SMILES IDX 13 14
REMARK H PARENT
REMARK Flexibility Score: inf
ROOT
ATOM      1  C   UNL     1       6.894   0.904   1.122  1.00  0.00     0.080 C 
ENDROOT
BRANCH   1   2
ATOM      2  C   UNL     1       5.463   1.102   1.488  1.00  0.00     0.130 C 
ATOM      3  C   UNL     1       4.629   2.150   0.840  1.00  0.00     0.087 C 
ATOM      4  O   UNL     1       4.931   0.406   2.337  1.00  0.00    -0.300 OA
ENDBRANCH   1   2
BRANCH   1   5
ATOM      5  C   UNL     1       7.097   1.003  -0.377  1.00  0.00     0.043 C 
BRANCH   5   6
ATOM      6  C   UNL     1       7.539  -0.280  -0.953  1.00  0.00    -0.044 A 
ATOM      7  C   UNL     1       7.671  -0.455  -2.335  1.00  0.00     0.008 A 
ATOM      8  C   UNL     1       7.834  -1.336  -0.121  1.00  0.00     0.054 A 
ATOM      9  C   UNL     1       8.091  -1.681  -2.819  1.00  0.00     0.051 A 
ATOM     10  C   UNL     1       8.259  -2.573  -0.615  1.00  0.00     0.166 A 
ATOM     11  C   UNL     1       8.388  -2.747  -1.975  1.00  0.00     0.165 A 
ATOM     12  O   UNL     1       8.606  -3.760  -0.005  1.00  0.00    -0.454 OA
ATOM     13  O   UNL     1       8.818  -4.050  -2.174  1.00  0.00    -0.454 OA
ATOM     14  C   UNL     1       9.056  -4.699  -0.947  1.00  0.00     0.468 C 
ENDBRANCH   5   6
ENDBRANCH   1   5
TORSDOF 3
ENDMDL
