@<TRIPOS>MOLECULE
/home/cewinharhar/GITHUB/reincatalyze/data/processed/docking_pred/2023-May-22-2206_sub9_nm5_bs15_s42_ex16_mel10_mts10000_k50_ec02_g099_lra9e-4_lrc1e-3/cc4a81c85f0f72a0e9860fd8246284f5ccc1e781_ligand_9.pdbqt
 14 15 0 0 0
SMALL
GASTEIGER

@<TRIPOS>ATOM
      1  C          5.7050    1.3190   -0.2300 C.3     1  UNL1        0.0800
      2  C          5.1090    1.2230    1.1320 C.2     1  UNL1        0.1300
      3  C          5.4520    0.1110    2.0580 C.3     1  UNL1        0.0870
      4  O          4.3150    2.0610    1.5290 O.2     1  UNL1       -0.3000
      5  C          7.2060    1.1140   -0.1900 C.3     1  UNL1        0.0430
      6  C          7.5990   -0.1690   -0.7980 C.2     1  UNL1       -0.0440
      7  C          7.6790   -0.3280   -2.1870 C.2     1  UNL1        0.0080
      8  C          7.8990   -1.2430    0.0080 C.2     1  UNL1        0.0540
      9  C          8.0550   -1.5560   -2.7010 C.2     1  UNL1        0.0510
     10  C          8.2790   -2.4820   -0.5170 C.2     1  UNL1        0.1660
     11  C          8.3570   -2.6400   -1.8830 C.2     1  UNL1        0.1650
     12  O          8.6210   -3.6840    0.0650 O.2     1  UNL1       -0.4540
     13  O          8.7510   -3.9490   -2.1130 O.2     1  UNL1       -0.4540
     14  C          9.0170   -4.6200   -0.9050 C.3     1  UNL1        0.4680
@<TRIPOS>BOND
     1     9     7    1
     2     9    11    2
     3     7     6    2
     4    13    11    1
     5    13    14    1
     6    11    10    1
     7    14    12    1
     8     6     5    1
     9     6     8    1
    10    10     8    2
    11    10    12    1
    12     1     5    1
    13     1     2    1
    14     2     4    2
    15     2     3    1
