@<TRIPOS>MOLECULE
/home/cewinharhar/GITHUB/reincatalyze/data/processed/docking_pred/2023-May-22-2206_sub9_nm5_bs15_s42_ex16_mel10_mts10000_k50_ec02_g099_lra9e-4_lrc1e-3/cc4a81c85f0f72a0e9860fd8246284f5ccc1e781_ligand_9.pdbqt
 14 15 0 0 0
SMALL
GASTEIGER

@<TRIPOS>ATOM
      1  C          6.4220    1.1750    0.9150 C.3     1  UNL1        0.0800
      2  C          5.7080    0.3610    1.9380 C.2     1  UNL1        0.1300
      3  C          6.3090   -0.8720    2.5140 C.3     1  UNL1        0.0870
      4  O          4.6010    0.6860    2.3360 O.2     1  UNL1       -0.3000
      5  C          5.9070    0.8800   -0.4800 C.3     1  UNL1        0.0430
      6  C          6.8550    0.0550   -1.2500 C.2     1  UNL1       -0.0440
      7  C          7.5500    0.5720   -2.3500 C.2     1  UNL1        0.0080
      8  C          7.0720   -1.2540   -0.8870 C.2     1  UNL1        0.0540
      9  C          8.4280   -0.2490   -3.0340 C.2     1  UNL1        0.0510
     10  C          7.9610   -2.0790   -1.5810 C.2     1  UNL1        0.1660
     11  C          8.6440   -1.5730   -2.6640 C.2     1  UNL1        0.1650
     12  O          8.3440   -3.3940   -1.4200 O.2     1  UNL1       -0.4540
     13  O          9.4420   -2.5970   -3.1500 O.2     1  UNL1       -0.4540
     14  C          9.3510   -3.7420   -2.3360 C.3     1  UNL1        0.4680
@<TRIPOS>BOND
     1    13    11    1
     2    13    14    1
     3     9    11    2
     4     9     7    1
     5    11    10    1
     6     7     6    2
     7    14    12    1
     8    10    12    1
     9    10     8    2
    10     6     8    1
    11     6     5    1
    12     5     1    1
    13     1     2    1
    14     2     4    2
    15     2     3    1
