@<TRIPOS>MOLECULE
/home/cewinharhar/GITHUB/reincatalyze/data/processed/docking_pred/2023-May-22-2206_sub9_nm5_bs15_s42_ex16_mel10_mts10000_k50_ec02_g099_lra9e-4_lrc1e-3/cc4a81c85f0f72a0e9860fd8246284f5ccc1e781_ligand_9.pdbqt
 14 15 0 0 0
SMALL
GASTEIGER

@<TRIPOS>ATOM
      1  C          6.8940    0.9040    1.1220 C.3     1  UNL1        0.0800
      2  C          5.4630    1.1020    1.4880 C.2     1  UNL1        0.1300
      3  C          4.6290    2.1500    0.8400 C.3     1  UNL1        0.0870
      4  O          4.9310    0.4060    2.3370 O.2     1  UNL1       -0.3000
      5  C          7.0970    1.0030   -0.3770 C.3     1  UNL1        0.0430
      6  C          7.5390   -0.2800   -0.9530 C.2     1  UNL1       -0.0440
      7  C          7.6710   -0.4550   -2.3350 C.2     1  UNL1        0.0080
      8  C          7.8340   -1.3360   -0.1210 C.2     1  UNL1        0.0540
      9  C          8.0910   -1.6810   -2.8190 C.2     1  UNL1        0.0510
     10  C          8.2590   -2.5730   -0.6150 C.2     1  UNL1        0.1660
     11  C          8.3880   -2.7470   -1.9750 C.2     1  UNL1        0.1650
     12  O          8.6060   -3.7600   -0.0050 O.2     1  UNL1       -0.4540
     13  O          8.8180   -4.0500   -2.1740 O.2     1  UNL1       -0.4540
     14  C          9.0560   -4.6990   -0.9470 C.3     1  UNL1        0.4680
@<TRIPOS>BOND
     1     9     7    1
     2     9    11    2
     3     7     6    2
     4    13    11    1
     5    13    14    1
     6    11    10    1
     7     6     5    1
     8     6     8    1
     9    14    12    1
    10    10     8    2
    11    10    12    1
    12     5     1    1
    13     3     2    1
    14     1     2    1
    15     2     4    2
