@<TRIPOS>MOLECULE
/home/cewinharhar/GITHUB/reincatalyze/data/processed/docking_pred/2023-May-22-2206_sub9_nm5_bs15_s42_ex16_mel10_mts10000_k50_ec02_g099_lra9e-4_lrc1e-3/d0b377ce7413ba2d0a06352180e6db5bf746794c_ligand_9.pdbqt
 14 15 0 0 0
SMALL
GASTEIGER

@<TRIPOS>ATOM
      1  C          5.4090   -0.0340    2.0500 C.3     1  UNL1        0.0800
      2  C          4.5410    1.1440    1.7720 C.2     1  UNL1        0.1300
      3  C          4.8700    2.1210    0.6990 C.3     1  UNL1        0.0870
      4  O          3.5280    1.3440    2.4220 O.2     1  UNL1       -0.3000
      5  C          6.8400    0.2230    1.6190 C.3     1  UNL1        0.0430
      6  C          7.2610   -0.6980    0.5480 C.2     1  UNL1       -0.0440
      7  C          7.1170   -0.3640   -0.8040 C.2     1  UNL1        0.0080
      8  C          7.8130   -1.9160    0.8730 C.2     1  UNL1        0.0540
      9  C          7.5320   -1.2680   -1.7660 C.2     1  UNL1        0.0510
     10  C          8.2300   -2.8260   -0.1030 C.2     1  UNL1        0.1660
     11  C          8.0880   -2.4990   -1.4330 C.2     1  UNL1        0.1650
     12  O          8.7990   -4.0800   -0.0370 O.2     1  UNL1       -0.4540
     13  O          8.5780   -3.5700   -2.1640 O.2     1  UNL1       -0.4540
     14  C          9.1220   -4.5560   -1.3180 C.3     1  UNL1        0.4680
@<TRIPOS>BOND
     1    13    11    1
     2    13    14    1
     3     9    11    2
     4     9     7    1
     5    11    10    1
     6    14    12    1
     7     7     6    2
     8    10    12    1
     9    10     8    2
    10     6     8    1
    11     6     5    1
    12     3     2    1
    13     5     1    1
    14     2     1    1
    15     2     4    2
