MODEL 1
REMARK VINA RESULT:      -7.6      0.000      0.000
REMARK SMILES CC(=O)CCc1ccc2c(c1)OCO2
REMARK SMILES IDX 4 1 2 2 1 3 3 4 5 5 6 6 7 7 11 8 8 9 10 10 9 11 12 12 14 13
REMARK SMILES IDX 13 14
REMARK H PARENT
REMARK Flexibility Score: inf
ROOT
ATOM      1  C   UNL     1       5.601   1.740   1.167  1.00  0.00     0.080 C 
ENDROOT
BRANCH   1   2
ATOM      2  C   UNL     1       5.119   0.567   1.949  1.00  0.00     0.130 C 
ATOM      3  C   UNL     1       5.916  -0.685   2.051  1.00  0.00     0.087 C 
ATOM      4  O   UNL     1       4.048   0.601   2.533  1.00  0.00    -0.300 OA
ENDBRANCH   1   2
BRANCH   1   5
ATOM      5  C   UNL     1       5.476   1.496  -0.323  1.00  0.00     0.043 C 
BRANCH   5   6
ATOM      6  C   UNL     1       6.718   0.943  -0.893  1.00  0.00    -0.044 A 
ATOM      7  C   UNL     1       7.975   1.444  -0.536  1.00  0.00     0.008 A 
ATOM      8  C   UNL     1       6.651  -0.093  -1.797  1.00  0.00     0.054 A 
ATOM      9  C   UNL     1       9.106   0.885  -1.103  1.00  0.00     0.051 A 
ATOM     10  C   UNL     1       7.797  -0.655  -2.367  1.00  0.00     0.166 A 
ATOM     11  C   UNL     1       9.035  -0.162  -2.017  1.00  0.00     0.165 A 
ATOM     12  O   UNL     1       7.992  -1.674  -3.274  1.00  0.00    -0.454 OA
ATOM     13  O   UNL     1       9.974  -0.897  -2.724  1.00  0.00    -0.454 OA
ATOM     14  C   UNL     1       9.361  -1.926  -3.464  1.00  0.00     0.468 C 
ENDBRANCH   5   6
ENDBRANCH   1   5
TORSDOF 3
ENDMDL
MODEL 2
REMARK VINA RESULT:      -7.4      1.000      1.868
REMARK SMILES CC(=O)CCc1ccc2c(c1)OCO2
REMARK SMILES IDX 4 1 2 2 1 3 3 4 5 5 6 6 7 7 11 8 8 9 10 10 9 11 12 12 14 13
REMARK SMILES IDX 13 14
REMARK H PARENT
REMARK Flexibility Score: inf
ROOT
ATOM      1  C   UNL     1       6.079   1.362   1.071  1.00  0.00     0.080 C 
ENDROOT
BRANCH   1   2
ATOM      2  C   UNL     1       5.567   0.316   2.001  1.00  0.00     0.130 C 
ATOM      3  C   UNL     1       6.375  -0.883   2.348  1.00  0.00     0.087 C 
ATOM      4  O   UNL     1       4.462   0.416   2.509  1.00  0.00    -0.300 OA
ENDBRANCH   1   2
BRANCH   1   5
ATOM      5  C   UNL     1       5.691   1.060  -0.363  1.00  0.00     0.043 C 
BRANCH   5   6
ATOM      6  C   UNL     1       6.811   0.471  -1.119  1.00  0.00    -0.044 A 
ATOM      7  C   UNL     1       6.672  -0.736  -1.814  1.00  0.00     0.008 A 
ATOM      8  C   UNL     1       8.026   1.117  -1.152  1.00  0.00     0.054 A 
ATOM      9  C   UNL     1       7.757  -1.240  -2.507  1.00  0.00     0.051 A 
ATOM     10  C   UNL     1       9.120   0.604  -1.855  1.00  0.00     0.166 A 
ATOM     11  C   UNL     1       8.985  -0.585  -2.538  1.00  0.00     0.165 A 
ATOM     12  O   UNL     1      10.412   1.049  -2.038  1.00  0.00    -0.454 OA
ATOM     13  O   UNL     1      10.209  -0.847  -3.133  1.00  0.00    -0.454 OA
ATOM     14  C   UNL     1      11.115   0.208  -2.916  1.00  0.00     0.468 C 
ENDBRANCH   5   6
ENDBRANCH   1   5
TORSDOF 3
ENDMDL
MODEL 3
REMARK VINA RESULT:      -7.2      1.264      2.311
REMARK SMILES CC(=O)CCc1ccc2c(c1)OCO2
REMARK SMILES IDX 4 1 2 2 1 3 3 4 5 5 6 6 7 7 11 8 8 9 10 10 9 11 12 12 14 13
REMARK SMILES IDX 13 14
REMARK H PARENT
REMARK Flexibility Score: inf
ROOT
ATOM      1  C   UNL     1       5.794  -0.509   1.734  1.00  0.00     0.080 C 
ENDROOT
BRANCH   1   2
ATOM      2  C   UNL     1       4.966   0.729   1.761  1.00  0.00     0.130 C 
ATOM      3  C   UNL     1       5.228   1.864   0.837  1.00  0.00     0.087 C 
ATOM      4  O   UNL     1       4.042   0.847   2.549  1.00  0.00    -0.300 OA
ENDBRANCH   1   2
BRANCH   1   5
ATOM      5  C   UNL     1       7.251  -0.191   1.466  1.00  0.00     0.043 C 
BRANCH   5   6
ATOM      6  C   UNL     1       7.588  -0.330   0.038  1.00  0.00    -0.044 A 
ATOM      7  C   UNL     1       6.926  -1.248  -0.785  1.00  0.00     0.008 A 
ATOM      8  C   UNL     1       8.573   0.459  -0.511  1.00  0.00     0.054 A 
ATOM      9  C   UNL     1       7.284  -1.334  -2.118  1.00  0.00     0.051 A 
ATOM     10  C   UNL     1       8.931   0.370  -1.859  1.00  0.00     0.166 A 
ATOM     11  C   UNL     1       8.281  -0.535  -2.670  1.00  0.00     0.165 A 
ATOM     12  O   UNL     1       9.862   1.032  -2.631  1.00  0.00    -0.454 OA
ATOM     13  O   UNL     1       8.832  -0.407  -3.935  1.00  0.00    -0.454 OA
ATOM     14  C   UNL     1       9.774   0.638  -3.976  1.00  0.00     0.468 C 
ENDBRANCH   5   6
ENDBRANCH   1   5
TORSDOF 3
ENDMDL
MODEL 4
REMARK VINA RESULT:      -7.1      2.103      2.591
REMARK SMILES CC(=O)CCc1ccc2c(c1)OCO2
REMARK SMILES IDX 4 1 2 2 1 3 3 4 5 5 6 6 7 7 11 8 8 9 10 10 9 11 12 12 14 13
REMARK SMILES IDX 13 14
REMARK H PARENT
REMARK Flexibility Score: inf
ROOT
ATOM      1  C   UNL     1       5.759   1.064  -0.381  1.00  0.00     0.080 C 
ENDROOT
BRANCH   1   2
ATOM      2  C   UNL     1       5.389   1.108   1.061  1.00  0.00     0.130 C 
ATOM      3  C   UNL     1       5.441  -0.107   1.917  1.00  0.00     0.087 C 
ATOM      4  O   UNL     1       5.030   2.150   1.585  1.00  0.00    -0.300 OA
ENDBRANCH   1   2
BRANCH   1   5
ATOM      5  C   UNL     1       7.263   1.008  -0.563  1.00  0.00     0.043 C 
BRANCH   5   6
ATOM      6  C   UNL     1       7.700  -0.293  -1.099  1.00  0.00    -0.044 A 
ATOM      7  C   UNL     1       7.920  -0.485  -2.468  1.00  0.00     0.008 A 
ATOM      8  C   UNL     1       7.902  -1.351  -0.242  1.00  0.00     0.054 A 
ATOM      9  C   UNL     1       8.331  -1.728  -2.914  1.00  0.00     0.051 A 
ATOM     10  C   UNL     1       8.318  -2.606  -0.698  1.00  0.00     0.166 A 
ATOM     11  C   UNL     1       8.534  -2.796  -2.045  1.00  0.00     0.165 A 
ATOM     12  O   UNL     1       8.584  -3.797  -0.057  1.00  0.00    -0.454 OA
ATOM     13  O   UNL     1       8.933  -4.113  -2.205  1.00  0.00    -0.454 OA
ATOM     14  C   UNL     1       9.065  -4.759  -0.961  1.00  0.00     0.468 C 
ENDBRANCH   5   6
ENDBRANCH   1   5
TORSDOF 3
ENDMDL
MODEL 5
REMARK VINA RESULT:      -7.0      2.162      2.760
REMARK SMILES CC(=O)CCc1ccc2c(c1)OCO2
REMARK SMILES IDX 4 1 2 2 1 3 3 4 5 5 6 6 7 7 11 8 8 9 10 10 9 11 12 12 14 13
REMARK SMILES IDX 13 14
REMARK H PARENT
REMARK Flexibility Score: inf
ROOT
ATOM      1  C   UNL     1       5.409  -0.034   2.050  1.00  0.00     0.080 C 
ENDROOT
BRANCH   1   2
ATOM      2  C   UNL     1       4.541   1.144   1.772  1.00  0.00     0.130 C 
ATOM      3  C   UNL     1       4.870   2.121   0.699  1.00  0.00     0.087 C 
ATOM      4  O   UNL     1       3.528   1.344   2.422  1.00  0.00    -0.300 OA
ENDBRANCH   1   2
BRANCH   1   5
ATOM      5  C   UNL     1       6.840   0.223   1.619  1.00  0.00     0.043 C 
BRANCH   5   6
ATOM      6  C   UNL     1       7.261  -0.698   0.548  1.00  0.00    -0.044 A 
ATOM      7  C   UNL     1       7.117  -0.364  -0.804  1.00  0.00     0.008 A 
ATOM      8  C   UNL     1       7.813  -1.916   0.873  1.00  0.00     0.054 A 
ATOM      9  C   UNL     1       7.532  -1.268  -1.766  1.00  0.00     0.051 A 
ATOM     10  C   UNL     1       8.230  -2.826  -0.103  1.00  0.00     0.166 A 
ATOM     11  C   UNL     1       8.088  -2.499  -1.433  1.00  0.00     0.165 A 
ATOM     12  O   UNL     1       8.799  -4.080  -0.037  1.00  0.00    -0.454 OA
ATOM     13  O   UNL     1       8.578  -3.570  -2.164  1.00  0.00    -0.454 OA
ATOM     14  C   UNL     1       9.122  -4.556  -1.318  1.00  0.00     0.468 C 
ENDBRANCH   5   6
ENDBRANCH   1   5
TORSDOF 3
ENDMDL
