@<TRIPOS>MOLECULE
/home/cewinharhar/GITHUB/reincatalyze/data/processed/docking_pred/2023-May-22-2206_sub9_nm5_bs15_s42_ex16_mel10_mts10000_k50_ec02_g099_lra9e-4_lrc1e-3/d0b377ce7413ba2d0a06352180e6db5bf746794c_ligand_9.pdbqt
 14 15 0 0 0
SMALL
GASTEIGER

@<TRIPOS>ATOM
      1  C          6.0790    1.3620    1.0710 C.3     1  UNL1        0.0800
      2  C          5.5670    0.3160    2.0010 C.2     1  UNL1        0.1300
      3  C          6.3750   -0.8830    2.3480 C.3     1  UNL1        0.0870
      4  O          4.4620    0.4160    2.5090 O.2     1  UNL1       -0.3000
      5  C          5.6910    1.0600   -0.3630 C.3     1  UNL1        0.0430
      6  C          6.8110    0.4710   -1.1190 C.2     1  UNL1       -0.0440
      7  C          6.6720   -0.7360   -1.8140 C.2     1  UNL1        0.0080
      8  C          8.0260    1.1170   -1.1520 C.2     1  UNL1        0.0540
      9  C          7.7570   -1.2400   -2.5070 C.2     1  UNL1        0.0510
     10  C          9.1200    0.6040   -1.8550 C.2     1  UNL1        0.1660
     11  C          8.9850   -0.5850   -2.5380 C.2     1  UNL1        0.1650
     12  O         10.4120    1.0490   -2.0380 O.2     1  UNL1       -0.4540
     13  O         10.2090   -0.8470   -3.1330 O.2     1  UNL1       -0.4540
     14  C         11.1150    0.2080   -2.9160 C.3     1  UNL1        0.4680
@<TRIPOS>BOND
     1    13    14    1
     2    13    11    1
     3    14    12    1
     4    11     9    2
     5    11    10    1
     6     9     7    1
     7    12    10    1
     8    10     8    2
     9     7     6    2
    10     8     6    1
    11     6     5    1
    12     5     1    1
    13     1     2    1
    14     2     3    1
    15     2     4    2
