@<TRIPOS>MOLECULE
/home/cewinharhar/GITHUB/reincatalyze/data/processed/docking_pred/2023-May-22-2206_sub9_nm5_bs15_s42_ex16_mel10_mts10000_k50_ec02_g099_lra9e-4_lrc1e-3/d0b377ce7413ba2d0a06352180e6db5bf746794c_ligand_9.pdbqt
 14 15 0 0 0
SMALL
GASTEIGER

@<TRIPOS>ATOM
      1  C          5.6010    1.7400    1.1670 C.3     1  UNL1        0.0800
      2  C          5.1190    0.5670    1.9490 C.2     1  UNL1        0.1300
      3  C          5.9160   -0.6850    2.0510 C.3     1  UNL1        0.0870
      4  O          4.0480    0.6010    2.5330 O.2     1  UNL1       -0.3000
      5  C          5.4760    1.4960   -0.3230 C.3     1  UNL1        0.0430
      6  C          6.7180    0.9430   -0.8930 C.2     1  UNL1       -0.0440
      7  C          7.9750    1.4440   -0.5360 C.2     1  UNL1        0.0080
      8  C          6.6510   -0.0930   -1.7970 C.2     1  UNL1        0.0540
      9  C          9.1060    0.8850   -1.1030 C.2     1  UNL1        0.0510
     10  C          7.7970   -0.6550   -2.3670 C.2     1  UNL1        0.1660
     11  C          9.0350   -0.1620   -2.0170 C.2     1  UNL1        0.1650
     12  O          7.9920   -1.6740   -3.2740 O.2     1  UNL1       -0.4540
     13  O          9.9740   -0.8970   -2.7240 O.2     1  UNL1       -0.4540
     14  C          9.3610   -1.9260   -3.4640 C.3     1  UNL1        0.4680
@<TRIPOS>BOND
     1    14    12    1
     2    14    13    1
     3    12    10    1
     4    13    11    1
     5    10    11    2
     6    10     8    1
     7    11     9    1
     8     8     6    2
     9     9     7    2
    10     6     7    1
    11     6     5    1
    12     5     1    1
    13     1     2    1
    14     2     3    1
    15     2     4    2
