@<TRIPOS>MOLECULE
/home/cewinharhar/GITHUB/reincatalyze/data/processed/docking_pred/2023-May-22-2206_sub9_nm5_bs15_s42_ex16_mel10_mts10000_k50_ec02_g099_lra9e-4_lrc1e-3/d0b377ce7413ba2d0a06352180e6db5bf746794c_ligand_9.pdbqt
 14 15 0 0 0
SMALL
GASTEIGER

@<TRIPOS>ATOM
      1  C          5.7940   -0.5090    1.7340 C.3     1  UNL1        0.0800
      2  C          4.9660    0.7290    1.7610 C.2     1  UNL1        0.1300
      3  C          5.2280    1.8640    0.8370 C.3     1  UNL1        0.0870
      4  O          4.0420    0.8470    2.5490 O.2     1  UNL1       -0.3000
      5  C          7.2510   -0.1910    1.4660 C.3     1  UNL1        0.0430
      6  C          7.5880   -0.3300    0.0380 C.2     1  UNL1       -0.0440
      7  C          6.9260   -1.2480   -0.7850 C.2     1  UNL1        0.0080
      8  C          8.5730    0.4590   -0.5110 C.2     1  UNL1        0.0540
      9  C          7.2840   -1.3340   -2.1180 C.2     1  UNL1        0.0510
     10  C          8.9310    0.3700   -1.8590 C.2     1  UNL1        0.1660
     11  C          8.2810   -0.5350   -2.6700 C.2     1  UNL1        0.1650
     12  O          9.8620    1.0320   -2.6310 O.2     1  UNL1       -0.4540
     13  O          8.8320   -0.4070   -3.9350 O.2     1  UNL1       -0.4540
     14  C          9.7740    0.6380   -3.9760 C.3     1  UNL1        0.4680
@<TRIPOS>BOND
     1    14    13    1
     2    14    12    1
     3    13    11    1
     4    11     9    2
     5    11    10    1
     6    12    10    1
     7     9     7    1
     8    10     8    2
     9     7     6    2
    10     8     6    1
    11     6     5    1
    12     3     2    1
    13     5     1    1
    14     1     2    1
    15     2     4    2
