@<TRIPOS>MOLECULE
/home/cewinharhar/GITHUB/reincatalyze/data/processed/docking_pred/2023-May-22-2206_sub9_nm5_bs15_s42_ex16_mel10_mts10000_k50_ec02_g099_lra9e-4_lrc1e-3/d18fc177cce43baae8a65556dd45e7572e61ad5e_ligand_9.pdbqt
 14 15 0 0 0
SMALL
GASTEIGER

@<TRIPOS>ATOM
      1  C          5.6060    0.0830    1.9670 C.3     1  UNL1        0.0800
      2  C          4.6840    1.2050    1.6320 C.2     1  UNL1        0.1300
      3  C          4.9650    2.1380    0.5080 C.3     1  UNL1        0.0870
      4  O          3.6640    1.3910    2.2760 O.2     1  UNL1       -0.3000
      5  C          7.0040    0.3450    1.4420 C.3     1  UNL1        0.0430
      6  C          7.3960   -0.6390    0.4170 C.2     1  UNL1       -0.0440
      7  C          7.2850   -0.3580   -0.9490 C.2     1  UNL1        0.0080
      8  C          7.8850   -1.8670    0.8020 C.2     1  UNL1        0.0540
      9  C          7.6690   -1.3200   -1.8660 C.2     1  UNL1        0.0510
     10  C          8.2730   -2.8360   -0.1280 C.2     1  UNL1        0.1660
     11  C          8.1630   -2.5600   -1.4730 C.2     1  UNL1        0.1650
     12  O          8.7810   -4.1110   -0.0010 O.2     1  UNL1       -0.4540
     13  O          8.6120   -3.6830   -2.1500 O.2     1  UNL1       -0.4540
     14  C          9.0980   -4.6560   -1.2560 C.3     1  UNL1        0.4680
@<TRIPOS>BOND
     1    13    11    1
     2    13    14    1
     3     9    11    2
     4     9     7    1
     5    11    10    1
     6    14    12    1
     7     7     6    2
     8    10    12    1
     9    10     8    2
    10     6     8    1
    11     6     5    1
    12     3     2    1
    13     5     1    1
    14     2     1    1
    15     2     4    2
