@<TRIPOS>MOLECULE
/home/cewinharhar/GITHUB/reincatalyze/data/processed/docking_pred/2023-May-22-2206_sub9_nm5_bs15_s42_ex16_mel10_mts10000_k50_ec02_g099_lra9e-4_lrc1e-3/d27e6afc186b75c76b7fe435f4b9560b42cd14a2_ligand_9.pdbqt
 14 15 0 0 0
SMALL
GASTEIGER

@<TRIPOS>ATOM
      1  C          8.0170   -1.7490   -2.3090 C.3     1  UNL1        0.0800
      2  C          8.7480   -0.4560   -2.4250 C.2     1  UNL1        0.1300
      3  C          8.2370    0.6570   -3.2680 C.3     1  UNL1        0.0870
      4  O          9.7950   -0.2730   -1.8260 O.2     1  UNL1       -0.3000
      5  C          8.1660   -2.3440   -0.9230 C.3     1  UNL1        0.0430
      6  C          7.3210   -1.6490    0.0650 C.2     1  UNL1       -0.0440
      7  C          7.2380   -2.0820    1.3930 C.2     1  UNL1        0.0080
      8  C          6.5920   -0.5450   -0.3180 C.2     1  UNL1        0.0540
      9  C          6.4290   -1.3900    2.2750 C.2     1  UNL1        0.0510
     10  C          5.7760    0.1510    0.5780 C.2     1  UNL1        0.1660
     11  C          5.6930   -0.2750    1.8850 C.2     1  UNL1        0.1650
     12  O          4.9650    1.2590    0.4450 O.2     1  UNL1       -0.4540
     13  O          4.8250    0.5900    2.5340 O.2     1  UNL1       -0.4540
     14  C          4.4120    1.6300    1.6810 C.3     1  UNL1        0.4680
@<TRIPOS>BOND
     1     3     2    1
     2     2     1    1
     3     2     4    2
     4     1     5    1
     5     5     6    1
     6     8     6    2
     7     8    10    1
     8     6     7    1
     9    12    10    1
    10    12    14    1
    11    10    11    2
    12     7     9    2
    13    14    13    1
    14    11     9    1
    15    11    13    1
