@<TRIPOS>MOLECULE
/home/cewinharhar/GITHUB/reincatalyze/data/processed/docking_pred/2023-May-22-2206_sub9_nm5_bs15_s42_ex16_mel10_mts10000_k50_ec02_g099_lra9e-4_lrc1e-3/d32515ef85c53a65d829162c3cbbbf13c46f52f9_ligand_9.pdbqt
 14 15 0 0 0
SMALL
GASTEIGER

@<TRIPOS>ATOM
      1  C          5.7540    1.3900   -0.3200 C.3     1  UNL1        0.0800
      2  C          5.1060    1.3040    1.0190 C.2     1  UNL1        0.1300
      3  C          5.4070    0.1950    1.9620 C.3     1  UNL1        0.0870
      4  O          4.3020    2.1480    1.3820 O.2     1  UNL1       -0.3000
      5  C          7.2440    1.1290   -0.2280 C.3     1  UNL1        0.0430
      6  C          7.6110   -0.1630   -0.8340 C.2     1  UNL1       -0.0440
      7  C          7.6750   -0.3290   -2.2220 C.2     1  UNL1        0.0080
      8  C          7.9010   -1.2380   -0.0250 C.2     1  UNL1        0.0540
      9  C          8.0260   -1.5650   -2.7350 C.2     1  UNL1        0.0510
     10  C          8.2560   -2.4860   -0.5480 C.2     1  UNL1        0.1660
     11  C          8.3180   -2.6500   -1.9140 C.2     1  UNL1        0.1650
     12  O          8.5850   -3.6900    0.0360 O.2     1  UNL1       -0.4540
     13  O          8.6890   -3.9660   -2.1430 O.2     1  UNL1       -0.4540
     14  C          8.9560   -4.6360   -0.9340 C.3     1  UNL1        0.4680
@<TRIPOS>BOND
     1     9     7    1
     2     9    11    2
     3     7     6    2
     4    13    11    1
     5    13    14    1
     6    11    10    1
     7    14    12    1
     8     6     5    1
     9     6     8    1
    10    10     8    2
    11    10    12    1
    12     1     5    1
    13     1     2    1
    14     2     4    2
    15     2     3    1
