@<TRIPOS>MOLECULE
/home/cewinharhar/GITHUB/reincatalyze/data/processed/docking_pred/2023-May-22-2206_sub9_nm5_bs15_s42_ex16_mel10_mts10000_k50_ec02_g099_lra9e-4_lrc1e-3/d32515ef85c53a65d829162c3cbbbf13c46f52f9_ligand_9.pdbqt
 14 15 0 0 0
SMALL
GASTEIGER

@<TRIPOS>ATOM
      1  C          6.4170    1.1780    0.9330 C.3     1  UNL1        0.0800
      2  C          5.6770    0.3520    1.9280 C.2     1  UNL1        0.1300
      3  C          6.2660   -0.8830    2.5110 C.3     1  UNL1        0.0870
      4  O          4.5560    0.6680    2.2940 O.2     1  UNL1       -0.3000
      5  C          5.9170    0.9240   -0.4750 C.3     1  UNL1        0.0430
      6  C          6.8550    0.0900   -1.2460 C.2     1  UNL1       -0.0440
      7  C          7.5450    0.5950   -2.3540 C.2     1  UNL1        0.0080
      8  C          7.0670   -1.2190   -0.8760 C.2     1  UNL1        0.0540
      9  C          8.4130   -0.2350   -3.0400 C.2     1  UNL1        0.0510
     10  C          7.9470   -2.0540   -1.5710 C.2     1  UNL1        0.1660
     11  C          8.6250   -1.5580   -2.6630 C.2     1  UNL1        0.1650
     12  O          8.3240   -3.3690   -1.4050 O.2     1  UNL1       -0.4540
     13  O          9.4130   -2.5900   -3.1470 O.2     1  UNL1       -0.4540
     14  C          9.3210   -3.7290   -2.3250 C.3     1  UNL1        0.4680
@<TRIPOS>BOND
     1    13    11    1
     2    13    14    1
     3     9    11    2
     4     9     7    1
     5    11    10    1
     6     7     6    2
     7    14    12    1
     8    10    12    1
     9    10     8    2
    10     6     8    1
    11     6     5    1
    12     5     1    1
    13     1     2    1
    14     2     4    2
    15     2     3    1
