@<TRIPOS>MOLECULE
/home/cewinharhar/GITHUB/reincatalyze/data/processed/docking_pred/2023-May-22-2206_sub9_nm5_bs15_s42_ex16_mel10_mts10000_k50_ec02_g099_lra9e-4_lrc1e-3/d32515ef85c53a65d829162c3cbbbf13c46f52f9_ligand_9.pdbqt
 14 15 0 0 0
SMALL
GASTEIGER

@<TRIPOS>ATOM
      1  C          5.4030   -0.0590    2.0210 C.3     1  UNL1        0.0800
      2  C          4.5630    1.1450    1.7690 C.2     1  UNL1        0.1300
      3  C          4.9080    2.1300    0.7100 C.3     1  UNL1        0.0870
      4  O          3.5590    1.3580    2.4310 O.2     1  UNL1       -0.3000
      5  C          6.8440    0.1810    1.6190 C.3     1  UNL1        0.0430
      6  C          7.2740   -0.7380    0.5500 C.2     1  UNL1       -0.0440
      7  C          7.1480   -0.4000   -0.8020 C.2     1  UNL1        0.0080
      8  C          7.8150   -1.9600    0.8790 C.2     1  UNL1        0.0540
      9  C          7.5690   -1.3030   -1.7610 C.2     1  UNL1        0.0510
     10  C          8.2400   -2.8690   -0.0950 C.2     1  UNL1        0.1660
     11  C          8.1160   -2.5380   -1.4260 C.2     1  UNL1        0.1650
     12  O          8.8010   -4.1270   -0.0250 O.2     1  UNL1       -0.4540
     13  O          8.6090   -3.6100   -2.1530 O.2     1  UNL1       -0.4540
     14  C          9.1370   -4.6000   -1.3040 C.3     1  UNL1        0.4680
@<TRIPOS>BOND
     1    13    11    1
     2    13    14    1
     3     9    11    2
     4     9     7    1
     5    11    10    1
     6    14    12    1
     7     7     6    2
     8    10    12    1
     9    10     8    2
    10     6     8    1
    11     6     5    1
    12     3     2    1
    13     5     1    1
    14     2     1    1
    15     2     4    2
