MODEL 1
REMARK VINA RESULT:      -7.6      0.000      0.000
REMARK SMILES CC(=O)CCc1ccc2c(c1)OCO2
REMARK SMILES IDX 4 1 2 2 1 3 3 4 5 5 6 6 7 7 11 8 8 9 10 10 9 11 12 12 14 13
REMARK SMILES IDX 13 14
REMARK H PARENT
REMARK Flexibility Score: inf
ROOT
ATOM      1  C   UNL     1       5.526   1.929   1.246  1.00  0.00     0.080 C 
ENDROOT
BRANCH   1   2
ATOM      2  C   UNL     1       5.098   0.723   2.009  1.00  0.00     0.130 C 
ATOM      3  C   UNL     1       6.003  -0.442   2.200  1.00  0.00     0.087 C 
ATOM      4  O   UNL     1       3.984   0.657   2.504  1.00  0.00    -0.300 OA
ENDBRANCH   1   2
BRANCH   1   5
ATOM      5  C   UNL     1       5.391   1.711  -0.248  1.00  0.00     0.043 C 
BRANCH   5   6
ATOM      6  C   UNL     1       6.564   1.016  -0.807  1.00  0.00    -0.044 A 
ATOM      7  C   UNL     1       7.867   1.463  -0.559  1.00  0.00     0.008 A 
ATOM      8  C   UNL     1       6.386  -0.101  -1.592  1.00  0.00     0.054 A 
ATOM      9  C   UNL     1       8.930   0.770  -1.109  1.00  0.00     0.051 A 
ATOM     10  C   UNL     1       7.464  -0.797  -2.146  1.00  0.00     0.166 A 
ATOM     11  C   UNL     1       8.747  -0.358  -1.903  1.00  0.00     0.165 A 
ATOM     12  O   UNL     1       7.548  -1.916  -2.947  1.00  0.00    -0.454 OA
ATOM     13  O   UNL     1       9.600  -1.226  -2.566  1.00  0.00    -0.454 OA
ATOM     14  C   UNL     1       8.886  -2.281  -3.166  1.00  0.00     0.468 C 
ENDBRANCH   5   6
ENDBRANCH   1   5
TORSDOF 3
ENDMDL
MODEL 2
REMARK VINA RESULT:      -7.5      1.923      2.381
REMARK SMILES CC(=O)CCc1ccc2c(c1)OCO2
REMARK SMILES IDX 4 1 2 2 1 3 3 4 5 5 6 6 7 7 11 8 8 9 10 10 9 11 12 12 14 13
REMARK SMILES IDX 13 14
REMARK H PARENT
REMARK Flexibility Score: inf
ROOT
ATOM      1  C   UNL     1       5.754   1.390  -0.320  1.00  0.00     0.080 C 
ENDROOT
BRANCH   1   2
ATOM      2  C   UNL     1       5.106   1.304   1.019  1.00  0.00     0.130 C 
ATOM      3  C   UNL     1       5.407   0.195   1.962  1.00  0.00     0.087 C 
ATOM      4  O   UNL     1       4.302   2.148   1.382  1.00  0.00    -0.300 OA
ENDBRANCH   1   2
BRANCH   1   5
ATOM      5  C   UNL     1       7.244   1.129  -0.228  1.00  0.00     0.043 C 
BRANCH   5   6
ATOM      6  C   UNL     1       7.611  -0.163  -0.834  1.00  0.00    -0.044 A 
ATOM      7  C   UNL     1       7.675  -0.329  -2.222  1.00  0.00     0.008 A 
ATOM      8  C   UNL     1       7.901  -1.238  -0.025  1.00  0.00     0.054 A 
ATOM      9  C   UNL     1       8.026  -1.565  -2.735  1.00  0.00     0.051 A 
ATOM     10  C   UNL     1       8.256  -2.486  -0.548  1.00  0.00     0.166 A 
ATOM     11  C   UNL     1       8.318  -2.650  -1.914  1.00  0.00     0.165 A 
ATOM     12  O   UNL     1       8.585  -3.690   0.036  1.00  0.00    -0.454 OA
ATOM     13  O   UNL     1       8.689  -3.966  -2.143  1.00  0.00    -0.454 OA
ATOM     14  C   UNL     1       8.956  -4.636  -0.934  1.00  0.00     0.468 C 
ENDBRANCH   5   6
ENDBRANCH   1   5
TORSDOF 3
ENDMDL
MODEL 3
REMARK VINA RESULT:      -7.2      2.047      2.627
REMARK SMILES CC(=O)CCc1ccc2c(c1)OCO2
REMARK SMILES IDX 4 1 2 2 1 3 3 4 5 5 6 6 7 7 11 8 8 9 10 10 9 11 12 12 14 13
REMARK SMILES IDX 13 14
REMARK H PARENT
REMARK Flexibility Score: inf
ROOT
ATOM      1  C   UNL     1       5.403  -0.059   2.021  1.00  0.00     0.080 C 
ENDROOT
BRANCH   1   2
ATOM      2  C   UNL     1       4.563   1.145   1.769  1.00  0.00     0.130 C 
ATOM      3  C   UNL     1       4.908   2.130   0.710  1.00  0.00     0.087 C 
ATOM      4  O   UNL     1       3.559   1.358   2.431  1.00  0.00    -0.300 OA
ENDBRANCH   1   2
BRANCH   1   5
ATOM      5  C   UNL     1       6.844   0.181   1.619  1.00  0.00     0.043 C 
BRANCH   5   6
ATOM      6  C   UNL     1       7.274  -0.738   0.550  1.00  0.00    -0.044 A 
ATOM      7  C   UNL     1       7.148  -0.400  -0.802  1.00  0.00     0.008 A 
ATOM      8  C   UNL     1       7.815  -1.960   0.879  1.00  0.00     0.054 A 
ATOM      9  C   UNL     1       7.569  -1.303  -1.761  1.00  0.00     0.051 A 
ATOM     10  C   UNL     1       8.240  -2.869  -0.095  1.00  0.00     0.166 A 
ATOM     11  C   UNL     1       8.116  -2.538  -1.426  1.00  0.00     0.165 A 
ATOM     12  O   UNL     1       8.801  -4.127  -0.025  1.00  0.00    -0.454 OA
ATOM     13  O   UNL     1       8.609  -3.610  -2.153  1.00  0.00    -0.454 OA
ATOM     14  C   UNL     1       9.137  -4.600  -1.304  1.00  0.00     0.468 C 
ENDBRANCH   5   6
ENDBRANCH   1   5
TORSDOF 3
ENDMDL
MODEL 4
REMARK VINA RESULT:      -7.1      1.260      1.477
REMARK SMILES CC(=O)CCc1ccc2c(c1)OCO2
REMARK SMILES IDX 4 1 2 2 1 3 3 4 5 5 6 6 7 7 11 8 8 9 10 10 9 11 12 12 14 13
REMARK SMILES IDX 13 14
REMARK H PARENT
REMARK Flexibility Score: inf
ROOT
ATOM      1  C   UNL     1       6.417   1.178   0.933  1.00  0.00     0.080 C 
ENDROOT
BRANCH   1   2
ATOM      2  C   UNL     1       5.677   0.352   1.928  1.00  0.00     0.130 C 
ATOM      3  C   UNL     1       6.266  -0.883   2.511  1.00  0.00     0.087 C 
ATOM      4  O   UNL     1       4.556   0.668   2.294  1.00  0.00    -0.300 OA
ENDBRANCH   1   2
BRANCH   1   5
ATOM      5  C   UNL     1       5.917   0.924  -0.475  1.00  0.00     0.043 C 
BRANCH   5   6
ATOM      6  C   UNL     1       6.855   0.090  -1.246  1.00  0.00    -0.044 A 
ATOM      7  C   UNL     1       7.545   0.595  -2.354  1.00  0.00     0.008 A 
ATOM      8  C   UNL     1       7.067  -1.219  -0.876  1.00  0.00     0.054 A 
ATOM      9  C   UNL     1       8.413  -0.235  -3.040  1.00  0.00     0.051 A 
ATOM     10  C   UNL     1       7.947  -2.054  -1.571  1.00  0.00     0.166 A 
ATOM     11  C   UNL     1       8.625  -1.558  -2.663  1.00  0.00     0.165 A 
ATOM     12  O   UNL     1       8.324  -3.369  -1.405  1.00  0.00    -0.454 OA
ATOM     13  O   UNL     1       9.413  -2.590  -3.147  1.00  0.00    -0.454 OA
ATOM     14  C   UNL     1       9.321  -3.729  -2.325  1.00  0.00     0.468 C 
ENDBRANCH   5   6
ENDBRANCH   1   5
TORSDOF 3
ENDMDL
MODEL 5
REMARK VINA RESULT:      -6.9      1.918      2.464
REMARK SMILES CC(=O)CCc1ccc2c(c1)OCO2
REMARK SMILES IDX 4 1 2 2 1 3 3 4 5 5 6 6 7 7 11 8 8 9 10 10 9 11 12 12 14 13
REMARK SMILES IDX 13 14
REMARK H PARENT
REMARK Flexibility Score: inf
ROOT
ATOM      1  C   UNL     1       6.971   1.032   1.116  1.00  0.00     0.080 C 
ENDROOT
BRANCH   1   2
ATOM      2  C   UNL     1       5.532   1.152   1.483  1.00  0.00     0.130 C 
ATOM      3  C   UNL     1       4.639   2.144   0.825  1.00  0.00     0.087 C 
ATOM      4  O   UNL     1       5.042   0.435   2.340  1.00  0.00    -0.300 OA
ENDBRANCH   1   2
BRANCH   1   5
ATOM      5  C   UNL     1       7.166   1.117  -0.385  1.00  0.00     0.043 C 
BRANCH   5   6
ATOM      6  C   UNL     1       7.594  -0.173  -0.954  1.00  0.00    -0.044 A 
ATOM      7  C   UNL     1       7.783  -0.341  -2.330  1.00  0.00     0.008 A 
ATOM      8  C   UNL     1       7.819  -1.245  -0.120  1.00  0.00     0.054 A 
ATOM      9  C   UNL     1       8.186  -1.575  -2.807  1.00  0.00     0.051 A 
ATOM     10  C   UNL     1       8.228  -2.491  -0.607  1.00  0.00     0.166 A 
ATOM     11  C   UNL     1       8.412  -2.657  -1.962  1.00  0.00     0.165 A 
ATOM     12  O   UNL     1       8.512  -3.692   0.006  1.00  0.00    -0.454 OA
ATOM     13  O   UNL     1       8.811  -3.970  -2.154  1.00  0.00    -0.454 OA
ATOM     14  C   UNL     1       8.975  -4.637  -0.925  1.00  0.00     0.468 C 
ENDBRANCH   5   6
ENDBRANCH   1   5
TORSDOF 3
ENDMDL
