@<TRIPOS>MOLECULE
/home/cewinharhar/GITHUB/reincatalyze/data/processed/docking_pred/2023-May-22-2206_sub9_nm5_bs15_s42_ex16_mel10_mts10000_k50_ec02_g099_lra9e-4_lrc1e-3/d32515ef85c53a65d829162c3cbbbf13c46f52f9_ligand_9.pdbqt
 14 15 0 0 0
SMALL
GASTEIGER

@<TRIPOS>ATOM
      1  C          5.5260    1.9290    1.2460 C.3     1  UNL1        0.0800
      2  C          5.0980    0.7230    2.0090 C.2     1  UNL1        0.1300
      3  C          6.0030   -0.4420    2.2000 C.3     1  UNL1        0.0870
      4  O          3.9840    0.6570    2.5040 O.2     1  UNL1       -0.3000
      5  C          5.3910    1.7110   -0.2480 C.3     1  UNL1        0.0430
      6  C          6.5640    1.0160   -0.8070 C.2     1  UNL1       -0.0440
      7  C          7.8670    1.4630   -0.5590 C.2     1  UNL1        0.0080
      8  C          6.3860   -0.1010   -1.5920 C.2     1  UNL1        0.0540
      9  C          8.9300    0.7700   -1.1090 C.2     1  UNL1        0.0510
     10  C          7.4640   -0.7970   -2.1460 C.2     1  UNL1        0.1660
     11  C          8.7470   -0.3580   -1.9030 C.2     1  UNL1        0.1650
     12  O          7.5480   -1.9160   -2.9470 O.2     1  UNL1       -0.4540
     13  O          9.6000   -1.2260   -2.5660 O.2     1  UNL1       -0.4540
     14  C          8.8860   -2.2810   -3.1660 C.3     1  UNL1        0.4680
@<TRIPOS>BOND
     1    14    12    1
     2    14    13    1
     3    12    10    1
     4    13    11    1
     5    10    11    2
     6    10     8    1
     7    11     9    1
     8     8     6    2
     9     9     7    2
    10     6     7    1
    11     6     5    1
    12     5     1    1
    13     1     2    1
    14     2     3    1
    15     2     4    2
