@<TRIPOS>MOLECULE
/home/cewinharhar/GITHUB/reincatalyze/data/processed/docking_pred/2023-May-22-2206_sub9_nm5_bs15_s42_ex16_mel10_mts10000_k50_ec02_g099_lra9e-4_lrc1e-3/d3a7bace4d7284fd134c29c8ba069397c7215f06_ligand_9.pdbqt
 14 15 0 0 0
SMALL
GASTEIGER

@<TRIPOS>ATOM
      1  C          5.6170    0.0480    1.9500 C.3     1  UNL1        0.0800
      2  C          4.6990    1.1770    1.6300 C.2     1  UNL1        0.1300
      3  C          4.9980    2.1400    0.5360 C.3     1  UNL1        0.0870
      4  O          3.6690    1.3460    2.2620 O.2     1  UNL1       -0.3000
      5  C          7.0150    0.3090    1.4250 C.3     1  UNL1        0.0430
      6  C          7.4050   -0.6730    0.3990 C.2     1  UNL1       -0.0440
      7  C          7.2870   -0.3930   -0.9670 C.2     1  UNL1        0.0080
      8  C          7.9010   -1.8990    0.7810 C.2     1  UNL1        0.0540
      9  C          7.6700   -1.3530   -1.8850 C.2     1  UNL1        0.0510
     10  C          8.2870   -2.8670   -0.1510 C.2     1  UNL1        0.1660
     11  C          8.1700   -2.5920   -1.4950 C.2     1  UNL1        0.1650
     12  O          8.8000   -4.1400   -0.0250 O.2     1  UNL1       -0.4540
     13  O          8.6200   -3.7130   -2.1740 O.2     1  UNL1       -0.4540
     14  C          9.1140   -4.6840   -1.2820 C.3     1  UNL1        0.4680
@<TRIPOS>BOND
     1    13    11    1
     2    13    14    1
     3     9    11    2
     4     9     7    1
     5    11    10    1
     6    14    12    1
     7     7     6    2
     8    10    12    1
     9    10     8    2
    10     6     8    1
    11     6     5    1
    12     3     2    1
    13     5     1    1
    14     2     1    1
    15     2     4    2
