@<TRIPOS>MOLECULE
/home/cewinharhar/GITHUB/reincatalyze/data/processed/docking_pred/2023-May-22-2206_sub9_nm5_bs15_s42_ex16_mel10_mts10000_k50_ec02_g099_lra9e-4_lrc1e-3/d3a7bace4d7284fd134c29c8ba069397c7215f06_ligand_9.pdbqt
 14 15 0 0 0
SMALL
GASTEIGER

@<TRIPOS>ATOM
      1  C          5.7550    1.2400   -0.3380 C.3     1  UNL1        0.0800
      2  C          5.2840    1.2190    1.0750 C.2     1  UNL1        0.1300
      3  C          5.5720    0.0720    1.9780 C.3     1  UNL1        0.0870
      4  O          4.6440    2.1500    1.5360 O.2     1  UNL1       -0.3000
      5  C          7.2600    1.0760   -0.4190 C.3     1  UNL1        0.0430
      6  C          7.6380   -0.2240   -1.0010 C.2     1  UNL1       -0.0440
      7  C          7.7030   -0.4160   -2.3850 C.2     1  UNL1        0.0080
      8  C          7.9390   -1.2810   -0.1720 C.2     1  UNL1        0.0540
      9  C          8.0640   -1.6580   -2.8740 C.2     1  UNL1        0.0510
     10  C          8.3040   -2.5350   -0.6710 C.2     1  UNL1        0.1660
     11  C          8.3670   -2.7250   -2.0340 C.2     1  UNL1        0.1650
     12  O          8.6440   -3.7250   -0.0640 O.2     1  UNL1       -0.4540
     13  O          8.7490   -4.0420   -2.2370 O.2     1  UNL1       -0.4540
     14  C          9.0230   -4.6860   -1.0160 C.3     1  UNL1        0.4680
@<TRIPOS>BOND
     1     9     7    1
     2     9    11    2
     3     7     6    2
     4    13    11    1
     5    13    14    1
     6    11    10    1
     7    14    12    1
     8     6     5    1
     9     6     8    1
    10    10     8    2
    11    10    12    1
    12     5     1    1
    13     1     2    1
    14     2     4    2
    15     2     3    1
