@<TRIPOS>MOLECULE
/home/cewinharhar/GITHUB/reincatalyze/data/processed/docking_pred/2023-May-22-2206_sub9_nm5_bs15_s42_ex16_mel10_mts10000_k50_ec02_g099_lra9e-4_lrc1e-3/d4292dbdc665c4d20b6271b363b9823f318ec372_ligand_9.pdbqt
 14 15 0 0 0
SMALL
GASTEIGER

@<TRIPOS>ATOM
      1  C          5.5650    1.5400   -0.0340 C.3     1  UNL1        0.0800
      2  C          4.9000    1.2090    1.2570 C.2     1  UNL1        0.1300
      3  C          5.3030    0.0250    2.0630 C.3     1  UNL1        0.0870
      4  O          3.9990    1.9060    1.6940 O.2     1  UNL1       -0.3000
      5  C          7.0510    1.2460    0.0210 C.3     1  UNL1        0.0430
      6  C          7.3840   -0.0180   -0.6600 C.2     1  UNL1       -0.0440
      7  C          7.2400   -0.1640   -2.0450 C.2     1  UNL1        0.0080
      8  C          7.8500   -1.0860    0.0720 C.2     1  UNL1        0.0540
      9  C          7.5690   -1.3740   -2.6290 C.2     1  UNL1        0.0510
     10  C          8.1810   -2.3070   -0.5240 C.2     1  UNL1        0.1660
     11  C          8.0390   -2.4520   -1.8860 C.2     1  UNL1        0.1650
     12  O          8.6570   -3.4990   -0.0210 O.2     1  UNL1       -0.4540
     13  O          8.4360   -3.7430   -2.1950 O.2     1  UNL1       -0.4540
     14  C          8.9200   -4.4130   -1.0550 C.3     1  UNL1        0.4680
@<TRIPOS>BOND
     1     9     7    1
     2     9    11    2
     3    13    11    1
     4    13    14    1
     5     7     6    2
     6    11    10    1
     7    14    12    1
     8     6     5    1
     9     6     8    1
    10    10    12    1
    11    10     8    2
    12     1     5    1
    13     1     2    1
    14     2     4    2
    15     2     3    1
