@<TRIPOS>MOLECULE
/home/cewinharhar/GITHUB/reincatalyze/data/processed/docking_pred/2023-May-22-2206_sub9_nm5_bs15_s42_ex16_mel10_mts10000_k50_ec02_g099_lra9e-4_lrc1e-3/d4292dbdc665c4d20b6271b363b9823f318ec372_ligand_9.pdbqt
 14 15 0 0 0
SMALL
GASTEIGER

@<TRIPOS>ATOM
      1  C          8.3560    0.1760   -2.6220 C.3     1  UNL1        0.0800
      2  C          8.0730   -1.2790   -2.7660 C.2     1  UNL1        0.1300
      3  C          9.1590   -2.2640   -3.0210 C.3     1  UNL1        0.0870
      4  O          6.9340   -1.7080   -2.6780 O.2     1  UNL1       -0.3000
      5  C          8.8810    0.5010   -1.2380 C.3     1  UNL1        0.0430
      6  C          7.8310    0.3750   -0.2120 C.2     1  UNL1       -0.0440
      7  C          7.9080   -0.5870    0.8020 C.2     1  UNL1        0.0080
      8  C          6.7450    1.2200   -0.2400 C.2     1  UNL1        0.0540
      9  C          6.8920   -0.6580    1.7380 C.2     1  UNL1        0.0510
     10  C          5.7210    1.1440    0.7100 C.2     1  UNL1        0.1660
     11  C          5.7960    0.1970    1.7070 C.2     1  UNL1        0.1650
     12  O          4.5560    1.8580    0.8940 O.2     1  UNL1       -0.4540
     13  O          4.6630    0.3510    2.4910 O.2     1  UNL1       -0.4540
     14  C          3.8960    1.4520    2.0660 C.3     1  UNL1        0.4680
@<TRIPOS>BOND
     1     3     2    1
     2     2     4    2
     3     2     1    1
     4     1     5    1
     5     5     6    1
     6     8     6    2
     7     8    10    1
     8     6     7    1
     9    10    12    1
    10    10    11    2
    11     7     9    2
    12    12    14    1
    13    11     9    1
    14    11    13    1
    15    14    13    1
