@<TRIPOS>MOLECULE
/home/cewinharhar/GITHUB/reincatalyze/data/processed/docking_pred/2023-May-22-2206_sub9_nm5_bs15_s42_ex16_mel10_mts10000_k50_ec02_g099_lra9e-4_lrc1e-3/d4292dbdc665c4d20b6271b363b9823f318ec372_ligand_9.pdbqt
 14 15 0 0 0
SMALL
GASTEIGER

@<TRIPOS>ATOM
      1  C          6.8060    0.7710    1.2920 C.3     1  UNL1        0.0800
      2  C          5.3760    1.1780    1.3800 C.2     1  UNL1        0.1300
      3  C          4.7820    2.1500    0.4230 C.3     1  UNL1        0.0870
      4  O          4.6470    0.7230    2.2460 O.2     1  UNL1       -0.3000
      5  C          7.3510    0.9680   -0.1090 C.3     1  UNL1        0.0430
      6  C          7.6650   -0.3160   -0.7590 C.2     1  UNL1       -0.0440
      7  C          7.6410   -0.4590   -2.1510 C.2     1  UNL1        0.0080
      8  C          7.9930   -1.4090    0.0120 C.2     1  UNL1        0.0540
      9  C          7.9460   -1.6880   -2.7050 C.2     1  UNL1        0.0510
     10  C          8.3010   -2.6500   -0.5530 C.2     1  UNL1        0.1660
     11  C          8.2770   -2.7910   -1.9230 C.2     1  UNL1        0.1650
     12  O          8.6520   -3.8680   -0.0120 O.2     1  UNL1       -0.4540
     13  O          8.6190   -4.1060   -2.1970 O.2     1  UNL1       -0.4540
     14  C          8.9530   -4.8000   -1.0180 C.3     1  UNL1        0.4680
@<TRIPOS>BOND
     1     9     7    1
     2     9    11    2
     3    13    11    1
     4    13    14    1
     5     7     6    2
     6    11    10    1
     7    14    12    1
     8     6     5    1
     9     6     8    1
    10    10    12    1
    11    10     8    2
    12     5     1    1
    13     3     2    1
    14     1     2    1
    15     2     4    2
