@<TRIPOS>MOLECULE
/home/cewinharhar/GITHUB/reincatalyze/data/processed/docking_pred/2023-May-22-2206_sub9_nm5_bs15_s42_ex16_mel10_mts10000_k50_ec02_g099_lra9e-4_lrc1e-3/d475abeaf77d1f7cad9c775310647ad941a1fd31_ligand_9.pdbqt
 14 15 0 0 0
SMALL
GASTEIGER

@<TRIPOS>ATOM
      1  C          6.3520    1.2300    0.9220 C.3     1  UNL1        0.0800
      2  C          5.6570    0.3830    1.9310 C.2     1  UNL1        0.1300
      3  C          6.2960   -0.8320    2.5040 C.3     1  UNL1        0.0870
      4  O          4.5340    0.6630    2.3180 O.2     1  UNL1       -0.3000
      5  C          5.8410    0.9500   -0.4780 C.3     1  UNL1        0.0430
      6  C          6.7910    0.1340   -1.2530 C.2     1  UNL1       -0.0440
      7  C          7.4770    0.6560   -2.3560 C.2     1  UNL1        0.0080
      8  C          7.0200   -1.1750   -0.8930 C.2     1  UNL1        0.0540
      9  C          8.3580   -0.1570   -3.0460 C.2     1  UNL1        0.0510
     10  C          7.9120   -1.9930   -1.5930 C.2     1  UNL1        0.1660
     11  C          8.5860   -1.4790   -2.6780 C.2     1  UNL1        0.1650
     12  O          8.3050   -3.3050   -1.4350 O.2     1  UNL1       -0.4540
     13  O          9.3880   -2.4970   -3.1690 O.2     1  UNL1       -0.4540
     14  C          9.3090   -3.6440   -2.3570 C.3     1  UNL1        0.4680
@<TRIPOS>BOND
     1    13    11    1
     2    13    14    1
     3     9    11    2
     4     9     7    1
     5    11    10    1
     6    14    12    1
     7     7     6    2
     8    10    12    1
     9    10     8    2
    10     6     8    1
    11     6     5    1
    12     5     1    1
    13     1     2    1
    14     2     4    2
    15     2     3    1
