@<TRIPOS>MOLECULE
/home/cewinharhar/GITHUB/reincatalyze/data/processed/docking_pred/2023-May-22-2206_sub9_nm5_bs15_s42_ex16_mel10_mts10000_k50_ec02_g099_lra9e-4_lrc1e-3/d475abeaf77d1f7cad9c775310647ad941a1fd31_ligand_9.pdbqt
 14 15 0 0 0
SMALL
GASTEIGER

@<TRIPOS>ATOM
      1  C          8.3220    0.1790   -2.6790 C.3     1  UNL1        0.0800
      2  C          8.0640   -1.2860   -2.7700 C.2     1  UNL1        0.1300
      3  C          9.1600   -2.2570   -3.0310 C.3     1  UNL1        0.0870
      4  O          6.9370   -1.7330   -2.6330 O.2     1  UNL1       -0.3000
      5  C          8.8530    0.5600   -1.3120 C.3     1  UNL1        0.0430
      6  C          7.8240    0.4170   -0.2660 C.2     1  UNL1       -0.0440
      7  C          7.9360   -0.5420    0.7460 C.2     1  UNL1        0.0080
      8  C          6.7230    1.2430   -0.2750 C.2     1  UNL1        0.0540
      9  C          6.9390   -0.6300    1.7010 C.2     1  UNL1        0.0510
     10  C          5.7190    1.1510    0.6930 C.2     1  UNL1        0.1660
     11  C          5.8270    0.2070    1.6890 C.2     1  UNL1        0.1650
     12  O          4.5450    1.8450    0.8970 O.2     1  UNL1       -0.4540
     13  O          4.7070    0.3420    2.4940 O.2     1  UNL1       -0.4540
     14  C          3.9130    1.4290    2.0810 C.3     1  UNL1        0.4680
@<TRIPOS>BOND
     1     3     2    1
     2     2     1    1
     3     2     4    2
     4     1     5    1
     5     5     6    1
     6     8     6    2
     7     8    10    1
     8     6     7    1
     9    10    12    1
    10    10    11    2
    11     7     9    2
    12    12    14    1
    13    11     9    1
    14    11    13    1
    15    14    13    1
