@<TRIPOS>MOLECULE
/home/cewinharhar/GITHUB/reincatalyze/data/processed/docking_pred/2023-May-22-2206_sub9_nm5_bs15_s42_ex16_mel10_mts10000_k50_ec02_g099_lra9e-4_lrc1e-3/d475abeaf77d1f7cad9c775310647ad941a1fd31_ligand_9.pdbqt
 14 15 0 0 0
SMALL
GASTEIGER

@<TRIPOS>ATOM
      1  C          5.7810    1.2650   -0.3150 C.3     1  UNL1        0.0800
      2  C          5.2420    1.1950    1.0710 C.2     1  UNL1        0.1300
      3  C          5.3790   -0.0320    1.9010 C.3     1  UNL1        0.0870
      4  O          4.6680    2.1500    1.5690 O.2     1  UNL1       -0.3000
      5  C          7.2860    1.0850   -0.3310 C.3     1  UNL1        0.0430
      6  C          7.6760   -0.2090   -0.9180 C.2     1  UNL1       -0.0440
      7  C          7.7730   -0.3860   -2.3030 C.2     1  UNL1        0.0080
      8  C          7.9550   -1.2760   -0.0940 C.2     1  UNL1        0.0540
      9  C          8.1440   -1.6230   -2.7970 C.2     1  UNL1        0.0510
     10  C          8.3300   -2.5250   -0.5990 C.2     1  UNL1        0.1660
     11  C          8.4250   -2.7000   -1.9610 C.2     1  UNL1        0.1650
     12  O          8.6540   -3.7220    0.0030 O.2     1  UNL1       -0.4540
     13  O          8.8100   -4.0150   -2.1710 O.2     1  UNL1       -0.4540
     14  C          9.0540   -4.6730   -0.9510 C.3     1  UNL1        0.4680
@<TRIPOS>BOND
     1     9     7    1
     2     9    11    2
     3     7     6    2
     4    13    11    1
     5    13    14    1
     6    11    10    1
     7    14    12    1
     8     6     5    1
     9     6     8    1
    10    10     8    2
    11    10    12    1
    12     5     1    1
    13     1     2    1
    14     2     4    2
    15     2     3    1
