@<TRIPOS>MOLECULE
/home/cewinharhar/GITHUB/reincatalyze/data/processed/docking_pred/2023-May-22-2206_sub9_nm5_bs15_s42_ex16_mel10_mts10000_k50_ec02_g099_lra9e-4_lrc1e-3/d4c602a3745b48528a2ec664cc6a2c0711254731_ligand_9.pdbqt
 14 15 0 0 0
SMALL
GASTEIGER

@<TRIPOS>ATOM
      1  C          5.4370   -0.0600    2.0140 C.3     1  UNL1        0.0800
      2  C          4.5860    1.1380    1.7710 C.2     1  UNL1        0.1300
      3  C          4.9200    2.1320    0.7160 C.3     1  UNL1        0.0870
      4  O          3.5830    1.3400    2.4360 O.2     1  UNL1       -0.3000
      5  C          6.8720    0.1900    1.5940 C.3     1  UNL1        0.0430
      6  C          7.2980   -0.7370    0.5300 C.2     1  UNL1       -0.0440
      7  C          7.1790   -0.4030   -0.8240 C.2     1  UNL1        0.0080
      8  C          7.8300   -1.9610    0.8640 C.2     1  UNL1        0.0540
      9  C          7.5960   -1.3130   -1.7790 C.2     1  UNL1        0.0510
     10  C          8.2520   -2.8770   -0.1050 C.2     1  UNL1        0.1660
     11  C          8.1330   -2.5500   -1.4370 C.2     1  UNL1        0.1650
     12  O          8.8040   -4.1380   -0.0290 O.2     1  UNL1       -0.4540
     13  O          8.6220   -3.6280   -2.1590 O.2     1  UNL1       -0.4540
     14  C          9.1410   -4.6190   -1.3050 C.3     1  UNL1        0.4680
@<TRIPOS>BOND
     1    13    11    1
     2    13    14    1
     3     9    11    2
     4     9     7    1
     5    11    10    1
     6    14    12    1
     7     7     6    2
     8    10    12    1
     9    10     8    2
    10     6     8    1
    11     6     5    1
    12     3     2    1
    13     5     1    1
    14     2     1    1
    15     2     4    2
