MODEL 1
REMARK VINA RESULT:      -7.7      0.000      0.000
REMARK SMILES CC(=O)CCc1ccc2c(c1)OCO2
REMARK SMILES IDX 4 1 2 2 1 3 3 4 5 5 6 6 7 7 11 8 8 9 10 10 9 11 12 12 14 13
REMARK SMILES IDX 13 14
REMARK H PARENT
REMARK Flexibility Score: inf
ROOT
ATOM      1  C   UNL     1       5.531   1.933   1.277  1.00  0.00     0.080 C 
ENDROOT
BRANCH   1   2
ATOM      2  C   UNL     1       5.093   0.714   2.012  1.00  0.00     0.130 C 
ATOM      3  C   UNL     1       5.992  -0.459   2.183  1.00  0.00     0.087 C 
ATOM      4  O   UNL     1       3.976   0.642   2.498  1.00  0.00    -0.300 OA
ENDBRANCH   1   2
BRANCH   1   5
ATOM      5  C   UNL     1       5.402   1.749  -0.222  1.00  0.00     0.043 C 
BRANCH   5   6
ATOM      6  C   UNL     1       6.568   1.048  -0.788  1.00  0.00    -0.044 A 
ATOM      7  C   UNL     1       7.875   1.487  -0.548  1.00  0.00     0.008 A 
ATOM      8  C   UNL     1       6.380  -0.067  -1.572  1.00  0.00     0.054 A 
ATOM      9  C   UNL     1       8.931   0.789  -1.105  1.00  0.00     0.051 A 
ATOM     10  C   UNL     1       7.451  -0.770  -2.133  1.00  0.00     0.166 A 
ATOM     11  C   UNL     1       8.737  -0.338  -1.897  1.00  0.00     0.165 A 
ATOM     12  O   UNL     1       7.523  -1.889  -2.935  1.00  0.00    -0.454 OA
ATOM     13  O   UNL     1       9.581  -1.210  -2.566  1.00  0.00    -0.454 OA
ATOM     14  C   UNL     1       8.859  -2.261  -3.162  1.00  0.00     0.468 C 
ENDBRANCH   5   6
ENDBRANCH   1   5
TORSDOF 3
ENDMDL
MODEL 2
REMARK VINA RESULT:      -7.4      1.947      2.444
REMARK SMILES CC(=O)CCc1ccc2c(c1)OCO2
REMARK SMILES IDX 4 1 2 2 1 3 3 4 5 5 6 6 7 7 11 8 8 9 10 10 9 11 12 12 14 13
REMARK SMILES IDX 13 14
REMARK H PARENT
REMARK Flexibility Score: inf
ROOT
ATOM      1  C   UNL     1       5.773   1.230  -0.298  1.00  0.00     0.080 C 
ENDROOT
BRANCH   1   2
ATOM      2  C   UNL     1       5.227   1.178   1.087  1.00  0.00     0.130 C 
ATOM      3  C   UNL     1       5.327  -0.050   1.921  1.00  0.00     0.087 C 
ATOM      4  O   UNL     1       4.677   2.149   1.581  1.00  0.00    -0.300 OA
ENDBRANCH   1   2
BRANCH   1   5
ATOM      5  C   UNL     1       7.275   1.026  -0.305  1.00  0.00     0.043 C 
BRANCH   5   6
ATOM      6  C   UNL     1       7.648  -0.267  -0.906  1.00  0.00    -0.044 A 
ATOM      7  C   UNL     1       7.725  -0.437  -2.293  1.00  0.00     0.008 A 
ATOM      8  C   UNL     1       7.932  -1.341  -0.092  1.00  0.00     0.054 A 
ATOM      9  C   UNL     1       8.081  -1.673  -2.799  1.00  0.00     0.051 A 
ATOM     10  C   UNL     1       8.292  -2.589  -0.609  1.00  0.00     0.166 A 
ATOM     11  C   UNL     1       8.367  -2.756  -1.974  1.00  0.00     0.165 A 
ATOM     12  O   UNL     1       8.615  -3.792  -0.019  1.00  0.00    -0.454 OA
ATOM     13  O   UNL     1       8.740  -4.073  -2.196  1.00  0.00    -0.454 OA
ATOM     14  C   UNL     1       8.996  -4.740  -0.983  1.00  0.00     0.468 C 
ENDBRANCH   5   6
ENDBRANCH   1   5
TORSDOF 3
ENDMDL
MODEL 3
REMARK VINA RESULT:      -7.2      2.060      2.636
REMARK SMILES CC(=O)CCc1ccc2c(c1)OCO2
REMARK SMILES IDX 4 1 2 2 1 3 3 4 5 5 6 6 7 7 11 8 8 9 10 10 9 11 12 12 14 13
REMARK SMILES IDX 13 14
REMARK H PARENT
REMARK Flexibility Score: inf
ROOT
ATOM      1  C   UNL     1       5.437  -0.060   2.014  1.00  0.00     0.080 C 
ENDROOT
BRANCH   1   2
ATOM      2  C   UNL     1       4.586   1.138   1.771  1.00  0.00     0.130 C 
ATOM      3  C   UNL     1       4.920   2.132   0.716  1.00  0.00     0.087 C 
ATOM      4  O   UNL     1       3.583   1.340   2.436  1.00  0.00    -0.300 OA
ENDBRANCH   1   2
BRANCH   1   5
ATOM      5  C   UNL     1       6.872   0.190   1.594  1.00  0.00     0.043 C 
BRANCH   5   6
ATOM      6  C   UNL     1       7.298  -0.737   0.530  1.00  0.00    -0.044 A 
ATOM      7  C   UNL     1       7.179  -0.403  -0.824  1.00  0.00     0.008 A 
ATOM      8  C   UNL     1       7.830  -1.961   0.864  1.00  0.00     0.054 A 
ATOM      9  C   UNL     1       7.596  -1.313  -1.779  1.00  0.00     0.051 A 
ATOM     10  C   UNL     1       8.252  -2.877  -0.105  1.00  0.00     0.166 A 
ATOM     11  C   UNL     1       8.133  -2.550  -1.437  1.00  0.00     0.165 A 
ATOM     12  O   UNL     1       8.804  -4.138  -0.029  1.00  0.00    -0.454 OA
ATOM     13  O   UNL     1       8.622  -3.628  -2.159  1.00  0.00    -0.454 OA
ATOM     14  C   UNL     1       9.141  -4.619  -1.305  1.00  0.00     0.468 C 
ENDBRANCH   5   6
ENDBRANCH   1   5
TORSDOF 3
ENDMDL
MODEL 4
REMARK VINA RESULT:      -7.1      1.256      1.472
REMARK SMILES CC(=O)CCc1ccc2c(c1)OCO2
REMARK SMILES IDX 4 1 2 2 1 3 3 4 5 5 6 6 7 7 11 8 8 9 10 10 9 11 12 12 14 13
REMARK SMILES IDX 13 14
REMARK H PARENT
REMARK Flexibility Score: inf
ROOT
ATOM      1  C   UNL     1       6.383   1.202   0.946  1.00  0.00     0.080 C 
ENDROOT
BRANCH   1   2
ATOM      2  C   UNL     1       5.651   0.373   1.943  1.00  0.00     0.130 C 
ATOM      3  C   UNL     1       6.252  -0.855   2.530  1.00  0.00     0.087 C 
ATOM      4  O   UNL     1       4.528   0.680   2.310  1.00  0.00    -0.300 OA
ENDBRANCH   1   2
BRANCH   1   5
ATOM      5  C   UNL     1       5.880   0.944  -0.460  1.00  0.00     0.043 C 
BRANCH   5   6
ATOM      6  C   UNL     1       6.822   0.114  -1.234  1.00  0.00    -0.044 A 
ATOM      7  C   UNL     1       7.498   0.620  -2.350  1.00  0.00     0.008 A 
ATOM      8  C   UNL     1       7.050  -1.190  -0.857  1.00  0.00     0.054 A 
ATOM      9  C   UNL     1       8.371  -0.205  -3.036  1.00  0.00     0.051 A 
ATOM     10  C   UNL     1       7.934  -2.019  -1.554  1.00  0.00     0.166 A 
ATOM     11  C   UNL     1       8.599  -1.523  -2.653  1.00  0.00     0.165 A 
ATOM     12  O   UNL     1       8.325  -3.330  -1.382  1.00  0.00    -0.454 OA
ATOM     13  O   UNL     1       9.394  -2.549  -3.137  1.00  0.00    -0.454 OA
ATOM     14  C   UNL     1       9.320  -3.684  -2.308  1.00  0.00     0.468 C 
ENDBRANCH   5   6
ENDBRANCH   1   5
TORSDOF 3
ENDMDL
MODEL 5
REMARK VINA RESULT:      -7.1      1.944      2.488
REMARK SMILES CC(=O)CCc1ccc2c(c1)OCO2
REMARK SMILES IDX 4 1 2 2 1 3 3 4 5 5 6 6 7 7 11 8 8 9 10 10 9 11 12 12 14 13
REMARK SMILES IDX 13 14
REMARK H PARENT
REMARK Flexibility Score: inf
ROOT
ATOM      1  C   UNL     1       6.815   0.878   1.448  1.00  0.00     0.080 C 
ENDROOT
BRANCH   1   2
ATOM      2  C   UNL     1       5.359   1.193   1.476  1.00  0.00     0.130 C 
ATOM      3  C   UNL     1       4.747   2.141   0.507  1.00  0.00     0.087 C 
ATOM      4  O   UNL     1       4.623   0.679   2.302  1.00  0.00    -0.300 OA
ENDBRANCH   1   2
BRANCH   1   5
ATOM      5  C   UNL     1       7.402   1.110   0.069  1.00  0.00     0.043 C 
BRANCH   5   6
ATOM      6  C   UNL     1       7.689  -0.159  -0.623  1.00  0.00    -0.044 A 
ATOM      7  C   UNL     1       7.650  -0.258  -2.019  1.00  0.00     0.008 A 
ATOM      8  C   UNL     1       8.006  -1.280   0.110  1.00  0.00     0.054 A 
ATOM      9  C   UNL     1       7.929  -1.475  -2.613  1.00  0.00     0.051 A 
ATOM     10  C   UNL     1       8.288  -2.508  -0.496  1.00  0.00     0.166 A 
ATOM     11  C   UNL     1       8.249  -2.606  -1.869  1.00  0.00     0.165 A 
ATOM     12  O   UNL     1       8.624  -3.748   0.005  1.00  0.00    -0.454 OA
ATOM     13  O   UNL     1       8.566  -3.918  -2.186  1.00  0.00    -0.454 OA
ATOM     14  C   UNL     1       8.899  -4.653  -1.033  1.00  0.00     0.468 C 
ENDBRANCH   5   6
ENDBRANCH   1   5
TORSDOF 3
ENDMDL
