@<TRIPOS>MOLECULE
/home/cewinharhar/GITHUB/reincatalyze/data/processed/docking_pred/2023-May-22-2206_sub9_nm5_bs15_s42_ex16_mel10_mts10000_k50_ec02_g099_lra9e-4_lrc1e-3/d4c602a3745b48528a2ec664cc6a2c0711254731_ligand_9.pdbqt
 14 15 0 0 0
SMALL
GASTEIGER

@<TRIPOS>ATOM
      1  C          6.8150    0.8780    1.4480 C.3     1  UNL1        0.0800
      2  C          5.3590    1.1930    1.4760 C.2     1  UNL1        0.1300
      3  C          4.7470    2.1410    0.5070 C.3     1  UNL1        0.0870
      4  O          4.6230    0.6790    2.3020 O.2     1  UNL1       -0.3000
      5  C          7.4020    1.1100    0.0690 C.3     1  UNL1        0.0430
      6  C          7.6890   -0.1590   -0.6230 C.2     1  UNL1       -0.0440
      7  C          7.6500   -0.2580   -2.0190 C.2     1  UNL1        0.0080
      8  C          8.0060   -1.2800    0.1100 C.2     1  UNL1        0.0540
      9  C          7.9290   -1.4750   -2.6130 C.2     1  UNL1        0.0510
     10  C          8.2880   -2.5080   -0.4960 C.2     1  UNL1        0.1660
     11  C          8.2490   -2.6060   -1.8690 C.2     1  UNL1        0.1650
     12  O          8.6240   -3.7480    0.0050 O.2     1  UNL1       -0.4540
     13  O          8.5660   -3.9180   -2.1860 O.2     1  UNL1       -0.4540
     14  C          8.8990   -4.6530   -1.0330 C.3     1  UNL1        0.4680
@<TRIPOS>BOND
     1     9     7    1
     2     9    11    2
     3    13    11    1
     4    13    14    1
     5     7     6    2
     6    11    10    1
     7    14    12    1
     8     6     5    1
     9     6     8    1
    10    10    12    1
    11    10     8    2
    12     5     1    1
    13     3     2    1
    14     1     2    1
    15     2     4    2
