@<TRIPOS>MOLECULE
/home/cewinharhar/GITHUB/reincatalyze/data/processed/docking_pred/2023-May-22-2206_sub9_nm5_bs15_s42_ex16_mel10_mts10000_k50_ec02_g099_lra9e-4_lrc1e-3/d558da89fa5d1abbf5476966f73640f3ea5cb98d_ligand_9.pdbqt
 14 15 0 0 0
SMALL
GASTEIGER

@<TRIPOS>ATOM
      1  C          5.5320    1.8910    1.2910 C.3     1  UNL1        0.0800
      2  C          5.0020    0.6880    1.9920 C.2     1  UNL1        0.1300
      3  C          5.7800   -0.5780    2.0660 C.3     1  UNL1        0.0870
      4  O          3.9060    0.7070    2.5280 O.2     1  UNL1       -0.3000
      5  C          5.4160    1.7480   -0.2130 C.3     1  UNL1        0.0430
      6  C          6.5760    1.0430   -0.7860 C.2     1  UNL1       -0.0440
      7  C          7.8870    1.4730   -0.5490 C.2     1  UNL1        0.0080
      8  C          6.3780   -0.0700   -1.5720 C.2     1  UNL1        0.0540
      9  C          8.9360    0.7710   -1.1130 C.2     1  UNL1        0.0510
     10  C          7.4430   -0.7770   -2.1390 C.2     1  UNL1        0.1660
     11  C          8.7320   -0.3530   -1.9080 C.2     1  UNL1        0.1650
     12  O          7.5060   -1.8940   -2.9450 O.2     1  UNL1       -0.4540
     13  O          9.5690   -1.2280   -2.5820 O.2     1  UNL1       -0.4540
     14  C          8.8380   -2.2730   -3.1780 C.3     1  UNL1        0.4680
@<TRIPOS>BOND
     1    14    12    1
     2    14    13    1
     3    12    10    1
     4    13    11    1
     5    10    11    2
     6    10     8    1
     7    11     9    1
     8     8     6    2
     9     9     7    2
    10     6     7    1
    11     6     5    1
    12     5     1    1
    13     1     2    1
    14     2     3    1
    15     2     4    2
