@<TRIPOS>MOLECULE
/home/cewinharhar/GITHUB/reincatalyze/data/processed/docking_pred/2023-May-22-2206_sub9_nm5_bs15_s42_ex16_mel10_mts10000_k50_ec02_g099_lra9e-4_lrc1e-3/d558da89fa5d1abbf5476966f73640f3ea5cb98d_ligand_9.pdbqt
 14 15 0 0 0
SMALL
GASTEIGER

@<TRIPOS>ATOM
      1  C          6.3840    0.4020    1.3140 C.3     1  UNL1        0.0800
      2  C          5.9990    0.9010   -0.0360 C.2     1  UNL1        0.1300
      3  C          5.1900    2.1360   -0.2100 C.3     1  UNL1        0.0870
      4  O          6.3390    0.3050   -1.0450 O.2     1  UNL1       -0.3000
      5  C          6.5570   -1.1040    1.3150 C.3     1  UNL1        0.0430
      6  C          7.6800   -1.5240    2.1730 C.2     1  UNL1       -0.0440
      7  C          7.7070   -1.2300    3.5410 C.2     1  UNL1        0.0080
      8  C          8.7310   -2.2250    1.6270 C.2     1  UNL1        0.0540
      9  C          8.7860   -1.6510    4.2970 C.2     1  UNL1        0.0510
     10  C          9.8190   -2.6490    2.3950 C.2     1  UNL1        0.1660
     11  C          9.8470   -2.3590    3.7410 C.2     1  UNL1        0.1650
     12  O         10.9680   -3.3480    2.0910 O.2     1  UNL1       -0.4540
     13  O         11.0250   -2.8930    4.2410 O.2     1  UNL1       -0.4540
     14  C         11.7220   -3.6070    3.2480 C.3     1  UNL1        0.4680
@<TRIPOS>BOND
     1     4     2    2
     2     3     2    1
     3     2     1    1
     4     1     5    1
     5     5     6    1
     6     8     6    2
     7     8    10    1
     8    12    10    1
     9    12    14    1
    10     6     7    1
    11    10    11    2
    12    14    13    1
    13     7     9    2
    14    11    13    1
    15    11     9    1
