@<TRIPOS>MOLECULE
/home/cewinharhar/GITHUB/reincatalyze/data/processed/docking_pred/2023-May-22-2206_sub9_nm5_bs15_s42_ex16_mel10_mts10000_k50_ec02_g099_lra9e-4_lrc1e-3/d558da89fa5d1abbf5476966f73640f3ea5cb98d_ligand_9.pdbqt
 14 15 0 0 0
SMALL
GASTEIGER

@<TRIPOS>ATOM
      1  C          5.4460    0.1580    2.0460 C.3     1  UNL1        0.0800
      2  C          5.2230    1.2090    1.0140 C.2     1  UNL1        0.1300
      3  C          5.8970    1.1570   -0.3110 C.3     1  UNL1        0.0870
      4  O          4.4760    2.1490    1.2280 O.2     1  UNL1       -0.3000
      5  C          6.0070   -1.1080    1.4300 C.3     1  UNL1        0.0430
      6  C          7.2880   -1.4950    2.0470 C.2     1  UNL1       -0.0440
      7  C          8.2610   -2.2040    1.3340 C.2     1  UNL1        0.0080
      8  C          7.5460   -1.1540    3.3560 C.2     1  UNL1        0.0540
      9  C          9.4450   -2.5390    1.9650 C.2     1  UNL1        0.0510
     10  C          8.7450   -1.4940    3.9890 C.2     1  UNL1        0.1660
     11  C          9.7020   -2.1930    3.2880 C.2     1  UNL1        0.1650
     12  O          9.2310   -1.2740    5.2600 O.2     1  UNL1       -0.4540
     13  O         10.7680   -2.3890    4.1520 O.2     1  UNL1       -0.4540
     14  C         10.5490   -1.7440    5.3840 C.3     1  UNL1        0.4680
@<TRIPOS>BOND
     1     3     2    1
     2     2     4    2
     3     2     1    1
     4     7     9    1
     5     7     6    2
     6     5     1    1
     7     5     6    1
     8     9    11    2
     9     6     8    1
    10    11    10    1
    11    11    13    1
    12     8    10    2
    13    10    12    1
    14    13    14    1
    15    12    14    1
