MODEL 1
REMARK VINA RESULT:      -7.7      0.000      0.000
REMARK SMILES CC(=O)CCc1ccc2c(c1)OCO2
REMARK SMILES IDX 4 1 2 2 1 3 3 4 5 5 6 6 7 7 11 8 8 9 10 10 9 11 12 12 14 13
REMARK SMILES IDX 13 14
REMARK H PARENT
REMARK Flexibility Score: inf
ROOT
ATOM      1  C   UNL     1       5.516   1.913   1.267  1.00  0.00     0.080 C 
ENDROOT
BRANCH   1   2
ATOM      2  C   UNL     1       5.062   0.697   1.998  1.00  0.00     0.130 C 
ATOM      3  C   UNL     1       5.935  -0.499   2.143  1.00  0.00     0.087 C 
ATOM      4  O   UNL     1       3.952   0.647   2.503  1.00  0.00    -0.300 OA
ENDBRANCH   1   2
BRANCH   1   5
ATOM      5  C   UNL     1       5.393   1.731  -0.233  1.00  0.00     0.043 C 
BRANCH   5   6
ATOM      6  C   UNL     1       6.560   1.030  -0.796  1.00  0.00    -0.044 A 
ATOM      7  C   UNL     1       7.867   1.467  -0.549  1.00  0.00     0.008 A 
ATOM      8  C   UNL     1       6.373  -0.083  -1.584  1.00  0.00     0.054 A 
ATOM      9  C   UNL     1       8.924   0.769  -1.104  1.00  0.00     0.051 A 
ATOM     10  C   UNL     1       7.445  -0.786  -2.142  1.00  0.00     0.166 A 
ATOM     11  C   UNL     1       8.731  -0.356  -1.900  1.00  0.00     0.165 A 
ATOM     12  O   UNL     1       7.519  -1.903  -2.947  1.00  0.00    -0.454 OA
ATOM     13  O   UNL     1       9.577  -1.228  -2.568  1.00  0.00    -0.454 OA
ATOM     14  C   UNL     1       8.855  -2.276  -3.169  1.00  0.00     0.468 C 
ENDBRANCH   5   6
ENDBRANCH   1   5
TORSDOF 3
ENDMDL
MODEL 2
REMARK VINA RESULT:      -7.4      1.947      2.439
REMARK SMILES CC(=O)CCc1ccc2c(c1)OCO2
REMARK SMILES IDX 4 1 2 2 1 3 3 4 5 5 6 6 7 7 11 8 8 9 10 10 9 11 12 12 14 13
REMARK SMILES IDX 13 14
REMARK H PARENT
REMARK Flexibility Score: inf
ROOT
ATOM      1  C   UNL     1       5.759   1.205  -0.306  1.00  0.00     0.080 C 
ENDROOT
BRANCH   1   2
ATOM      2  C   UNL     1       5.240   1.177   1.090  1.00  0.00     0.130 C 
ATOM      3  C   UNL     1       5.377  -0.029   1.950  1.00  0.00     0.087 C 
ATOM      4  O   UNL     1       4.682   2.150   1.571  1.00  0.00    -0.300 OA
ENDBRANCH   1   2
BRANCH   1   5
ATOM      5  C   UNL     1       7.265   1.029  -0.336  1.00  0.00     0.043 C 
BRANCH   5   6
ATOM      6  C   UNL     1       7.652  -0.266  -0.925  1.00  0.00    -0.044 A 
ATOM      7  C   UNL     1       7.719  -0.449  -2.311  1.00  0.00     0.008 A 
ATOM      8  C   UNL     1       7.959  -1.325  -0.102  1.00  0.00     0.054 A 
ATOM      9  C   UNL     1       8.089  -1.686  -2.807  1.00  0.00     0.051 A 
ATOM     10  C   UNL     1       8.333  -2.574  -0.608  1.00  0.00     0.166 A 
ATOM     11  C   UNL     1       8.398  -2.755  -1.972  1.00  0.00     0.165 A 
ATOM     12  O   UNL     1       8.680  -3.765  -0.008  1.00  0.00    -0.454 OA
ATOM     13  O   UNL     1       8.789  -4.068  -2.183  1.00  0.00    -0.454 OA
ATOM     14  C   UNL     1       9.067  -4.718  -0.965  1.00  0.00     0.468 C 
ENDBRANCH   5   6
ENDBRANCH   1   5
TORSDOF 3
ENDMDL
MODEL 3
REMARK VINA RESULT:      -7.2      2.084      2.616
REMARK SMILES CC(=O)CCc1ccc2c(c1)OCO2
REMARK SMILES IDX 4 1 2 2 1 3 3 4 5 5 6 6 7 7 11 8 8 9 10 10 9 11 12 12 14 13
REMARK SMILES IDX 13 14
REMARK H PARENT
REMARK Flexibility Score: inf
ROOT
ATOM      1  C   UNL     1       5.544   0.014   1.946  1.00  0.00     0.080 C 
ENDROOT
BRANCH   1   2
ATOM      2  C   UNL     1       4.650   1.167   1.645  1.00  0.00     0.130 C 
ATOM      3  C   UNL     1       4.938   2.107   0.528  1.00  0.00     0.087 C 
ATOM      4  O   UNL     1       3.649   1.374   2.310  1.00  0.00    -0.300 OA
ENDBRANCH   1   2
BRANCH   1   5
ATOM      5  C   UNL     1       6.958   0.274   1.466  1.00  0.00     0.043 C 
BRANCH   5   6
ATOM      6  C   UNL     1       7.369  -0.690   0.429  1.00  0.00    -0.044 A 
ATOM      7  C   UNL     1       7.274  -0.385  -0.934  1.00  0.00     0.008 A 
ATOM      8  C   UNL     1       7.862  -1.921   0.798  1.00  0.00     0.054 A 
ATOM      9  C   UNL     1       7.675  -1.329  -1.862  1.00  0.00     0.051 A 
ATOM     10  C   UNL     1       8.267  -2.871  -0.144  1.00  0.00     0.166 A 
ATOM     11  C   UNL     1       8.172  -2.572  -1.485  1.00  0.00     0.165 A 
ATOM     12  O   UNL     1       8.781  -4.145  -0.032  1.00  0.00    -0.454 OA
ATOM     13  O   UNL     1       8.636  -3.681  -2.176  1.00  0.00    -0.454 OA
ATOM     14  C   UNL     1       9.117  -4.666  -1.293  1.00  0.00     0.468 C 
ENDBRANCH   5   6
ENDBRANCH   1   5
TORSDOF 3
ENDMDL
MODEL 4
REMARK VINA RESULT:      -7.1      1.255      1.463
REMARK SMILES CC(=O)CCc1ccc2c(c1)OCO2
REMARK SMILES IDX 4 1 2 2 1 3 3 4 5 5 6 6 7 7 11 8 8 9 10 10 9 11 12 12 14 13
REMARK SMILES IDX 13 14
REMARK H PARENT
REMARK Flexibility Score: inf
ROOT
ATOM      1  C   UNL     1       6.380   1.204   0.943  1.00  0.00     0.080 C 
ENDROOT
BRANCH   1   2
ATOM      2  C   UNL     1       5.651   0.373   1.941  1.00  0.00     0.130 C 
ATOM      3  C   UNL     1       6.255  -0.854   2.525  1.00  0.00     0.087 C 
ATOM      4  O   UNL     1       4.529   0.677   2.310  1.00  0.00    -0.300 OA
ENDBRANCH   1   2
BRANCH   1   5
ATOM      5  C   UNL     1       5.878   0.943  -0.463  1.00  0.00     0.043 C 
BRANCH   5   6
ATOM      6  C   UNL     1       6.821   0.115  -1.236  1.00  0.00    -0.044 A 
ATOM      7  C   UNL     1       7.503   0.623  -2.347  1.00  0.00     0.008 A 
ATOM      8  C   UNL     1       7.046  -1.191  -0.862  1.00  0.00     0.054 A 
ATOM      9  C   UNL     1       8.376  -0.201  -3.033  1.00  0.00     0.051 A 
ATOM     10  C   UNL     1       7.931  -2.020  -1.559  1.00  0.00     0.166 A 
ATOM     11  C   UNL     1       8.601  -1.520  -2.653  1.00  0.00     0.165 A 
ATOM     12  O   UNL     1       8.320  -3.331  -1.390  1.00  0.00    -0.454 OA
ATOM     13  O   UNL     1       9.397  -2.546  -3.138  1.00  0.00    -0.454 OA
ATOM     14  C   UNL     1       9.319  -3.684  -2.313  1.00  0.00     0.468 C 
ENDBRANCH   5   6
ENDBRANCH   1   5
TORSDOF 3
ENDMDL
MODEL 5
REMARK VINA RESULT:      -7.0      1.960      2.507
REMARK SMILES CC(=O)CCc1ccc2c(c1)OCO2
REMARK SMILES IDX 4 1 2 2 1 3 3 4 5 5 6 6 7 7 11 8 8 9 10 10 9 11 12 12 14 13
REMARK SMILES IDX 13 14
REMARK H PARENT
REMARK Flexibility Score: inf
ROOT
ATOM      1  C   UNL     1       6.957   1.011   1.210  1.00  0.00     0.080 C 
ENDROOT
BRANCH   1   2
ATOM      2  C   UNL     1       5.486   1.152   1.402  1.00  0.00     0.130 C 
ATOM      3  C   UNL     1       4.691   2.150   0.638  1.00  0.00     0.087 C 
ATOM      4  O   UNL     1       4.888   0.448   2.200  1.00  0.00    -0.300 OA
ENDBRANCH   1   2
BRANCH   1   5
ATOM      5  C   UNL     1       7.335   1.141  -0.253  1.00  0.00     0.043 C 
BRANCH   5   6
ATOM      6  C   UNL     1       7.689  -0.162  -0.843  1.00  0.00    -0.044 A 
ATOM      7  C   UNL     1       7.800  -0.334  -2.227  1.00  0.00     0.008 A 
ATOM      8  C   UNL     1       7.921  -1.243  -0.022  1.00  0.00     0.054 A 
ATOM      9  C   UNL     1       8.137  -1.580  -2.724  1.00  0.00     0.051 A 
ATOM     10  C   UNL     1       8.261  -2.500  -0.529  1.00  0.00     0.166 A 
ATOM     11  C   UNL     1       8.370  -2.670  -1.892  1.00  0.00     0.165 A 
ATOM     12  O   UNL     1       8.536  -3.712   0.069  1.00  0.00    -0.454 OA
ATOM     13  O   UNL     1       8.714  -3.996  -2.104  1.00  0.00    -0.454 OA
ATOM     14  C   UNL     1       8.918  -4.670  -0.885  1.00  0.00     0.468 C 
ENDBRANCH   5   6
ENDBRANCH   1   5
TORSDOF 3
ENDMDL
