@<TRIPOS>MOLECULE
/home/cewinharhar/GITHUB/reincatalyze/data/processed/docking_pred/2023-May-22-2206_sub9_nm5_bs15_s42_ex16_mel10_mts10000_k50_ec02_g099_lra9e-4_lrc1e-3/d6fa7c89c21ca11aa73af88b15ecc664e93337c3_ligand_9.pdbqt
 14 15 0 0 0
SMALL
GASTEIGER

@<TRIPOS>ATOM
      1  C          6.0460   -0.2960    1.5520 C.3     1  UNL1        0.0800
      2  C          5.0550    0.8130    1.6290 C.2     1  UNL1        0.1300
      3  C          5.0710    1.9440    0.6630 C.3     1  UNL1        0.0870
      4  O          4.1950    0.8260    2.4950 O.2     1  UNL1       -0.3000
      5  C          7.3940    0.2040    1.0720 C.3     1  UNL1        0.0430
      6  C          7.7210   -0.3110   -0.2700 C.2     1  UNL1       -0.0440
      7  C          7.8550    0.5440   -1.3700 C.2     1  UNL1        0.0080
      8  C          7.9040   -1.6620   -0.4570 C.2     1  UNL1        0.0540
      9  C          8.1640    0.0040   -2.6050 C.2     1  UNL1        0.0510
     10  C          8.2160   -2.2030   -1.7080 C.2     1  UNL1        0.1660
     11  C          8.3470   -1.3620   -2.7910 C.2     1  UNL1        0.1650
     12  O          8.4420   -3.4910   -2.1450 O.2     1  UNL1       -0.4540
     13  O          8.6550   -2.1600   -3.8820 O.2     1  UNL1       -0.4540
     14  C          8.8140   -3.5050   -3.4990 C.3     1  UNL1        0.4680
@<TRIPOS>BOND
     1    13    14    1
     2    13    11    1
     3    14    12    1
     4    11     9    2
     5    11    10    1
     6     9     7    1
     7    12    10    1
     8    10     8    2
     9     7     6    2
    10     8     6    1
    11     6     5    1
    12     3     2    1
    13     5     1    1
    14     1     2    1
    15     2     4    2
