@<TRIPOS>MOLECULE
/home/cewinharhar/GITHUB/reincatalyze/data/processed/docking_pred/2023-May-22-2206_sub9_nm5_bs15_s42_ex16_mel10_mts10000_k50_ec02_g099_lra9e-4_lrc1e-3/d6fa7c89c21ca11aa73af88b15ecc664e93337c3_ligand_9.pdbqt
 14 15 0 0 0
SMALL
GASTEIGER

@<TRIPOS>ATOM
      1  C          8.0730   -2.5480   -3.5680 C.3     1  UNL1        0.0800
      2  C          9.2160   -3.4880   -3.3950 C.2     1  UNL1        0.1300
      3  C          9.0110   -4.9580   -3.3000 C.3     1  UNL1        0.0870
      4  O         10.3620   -3.0740   -3.3240 O.2     1  UNL1       -0.3000
      5  C          8.4230   -1.1590   -3.0720 C.3     1  UNL1        0.0430
      6  C          7.6750   -0.8120   -1.8500 C.2     1  UNL1       -0.0440
      7  C          7.7410   -1.6070   -0.6990 C.2     1  UNL1        0.0080
      8  C          6.8930    0.3200   -1.8270 C.2     1  UNL1        0.0540
      9  C          7.0190   -1.2300    0.4180 C.2     1  UNL1        0.0510
     10  C          6.1650    0.6960   -0.6940 C.2     1  UNL1        0.1660
     11  C          6.2280   -0.0850    0.4380 C.2     1  UNL1        0.1650
     12  O          5.3270    1.7580   -0.4260 O.2     1  UNL1       -0.4540
     13  O          5.4210    0.5190    1.3880 O.2     1  UNL1       -0.4540
     14  C          4.9020    1.7390    0.9130 C.3     1  UNL1        0.4680
@<TRIPOS>BOND
     1     1     2    1
     2     1     5    1
     3     2     4    2
     4     2     3    1
     5     5     6    1
     6     6     8    2
     7     6     7    1
     8     8    10    1
     9     7     9    2
    10    10    12    1
    11    10    11    2
    12    12    14    1
    13     9    11    1
    14    11    13    1
    15    14    13    1
