@<TRIPOS>MOLECULE
/home/cewinharhar/GITHUB/reincatalyze/data/processed/docking_pred/2023-May-22-2206_sub9_nm5_bs15_s42_ex16_mel10_mts10000_k50_ec02_g099_lra9e-4_lrc1e-3/d7d9c72b52c2e0a01b4806f6bcc2a503b8c9528b_ligand_9.pdbqt
 14 15 0 0 0
SMALL
GASTEIGER

@<TRIPOS>ATOM
      1  C          8.0560   -1.7810   -2.2730 C.3     1  UNL1        0.0800
      2  C          8.7340   -0.4620   -2.4160 C.2     1  UNL1        0.1300
      3  C          8.1900    0.6040   -3.3000 C.3     1  UNL1        0.0870
      4  O          9.7630   -0.2170   -1.8080 O.2     1  UNL1       -0.3000
      5  C          8.2240   -2.3370   -0.8740 C.3     1  UNL1        0.0430
      6  C          7.3580   -1.6440    0.0970 C.2     1  UNL1       -0.0440
      7  C          7.2550   -2.0750    1.4250 C.2     1  UNL1        0.0080
      8  C          6.6320   -0.5450   -0.2990 C.2     1  UNL1        0.0540
      9  C          6.4270   -1.3850    2.2920 C.2     1  UNL1        0.0510
     10  C          5.7970    0.1500    0.5810 C.2     1  UNL1        0.1660
     11  C          5.6940   -0.2740    1.8870 C.2     1  UNL1        0.1650
     12  O          4.9840    1.2530    0.4310 O.2     1  UNL1       -0.4540
     13  O          4.8110    0.5880    2.5190 O.2     1  UNL1       -0.4540
     14  C          4.4070    1.6250    1.6570 C.3     1  UNL1        0.4680
@<TRIPOS>BOND
     1     3     2    1
     2     2     1    1
     3     2     4    2
     4     1     5    1
     5     5     6    1
     6     8     6    2
     7     8    10    1
     8     6     7    1
     9    12    10    1
    10    12    14    1
    11    10    11    2
    12     7     9    2
    13    14    13    1
    14    11     9    1
    15    11    13    1
