@<TRIPOS>MOLECULE
/home/cewinharhar/GITHUB/reincatalyze/data/processed/docking_pred/2023-May-22-2206_sub9_nm5_bs15_s42_ex16_mel10_mts10000_k50_ec02_g099_lra9e-4_lrc1e-3/d7d9c72b52c2e0a01b4806f6bcc2a503b8c9528b_ligand_9.pdbqt
 14 15 0 0 0
SMALL
GASTEIGER

@<TRIPOS>ATOM
      1  C          8.7840   -3.9430   -0.3750 C.3     1  UNL1        0.0800
      2  C          9.3100   -4.8320   -1.4470 C.2     1  UNL1        0.1300
      3  C          8.9120   -6.2620   -1.5410 C.3     1  UNL1        0.0870
      4  O         10.0900   -4.4100   -2.2860 O.2     1  UNL1       -0.3000
      5  C          8.3270   -2.6120   -0.9390 C.3     1  UNL1        0.0430
      6  C          7.4890   -1.8710    0.0200 C.2     1  UNL1       -0.0440
      7  C          7.4060   -2.2470    1.3650 C.2     1  UNL1        0.0080
      8  C          6.7670   -0.7790   -0.4060 C.2     1  UNL1        0.0540
      9  C          6.6030   -1.5130    2.2190 C.2     1  UNL1        0.0510
     10  C          5.9570   -0.0400    0.4610 C.2     1  UNL1        0.1660
     11  C          5.8740   -0.4110    1.7850 C.2     1  UNL1        0.1650
     12  O          5.1540    1.0670    0.2830 O.2     1  UNL1       -0.4540
     13  O          5.0140    0.4860    2.3990 O.2     1  UNL1       -0.4540
     14  C          4.6060    1.4930    1.5040 C.3     1  UNL1        0.4680
@<TRIPOS>BOND
     1     4     2    2
     2     3     2    1
     3     2     1    1
     4     5     1    1
     5     5     6    1
     6     8     6    2
     7     8    10    1
     8     6     7    1
     9    12    10    1
    10    12    14    1
    11    10    11    2
    12     7     9    2
    13    14    13    1
    14    11     9    1
    15    11    13    1
