@<TRIPOS>MOLECULE
/home/cewinharhar/GITHUB/reincatalyze/data/processed/docking_pred/2023-May-22-2206_sub9_nm5_bs15_s42_ex16_mel10_mts10000_k50_ec02_g099_lra9e-4_lrc1e-3/d98db6e7330c4682e6208573911aa9edae27e8f4_ligand_9.pdbqt
 14 15 0 0 0
SMALL
GASTEIGER

@<TRIPOS>ATOM
      1  C          5.4230   -0.0640    2.0130 C.3     1  UNL1        0.0800
      2  C          4.5810    1.1410    1.7710 C.2     1  UNL1        0.1300
      3  C          4.9160    2.1280    0.7100 C.3     1  UNL1        0.0870
      4  O          3.5840    1.3540    2.4430 O.2     1  UNL1       -0.3000
      5  C          6.8620    0.1790    1.6010 C.3     1  UNL1        0.0430
      6  C          7.2890   -0.7460    0.5370 C.2     1  UNL1       -0.0440
      7  C          7.1660   -0.4140   -0.8170 C.2     1  UNL1        0.0080
      8  C          7.8260   -1.9690    0.8710 C.2     1  UNL1        0.0540
      9  C          7.5850   -1.3220   -1.7720 C.2     1  UNL1        0.0510
     10  C          8.2480   -2.8840   -0.0980 C.2     1  UNL1        0.1660
     11  C          8.1260   -2.5580   -1.4300 C.2     1  UNL1        0.1650
     12  O          8.8050   -4.1430   -0.0220 O.2     1  UNL1       -0.4540
     13  O          8.6170   -3.6340   -2.1530 O.2     1  UNL1       -0.4540
     14  C          9.1410   -4.6230   -1.2990 C.3     1  UNL1        0.4680
@<TRIPOS>BOND
     1    13    11    1
     2    13    14    1
     3     9    11    2
     4     9     7    1
     5    11    10    1
     6    14    12    1
     7     7     6    2
     8    10    12    1
     9    10     8    2
    10     6     8    1
    11     6     5    1
    12     3     2    1
    13     5     1    1
    14     2     1    1
    15     2     4    2
