@<TRIPOS>MOLECULE
/home/cewinharhar/GITHUB/reincatalyze/data/processed/docking_pred/2023-May-22-2206_sub9_nm5_bs15_s42_ex16_mel10_mts10000_k50_ec02_g099_lra9e-4_lrc1e-3/da55d276f49f8aea3f2b333b6115ea57fe53d1b0_ligand_9.pdbqt
 14 15 0 0 0
SMALL
GASTEIGER

@<TRIPOS>ATOM
      1  C          5.1360    0.4960    1.4980 C.3     1  UNL1        0.0800
      2  C          6.2850   -0.1690    2.1730 C.2     1  UNL1        0.1300
      3  C          6.4850   -1.6410    2.1070 C.3     1  UNL1        0.0870
      4  O          7.1020    0.4810    2.8050 O.2     1  UNL1       -0.3000
      5  C          5.6060    1.4180    0.3910 C.3     1  UNL1        0.0430
      6  C          6.7050    0.8210   -0.3890 C.2     1  UNL1       -0.0440
      7  C          7.9790    1.4000   -0.4240 C.2     1  UNL1        0.0080
      8  C          6.4850   -0.3360   -1.1010 C.2     1  UNL1        0.0540
      9  C          8.9710    0.7940   -1.1730 C.2     1  UNL1        0.0510
     10  C          7.4920   -0.9450   -1.8560 C.2     1  UNL1        0.1660
     11  C          8.7450   -0.3750   -1.8920 C.2     1  UNL1        0.1650
     12  O          7.5230   -2.0800   -2.6390 O.2     1  UNL1       -0.4540
     13  O          9.5280   -1.1800   -2.7040 O.2     1  UNL1       -0.4540
     14  C          8.8190   -2.3210   -3.1250 C.3     1  UNL1        0.4680
@<TRIPOS>BOND
     1    14    13    1
     2    14    12    1
     3    13    11    1
     4    12    10    1
     5    11    10    2
     6    11     9    1
     7    10     8    1
     8     9     7    2
     9     8     6    2
    10     7     6    1
    11     6     5    1
    12     5     1    1
    13     1     2    1
    14     3     2    1
    15     2     4    2
