@<TRIPOS>MOLECULE
/home/cewinharhar/GITHUB/reincatalyze/data/processed/docking_pred/2023-May-22-2206_sub9_nm5_bs15_s42_ex16_mel10_mts10000_k50_ec02_g099_lra9e-4_lrc1e-3/da8cc6d1e5cd7ce525c19b897a66d3eb6c9b42e2_ligand_9.pdbqt
 14 15 0 0 0
SMALL
GASTEIGER

@<TRIPOS>ATOM
      1  C          5.5770    1.8840    1.2950 C.3     1  UNL1        0.0800
      2  C          5.1280    0.6630    2.0200 C.2     1  UNL1        0.1300
      3  C          6.0250   -0.5100    2.2030 C.3     1  UNL1        0.0870
      4  O          4.0030    0.5890    2.4870 O.2     1  UNL1       -0.3000
      5  C          5.4360    1.7170   -0.2050 C.3     1  UNL1        0.0430
      6  C          6.5920    1.0120   -0.7870 C.2     1  UNL1       -0.0440
      7  C          7.9040    1.4500   -0.5710 C.2     1  UNL1        0.0080
      8  C          6.3890   -0.1080   -1.5620 C.2     1  UNL1        0.0540
      9  C          8.9490    0.7480   -1.1420 C.2     1  UNL1        0.0510
     10  C          7.4490   -0.8150   -2.1370 C.2     1  UNL1        0.1660
     11  C          8.7400   -0.3830   -1.9250 C.2     1  UNL1        0.1650
     12  O          7.5070   -1.9380   -2.9340 O.2     1  UNL1       -0.4540
     13  O          9.5720   -1.2610   -2.6030 O.2     1  UNL1       -0.4540
     14  C          8.8380   -2.3140   -3.1810 C.3     1  UNL1        0.4680
@<TRIPOS>BOND
     1    14    12    1
     2    14    13    1
     3    12    10    1
     4    13    11    1
     5    10    11    2
     6    10     8    1
     7    11     9    1
     8     8     6    2
     9     9     7    2
    10     6     7    1
    11     6     5    1
    12     5     1    1
    13     1     2    1
    14     2     3    1
    15     2     4    2
