@<TRIPOS>MOLECULE
/home/cewinharhar/GITHUB/reincatalyze/data/processed/docking_pred/2023-May-22-2206_sub9_nm5_bs15_s42_ex16_mel10_mts10000_k50_ec02_g099_lra9e-4_lrc1e-3/dae946a14533abf5a26c4c259dc9c56d74217bba_ligand_9.pdbqt
 14 15 0 0 0
SMALL
GASTEIGER

@<TRIPOS>ATOM
      1  C          5.5390    1.9030    1.2860 C.3     1  UNL1        0.0800
      2  C          5.1140    0.6830    2.0270 C.2     1  UNL1        0.1300
      3  C          6.0190   -0.4860    2.1920 C.3     1  UNL1        0.0870
      4  O          4.0010    0.6070    2.5240 O.2     1  UNL1       -0.3000
      5  C          5.4030    1.7130   -0.2120 C.3     1  UNL1        0.0430
      6  C          6.5700    1.0170   -0.7830 C.2     1  UNL1       -0.0440
      7  C          7.8760    1.4570   -0.5410 C.2     1  UNL1        0.0080
      8  C          6.3820   -0.0950   -1.5720 C.2     1  UNL1        0.0540
      9  C          8.9320    0.7630   -1.1020 C.2     1  UNL1        0.0510
     10  C          7.4530   -0.7940   -2.1370 C.2     1  UNL1        0.1660
     11  C          8.7390   -0.3610   -1.9000 C.2     1  UNL1        0.1650
     12  O          7.5270   -1.9080   -2.9440 O.2     1  UNL1       -0.4540
     13  O          9.5840   -1.2280   -2.5740 O.2     1  UNL1       -0.4540
     14  C          8.8630   -2.2770   -3.1740 C.3     1  UNL1        0.4680
@<TRIPOS>BOND
     1    14    12    1
     2    14    13    1
     3    12    10    1
     4    13    11    1
     5    10    11    2
     6    10     8    1
     7    11     9    1
     8     8     6    2
     9     9     7    2
    10     6     7    1
    11     6     5    1
    12     5     1    1
    13     1     2    1
    14     2     3    1
    15     2     4    2
