@<TRIPOS>MOLECULE
/home/cewinharhar/GITHUB/reincatalyze/data/processed/docking_pred/2023-May-22-2206_sub9_nm5_bs15_s42_ex16_mel10_mts10000_k50_ec02_g099_lra9e-4_lrc1e-3/dae946a14533abf5a26c4c259dc9c56d74217bba_ligand_9.pdbqt
 14 15 0 0 0
SMALL
GASTEIGER

@<TRIPOS>ATOM
      1  C          5.4740    1.7130    0.0890 C.3     1  UNL1        0.0800
      2  C          4.8630    1.2590    1.3690 C.2     1  UNL1        0.1300
      3  C          5.3950    0.0890    2.1170 C.3     1  UNL1        0.0870
      4  O          3.8990    1.8390    1.8430 O.2     1  UNL1       -0.3000
      5  C          6.9690    1.4630    0.0740 C.3     1  UNL1        0.0430
      6  C          7.3160    0.2660   -0.7130 C.2     1  UNL1       -0.0440
      7  C          7.2120    0.2510   -2.1090 C.2     1  UNL1        0.0080
      8  C          7.7550   -0.8690   -0.0710 C.2     1  UNL1        0.0540
      9  C          7.5510   -0.9010   -2.7950 C.2     1  UNL1        0.0510
     10  C          8.0980   -2.0310   -0.7690 C.2     1  UNL1        0.1660
     11  C          7.9950   -2.0470   -2.1420 C.2     1  UNL1        0.1650
     12  O          8.5530   -3.2690   -0.3670 O.2     1  UNL1       -0.4540
     13  O          8.3940   -3.3070   -2.5590 O.2     1  UNL1       -0.4540
     14  C          8.8420   -4.0840   -1.4740 C.3     1  UNL1        0.4680
@<TRIPOS>BOND
     1     9    11    2
     2     9     7    1
     3    13    11    1
     4    13    14    1
     5    11    10    1
     6     7     6    2
     7    14    12    1
     8    10    12    1
     9    10     8    2
    10     6     8    1
    11     6     5    1
    12     5     1    1
    13     1     2    1
    14     2     4    2
    15     2     3    1
