MODEL 1
REMARK VINA RESULT:      -7.7      0.000      0.000
REMARK SMILES CC(=O)CCc1ccc2c(c1)OCO2
REMARK SMILES IDX 4 1 2 2 1 3 3 4 5 5 6 6 7 7 11 8 8 9 10 10 9 11 12 12 14 13
REMARK SMILES IDX 13 14
REMARK H PARENT
REMARK Flexibility Score: inf
ROOT
ATOM      1  C   UNL     1       5.539   1.903   1.286  1.00  0.00     0.080 C 
ENDROOT
BRANCH   1   2
ATOM      2  C   UNL     1       5.114   0.683   2.027  1.00  0.00     0.130 C 
ATOM      3  C   UNL     1       6.019  -0.486   2.192  1.00  0.00     0.087 C 
ATOM      4  O   UNL     1       4.001   0.607   2.524  1.00  0.00    -0.300 OA
ENDBRANCH   1   2
BRANCH   1   5
ATOM      5  C   UNL     1       5.403   1.713  -0.212  1.00  0.00     0.043 C 
BRANCH   5   6
ATOM      6  C   UNL     1       6.570   1.017  -0.783  1.00  0.00    -0.044 A 
ATOM      7  C   UNL     1       7.876   1.457  -0.541  1.00  0.00     0.008 A 
ATOM      8  C   UNL     1       6.382  -0.095  -1.572  1.00  0.00     0.054 A 
ATOM      9  C   UNL     1       8.932   0.763  -1.102  1.00  0.00     0.051 A 
ATOM     10  C   UNL     1       7.453  -0.794  -2.137  1.00  0.00     0.166 A 
ATOM     11  C   UNL     1       8.739  -0.361  -1.900  1.00  0.00     0.165 A 
ATOM     12  O   UNL     1       7.527  -1.908  -2.944  1.00  0.00    -0.454 OA
ATOM     13  O   UNL     1       9.584  -1.228  -2.574  1.00  0.00    -0.454 OA
ATOM     14  C   UNL     1       8.863  -2.277  -3.174  1.00  0.00     0.468 C 
ENDBRANCH   5   6
ENDBRANCH   1   5
TORSDOF 3
ENDMDL
MODEL 2
REMARK VINA RESULT:      -7.2      1.245      1.457
REMARK SMILES CC(=O)CCc1ccc2c(c1)OCO2
REMARK SMILES IDX 4 1 2 2 1 3 3 4 5 5 6 6 7 7 11 8 8 9 10 10 9 11 12 12 14 13
REMARK SMILES IDX 13 14
REMARK H PARENT
REMARK Flexibility Score: inf
ROOT
ATOM      1  C   UNL     1       6.360   1.225   0.876  1.00  0.00     0.080 C 
ENDROOT
BRANCH   1   2
ATOM      2  C   UNL     1       5.669   0.418   1.919  1.00  0.00     0.130 C 
ATOM      3  C   UNL     1       6.285  -0.808   2.494  1.00  0.00     0.087 C 
ATOM      4  O   UNL     1       4.568   0.742   2.335  1.00  0.00    -0.300 OA
ENDBRANCH   1   2
BRANCH   1   5
ATOM      5  C   UNL     1       5.845   0.890  -0.510  1.00  0.00     0.043 C 
BRANCH   5   6
ATOM      6  C   UNL     1       6.812   0.078  -1.271  1.00  0.00    -0.044 A 
ATOM      7  C   UNL     1       7.522   0.608  -2.354  1.00  0.00     0.008 A 
ATOM      8  C   UNL     1       7.030  -1.233  -0.915  1.00  0.00     0.054 A 
ATOM      9  C   UNL     1       8.417  -0.201  -3.030  1.00  0.00     0.051 A 
ATOM     10  C   UNL     1       7.936  -2.047  -1.601  1.00  0.00     0.166 A 
ATOM     11  C   UNL     1       8.635  -1.527  -2.668  1.00  0.00     0.165 A 
ATOM     12  O   UNL     1       8.324  -3.361  -1.445  1.00  0.00    -0.454 OA
ATOM     13  O   UNL     1       9.447  -2.542  -3.149  1.00  0.00    -0.454 OA
ATOM     14  C   UNL     1       9.348  -3.695  -2.347  1.00  0.00     0.468 C 
ENDBRANCH   5   6
ENDBRANCH   1   5
TORSDOF 3
ENDMDL
MODEL 3
REMARK VINA RESULT:      -7.0      1.598      1.966
REMARK SMILES CC(=O)CCc1ccc2c(c1)OCO2
REMARK SMILES IDX 4 1 2 2 1 3 3 4 5 5 6 6 7 7 11 8 8 9 10 10 9 11 12 12 14 13
REMARK SMILES IDX 13 14
REMARK H PARENT
REMARK Flexibility Score: inf
ROOT
ATOM      1  C   UNL     1       5.474   1.713   0.089  1.00  0.00     0.080 C 
ENDROOT
BRANCH   1   2
ATOM      2  C   UNL     1       4.863   1.259   1.369  1.00  0.00     0.130 C 
ATOM      3  C   UNL     1       5.395   0.089   2.117  1.00  0.00     0.087 C 
ATOM      4  O   UNL     1       3.899   1.839   1.843  1.00  0.00    -0.300 OA
ENDBRANCH   1   2
BRANCH   1   5
ATOM      5  C   UNL     1       6.969   1.463   0.074  1.00  0.00     0.043 C 
BRANCH   5   6
ATOM      6  C   UNL     1       7.316   0.266  -0.713  1.00  0.00    -0.044 A 
ATOM      7  C   UNL     1       7.212   0.251  -2.109  1.00  0.00     0.008 A 
ATOM      8  C   UNL     1       7.755  -0.869  -0.071  1.00  0.00     0.054 A 
ATOM      9  C   UNL     1       7.551  -0.901  -2.795  1.00  0.00     0.051 A 
ATOM     10  C   UNL     1       8.098  -2.031  -0.769  1.00  0.00     0.166 A 
ATOM     11  C   UNL     1       7.995  -2.047  -2.142  1.00  0.00     0.165 A 
ATOM     12  O   UNL     1       8.553  -3.269  -0.367  1.00  0.00    -0.454 OA
ATOM     13  O   UNL     1       8.394  -3.307  -2.559  1.00  0.00    -0.454 OA
ATOM     14  C   UNL     1       8.842  -4.084  -1.474  1.00  0.00     0.468 C 
ENDBRANCH   5   6
ENDBRANCH   1   5
TORSDOF 3
ENDMDL
MODEL 4
REMARK VINA RESULT:      -6.9      1.781      2.391
REMARK SMILES CC(=O)CCc1ccc2c(c1)OCO2
REMARK SMILES IDX 4 1 2 2 1 3 3 4 5 5 6 6 7 7 11 8 8 9 10 10 9 11 12 12 14 13
REMARK SMILES IDX 13 14
REMARK H PARENT
REMARK Flexibility Score: inf
ROOT
ATOM      1  C   UNL     1       5.378  -0.043   2.023  1.00  0.00     0.080 C 
ENDROOT
BRANCH   1   2
ATOM      2  C   UNL     1       4.561   1.172   1.749  1.00  0.00     0.130 C 
ATOM      3  C   UNL     1       4.944   2.150   0.696  1.00  0.00     0.087 C 
ATOM      4  O   UNL     1       3.546   1.402   2.387  1.00  0.00    -0.300 OA
ENDBRANCH   1   2
BRANCH   1   5
ATOM      5  C   UNL     1       6.826   0.167   1.626  1.00  0.00     0.043 C 
BRANCH   5   6
ATOM      6  C   UNL     1       7.185  -0.625   0.435  1.00  0.00    -0.044 A 
ATOM      7  C   UNL     1       6.938  -0.155  -0.860  1.00  0.00     0.008 A 
ATOM      8  C   UNL     1       7.781  -1.856   0.589  1.00  0.00     0.054 A 
ATOM      9  C   UNL     1       7.298  -0.941  -1.939  1.00  0.00     0.051 A 
ATOM     10  C   UNL     1       8.144  -2.646  -0.505  1.00  0.00     0.166 A 
ATOM     11  C   UNL     1       7.899  -2.185  -1.780  1.00  0.00     0.165 A 
ATOM     12  O   UNL     1       8.738  -3.886  -0.614  1.00  0.00    -0.454 OA
ATOM     13  O   UNL     1       8.355  -3.161  -2.653  1.00  0.00    -0.454 OA
ATOM     14  C   UNL     1       8.976  -4.215  -1.958  1.00  0.00     0.468 C 
ENDBRANCH   5   6
ENDBRANCH   1   5
TORSDOF 3
ENDMDL
MODEL 5
REMARK VINA RESULT:      -6.8      1.195      5.188
REMARK SMILES CC(=O)CCc1ccc2c(c1)OCO2
REMARK SMILES IDX 4 1 2 2 1 3 3 4 5 5 6 6 7 7 11 8 8 9 10 10 9 11 12 12 14 13
REMARK SMILES IDX 13 14
REMARK H PARENT
REMARK Flexibility Score: inf
ROOT
ATOM      1  C   UNL     1       8.330   0.148  -2.670  1.00  0.00     0.080 C 
ENDROOT
BRANCH   1   2
ATOM      2  C   UNL     1       8.084  -1.315  -2.802  1.00  0.00     0.130 C 
ATOM      3  C   UNL     1       9.197  -2.278  -3.017  1.00  0.00     0.087 C 
ATOM      4  O   UNL     1       6.953  -1.769  -2.737  1.00  0.00    -0.300 OA
ENDBRANCH   1   2
BRANCH   1   5
ATOM      5  C   UNL     1       8.872   0.493  -1.297  1.00  0.00     0.043 C 
BRANCH   5   6
ATOM      6  C   UNL     1       7.838   0.369  -0.254  1.00  0.00    -0.044 A 
ATOM      7  C   UNL     1       7.939  -0.581   0.768  1.00  0.00     0.008 A 
ATOM      8  C   UNL     1       6.744   1.205  -0.276  1.00  0.00     0.054 A 
ATOM      9  C   UNL     1       6.938  -0.650   1.720  1.00  0.00     0.051 A 
ATOM     10  C   UNL     1       5.736   1.131   0.689  1.00  0.00     0.166 A 
ATOM     11  C   UNL     1       5.833   0.196   1.695  1.00  0.00     0.165 A 
ATOM     12  O   UNL     1       4.567   1.836   0.883  1.00  0.00    -0.454 OA
ATOM     13  O   UNL     1       4.711   0.349   2.495  1.00  0.00    -0.454 OA
ATOM     14  C   UNL     1       3.928   1.438   2.068  1.00  0.00     0.468 C 
ENDBRANCH   5   6
ENDBRANCH   1   5
TORSDOF 3
ENDMDL
