@<TRIPOS>MOLECULE
/home/cewinharhar/GITHUB/reincatalyze/data/processed/docking_pred/2023-May-22-2206_sub9_nm5_bs15_s42_ex16_mel10_mts10000_k50_ec02_g099_lra9e-4_lrc1e-3/db02e8dbba2ca978bde564db4603195d7659b46f_ligand_9.pdbqt
 14 15 0 0 0
SMALL
GASTEIGER

@<TRIPOS>ATOM
      1  C          6.3490    1.2460    0.8670 C.3     1  UNL1        0.0800
      2  C          5.6610    0.4340    1.9090 C.2     1  UNL1        0.1300
      3  C          6.2790   -0.7940    2.4760 C.3     1  UNL1        0.0870
      4  O          4.5620    0.7570    2.3300 O.2     1  UNL1       -0.3000
      5  C          5.8360    0.9110   -0.5200 C.3     1  UNL1        0.0430
      6  C          6.8030    0.0970   -1.2780 C.2     1  UNL1       -0.0440
      7  C          7.5200    0.6280   -2.3570 C.2     1  UNL1        0.0080
      8  C          7.0160   -1.2150   -0.9240 C.2     1  UNL1        0.0540
      9  C          8.4150   -0.1830   -3.0310 C.2     1  UNL1        0.0510
     10  C          7.9230   -2.0310   -1.6080 C.2     1  UNL1        0.1660
     11  C          8.6270   -1.5100   -2.6710 C.2     1  UNL1        0.1650
     12  O          8.3060   -3.3460   -1.4530 O.2     1  UNL1       -0.4540
     13  O          9.4380   -2.5270   -3.1510 O.2     1  UNL1       -0.4540
     14  C          9.3330   -3.6810   -2.3510 C.3     1  UNL1        0.4680
@<TRIPOS>BOND
     1    13    11    1
     2    13    14    1
     3     9    11    2
     4     9     7    1
     5    11    10    1
     6     7     6    2
     7    14    12    1
     8    10    12    1
     9    10     8    2
    10     6     8    1
    11     6     5    1
    12     5     1    1
    13     1     2    1
    14     2     4    2
    15     2     3    1
