@<TRIPOS>MOLECULE
/home/cewinharhar/GITHUB/reincatalyze/data/processed/docking_pred/2023-May-22-2206_sub9_nm5_bs15_s42_ex16_mel10_mts10000_k50_ec02_g099_lra9e-4_lrc1e-3/db57195a81496af8cffcd6b4d9524a1fe0637e4f_ligand_9.pdbqt
 14 15 0 0 0
SMALL
GASTEIGER

@<TRIPOS>ATOM
      1  C          5.7160    1.3200   -0.2770 C.3     1  UNL1        0.0800
      2  C          5.1190    1.2630    1.0860 C.2     1  UNL1        0.1300
      3  C          5.3980    0.1360    2.0150 C.3     1  UNL1        0.0870
      4  O          4.3760    2.1470    1.4820 O.2     1  UNL1       -0.3000
      5  C          7.2150    1.0960   -0.2310 C.3     1  UNL1        0.0430
      6  C          7.5950   -0.1890   -0.8440 C.2     1  UNL1       -0.0440
      7  C          7.6710   -0.3440   -2.2330 C.2     1  UNL1        0.0080
      8  C          7.8850   -1.2680   -0.0420 C.2     1  UNL1        0.0540
      9  C          8.0340   -1.5740   -2.7520 C.2     1  UNL1        0.0510
     10  C          8.2520   -2.5090   -0.5710 C.2     1  UNL1        0.1660
     11  C          8.3260   -2.6630   -1.9380 C.2     1  UNL1        0.1650
     12  O          8.5830   -3.7170    0.0070 O.2     1  UNL1       -0.4540
     13  O          8.7070   -3.9750   -2.1730 O.2     1  UNL1       -0.4540
     14  C          8.9680   -4.6530   -0.9670 C.3     1  UNL1        0.4680
@<TRIPOS>BOND
     1     9     7    1
     2     9    11    2
     3     7     6    2
     4    13    11    1
     5    13    14    1
     6    11    10    1
     7    14    12    1
     8     6     5    1
     9     6     8    1
    10    10     8    2
    11    10    12    1
    12     1     5    1
    13     1     2    1
    14     2     4    2
    15     2     3    1
