@<TRIPOS>MOLECULE
/home/cewinharhar/GITHUB/reincatalyze/data/processed/docking_pred/2023-May-22-2206_sub9_nm5_bs15_s42_ex16_mel10_mts10000_k50_ec02_g099_lra9e-4_lrc1e-3/db57195a81496af8cffcd6b4d9524a1fe0637e4f_ligand_9.pdbqt
 14 15 0 0 0
SMALL
GASTEIGER

@<TRIPOS>ATOM
      1  C          6.3040    1.3060    0.8610 C.3     1  UNL1        0.0800
      2  C          5.6680    0.4480    1.8980 C.2     1  UNL1        0.1300
      3  C          6.3810   -0.7130    2.4960 C.3     1  UNL1        0.0870
      4  O          4.5350    0.6740    2.2900 O.2     1  UNL1       -0.3000
      5  C          5.8000    0.9590   -0.5260 C.3     1  UNL1        0.0430
      6  C          6.7740    0.1450   -1.2740 C.2     1  UNL1       -0.0440
      7  C          7.5120    0.6770   -2.3370 C.2     1  UNL1        0.0080
      8  C          6.9710   -1.1720   -0.9260 C.2     1  UNL1        0.0540
      9  C          8.4130   -0.1350   -3.0020 C.2     1  UNL1        0.0510
     10  C          7.8830   -1.9890   -1.6010 C.2     1  UNL1        0.1660
     11  C          8.6100   -1.4660   -2.6480 C.2     1  UNL1        0.1650
     12  O          8.2550   -3.3080   -1.4500 O.2     1  UNL1       -0.4540
     13  O          9.4210   -2.4850   -3.1210 O.2     1  UNL1       -0.4540
     14  C          9.2940   -3.6440   -2.3330 C.3     1  UNL1        0.4680
@<TRIPOS>BOND
     1    13    11    1
     2    13    14    1
     3     9    11    2
     4     9     7    1
     5    11    10    1
     6     7     6    2
     7    14    12    1
     8    10    12    1
     9    10     8    2
    10     6     8    1
    11     6     5    1
    12     5     1    1
    13     1     2    1
    14     2     4    2
    15     2     3    1
