@<TRIPOS>MOLECULE
/home/cewinharhar/GITHUB/reincatalyze/data/processed/docking_pred/2023-May-22-2206_sub9_nm5_bs15_s42_ex16_mel10_mts10000_k50_ec02_g099_lra9e-4_lrc1e-3/db6d960fae65c9d90f474a1e8ae318b6f28ec3f2_ligand_9.pdbqt
 14 15 0 0 0
SMALL
GASTEIGER

@<TRIPOS>ATOM
      1  C          6.4120    1.1940    0.9380 C.3     1  UNL1        0.0800
      2  C          5.6780    0.3570    1.9280 C.2     1  UNL1        0.1300
      3  C          6.2720   -0.8830    2.4950 C.3     1  UNL1        0.0870
      4  O          4.5590    0.6680    2.3040 O.2     1  UNL1       -0.3000
      5  C          5.9070    0.9510   -0.4700 C.3     1  UNL1        0.0430
      6  C          6.8370    0.1130   -1.2470 C.2     1  UNL1       -0.0440
      7  C          7.5140    0.6120   -2.3660 C.2     1  UNL1        0.0080
      8  C          7.0550   -1.1930   -0.8710 C.2     1  UNL1        0.0540
      9  C          8.3760   -0.2210   -3.0560 C.2     1  UNL1        0.0510
     10  C          7.9280   -2.0310   -1.5720 C.2     1  UNL1        0.1660
     11  C          8.5930   -1.5410   -2.6730 C.2     1  UNL1        0.1650
     12  O          8.3080   -3.3450   -1.4020 O.2     1  UNL1       -0.4540
     13  O          9.3770   -2.5750   -3.1610 O.2     1  UNL1       -0.4540
     14  C          9.2960   -3.7090   -2.3310 C.3     1  UNL1        0.4680
@<TRIPOS>BOND
     1    13    11    1
     2    13    14    1
     3     9    11    2
     4     9     7    1
     5    11    10    1
     6     7     6    2
     7    14    12    1
     8    10    12    1
     9    10     8    2
    10     6     8    1
    11     6     5    1
    12     5     1    1
    13     1     2    1
    14     2     4    2
    15     2     3    1
