@<TRIPOS>MOLECULE
/home/cewinharhar/GITHUB/reincatalyze/data/processed/docking_pred/2023-May-22-2206_sub9_nm5_bs15_s42_ex16_mel10_mts10000_k50_ec02_g099_lra9e-4_lrc1e-3/db6d960fae65c9d90f474a1e8ae318b6f28ec3f2_ligand_9.pdbqt
 14 15 0 0 0
SMALL
GASTEIGER

@<TRIPOS>ATOM
      1  C          7.0820    0.8950    0.9890 C.3     1  UNL1        0.0800
      2  C          5.6470    1.1680    1.2780 C.2     1  UNL1        0.1300
      3  C          4.8630    2.1500    0.4820 C.3     1  UNL1        0.0870
      4  O          5.0690    0.5890    2.1830 O.2     1  UNL1       -0.3000
      5  C          7.3730    0.9910   -0.4950 C.3     1  UNL1        0.0430
      6  C          7.7960   -0.3050   -1.0550 C.2     1  UNL1       -0.0440
      7  C          8.0740   -0.4590   -2.4180 C.2     1  UNL1        0.0080
      8  C          7.9260   -1.3960   -0.2260 C.2     1  UNL1        0.0540
      9  C          8.4680   -1.6990   -2.8860 C.2     1  UNL1        0.0510
     10  C          8.3250   -2.6480   -0.7040 C.2     1  UNL1        0.1660
     11  C          8.5980   -2.8010   -2.0460 C.2     1  UNL1        0.1650
     12  O          8.5250   -3.8670   -0.0930 O.2     1  UNL1       -0.4540
     13  O          8.9640   -4.1240   -2.2320 O.2     1  UNL1       -0.4540
     14  C          9.0190   -4.8140   -1.0060 C.3     1  UNL1        0.4680
@<TRIPOS>BOND
     1     9     7    1
     2     9    11    2
     3     7     6    2
     4    13    11    1
     5    13    14    1
     6    11    10    1
     7     6     5    1
     8     6     8    1
     9    14    12    1
    10    10     8    2
    11    10    12    1
    12     5     1    1
    13     3     2    1
    14     1     2    1
    15     2     4    2
