@<TRIPOS>MOLECULE
/home/cewinharhar/GITHUB/reincatalyze/data/processed/docking_pred/2023-May-22-2206_sub9_nm5_bs15_s42_ex16_mel10_mts10000_k50_ec02_g099_lra9e-4_lrc1e-3/dba3942d2f0306a5a819952336ad453bb769fd78_ligand_9.pdbqt
 14 15 0 0 0
SMALL
GASTEIGER

@<TRIPOS>ATOM
      1  C          6.7570    0.5840    1.0860 C.3     1  UNL1        0.0800
      2  C          5.4110    1.1690    1.3420 C.2     1  UNL1        0.1300
      3  C          4.7950    2.1490    0.4070 C.3     1  UNL1        0.0870
      4  O          4.7710    0.8600    2.3340 O.2     1  UNL1       -0.3000
      5  C          7.1690    0.7640   -0.3610 C.3     1  UNL1        0.0430
      6  C          7.6480   -0.4970   -0.9540 C.2     1  UNL1       -0.0440
      7  C          7.8700   -0.6230   -2.3300 C.2     1  UNL1        0.0080
      8  C          7.8870   -1.5840   -0.1440 C.2     1  UNL1        0.0540
      9  C          8.3200   -1.8310   -2.8300 C.2     1  UNL1        0.0510
     10  C          8.3420   -2.8040   -0.6540 C.2     1  UNL1        0.1660
     11  C          8.5600   -2.9280   -2.0080 C.2     1  UNL1        0.1650
     12  O          8.6480   -4.0130   -0.0660 O.2     1  UNL1       -0.4540
     13  O          9.0020   -4.2240   -2.2250 O.2     1  UNL1       -0.4540
     14  C          9.1590   -4.9180   -1.0110 C.3     1  UNL1        0.4680
@<TRIPOS>BOND
     1     9     7    1
     2     9    11    2
     3     7     6    2
     4    13    11    1
     5    13    14    1
     6    11    10    1
     7    14    12    1
     8     6     5    1
     9     6     8    1
    10    10     8    2
    11    10    12    1
    12     5     1    1
    13     3     2    1
    14     1     2    1
    15     2     4    2
