MODEL 1
REMARK VINA RESULT:      -7.7      0.000      0.000
REMARK SMILES CC(=O)CCc1ccc2c(c1)OCO2
REMARK SMILES IDX 4 1 2 2 1 3 3 4 5 5 6 6 7 7 11 8 8 9 10 10 9 11 12 12 14 13
REMARK SMILES IDX 13 14
REMARK H PARENT
REMARK Flexibility Score: inf
ROOT
ATOM      1  C   UNL     1       5.540   1.793   1.161  1.00  0.00     0.080 C 
ENDROOT
BRANCH   1   2
ATOM      2  C   UNL     1       5.069   0.606   1.928  1.00  0.00     0.130 C 
ATOM      3  C   UNL     1       5.857  -0.654   1.979  1.00  0.00     0.087 C 
ATOM      4  O   UNL     1       4.014   0.635   2.542  1.00  0.00    -0.300 OA
ENDBRANCH   1   2
BRANCH   1   5
ATOM      5  C   UNL     1       5.436   1.559  -0.333  1.00  0.00     0.043 C 
BRANCH   5   6
ATOM      6  C   UNL     1       6.680   0.993  -0.885  1.00  0.00    -0.044 A 
ATOM      7  C   UNL     1       7.938   1.455  -0.483  1.00  0.00     0.008 A 
ATOM      8  C   UNL     1       6.614  -0.018  -1.818  1.00  0.00     0.054 A 
ATOM      9  C   UNL     1       9.070   0.885  -1.035  1.00  0.00     0.051 A 
ATOM     10  C   UNL     1       7.762  -0.591  -2.372  1.00  0.00     0.166 A 
ATOM     11  C   UNL     1       9.000  -0.135  -1.978  1.00  0.00     0.165 A 
ATOM     12  O   UNL     1       7.958  -1.590  -3.302  1.00  0.00    -0.454 OA
ATOM     13  O   UNL     1       9.941  -0.873  -2.680  1.00  0.00    -0.454 OA
ATOM     14  C   UNL     1       9.326  -1.868  -3.463  1.00  0.00     0.468 C 
ENDBRANCH   5   6
ENDBRANCH   1   5
TORSDOF 3
ENDMDL
MODEL 2
REMARK VINA RESULT:      -7.5      1.034      1.878
REMARK SMILES CC(=O)CCc1ccc2c(c1)OCO2
REMARK SMILES IDX 4 1 2 2 1 3 3 4 5 5 6 6 7 7 11 8 8 9 10 10 9 11 12 12 14 13
REMARK SMILES IDX 13 14
REMARK H PARENT
REMARK Flexibility Score: inf
ROOT
ATOM      1  C   UNL     1       6.093   1.344   1.075  1.00  0.00     0.080 C 
ENDROOT
BRANCH   1   2
ATOM      2  C   UNL     1       5.568   0.305   2.004  1.00  0.00     0.130 C 
ATOM      3  C   UNL     1       6.361  -0.905   2.352  1.00  0.00     0.087 C 
ATOM      4  O   UNL     1       4.463   0.418   2.510  1.00  0.00    -0.300 OA
ENDBRANCH   1   2
BRANCH   1   5
ATOM      5  C   UNL     1       5.704   1.048  -0.359  1.00  0.00     0.043 C 
BRANCH   5   6
ATOM      6  C   UNL     1       6.822   0.461  -1.120  1.00  0.00    -0.044 A 
ATOM      7  C   UNL     1       6.679  -0.740  -1.824  1.00  0.00     0.008 A 
ATOM      8  C   UNL     1       8.039   1.103  -1.146  1.00  0.00     0.054 A 
ATOM      9  C   UNL     1       7.763  -1.242  -2.521  1.00  0.00     0.051 A 
ATOM     10  C   UNL     1       9.132   0.591  -1.853  1.00  0.00     0.166 A 
ATOM     11  C   UNL     1       8.993  -0.591  -2.545  1.00  0.00     0.165 A 
ATOM     12  O   UNL     1      10.426   1.033  -2.031  1.00  0.00    -0.454 OA
ATOM     13  O   UNL     1      10.216  -0.853  -3.141  1.00  0.00    -0.454 OA
ATOM     14  C   UNL     1      11.127   0.197  -2.916  1.00  0.00     0.468 C 
ENDBRANCH   5   6
ENDBRANCH   1   5
TORSDOF 3
ENDMDL
MODEL 3
REMARK VINA RESULT:      -7.3      2.120      2.557
REMARK SMILES CC(=O)CCc1ccc2c(c1)OCO2
REMARK SMILES IDX 4 1 2 2 1 3 3 4 5 5 6 6 7 7 11 8 8 9 10 10 9 11 12 12 14 13
REMARK SMILES IDX 13 14
REMARK H PARENT
REMARK Flexibility Score: inf
ROOT
ATOM      1  C   UNL     1       5.704   1.355  -0.295  1.00  0.00     0.080 C 
ENDROOT
BRANCH   1   2
ATOM      2  C   UNL     1       5.083   1.276   1.056  1.00  0.00     0.130 C 
ATOM      3  C   UNL     1       5.380   0.155   1.987  1.00  0.00     0.087 C 
ATOM      4  O   UNL     1       4.307   2.136   1.441  1.00  0.00    -0.300 OA
ENDBRANCH   1   2
BRANCH   1   5
ATOM      5  C   UNL     1       7.200   1.118  -0.229  1.00  0.00     0.043 C 
BRANCH   5   6
ATOM      6  C   UNL     1       7.577  -0.170  -0.836  1.00  0.00    -0.044 A 
ATOM      7  C   UNL     1       7.636  -0.336  -2.225  1.00  0.00     0.008 A 
ATOM      8  C   UNL     1       7.883  -1.242  -0.029  1.00  0.00     0.054 A 
ATOM      9  C   UNL     1       7.997  -1.569  -2.738  1.00  0.00     0.051 A 
ATOM     10  C   UNL     1       8.248  -2.486  -0.553  1.00  0.00     0.166 A 
ATOM     11  C   UNL     1       8.305  -2.650  -1.919  1.00  0.00     0.165 A 
ATOM     12  O   UNL     1       8.591  -3.687   0.030  1.00  0.00    -0.454 OA
ATOM     13  O   UNL     1       8.688  -3.963  -2.148  1.00  0.00    -0.454 OA
ATOM     14  C   UNL     1       8.968  -4.629  -0.941  1.00  0.00     0.468 C 
ENDBRANCH   5   6
ENDBRANCH   1   5
TORSDOF 3
ENDMDL
MODEL 4
REMARK VINA RESULT:      -7.2      1.353      2.409
REMARK SMILES CC(=O)CCc1ccc2c(c1)OCO2
REMARK SMILES IDX 4 1 2 2 1 3 3 4 5 5 6 6 7 7 11 8 8 9 10 10 9 11 12 12 14 13
REMARK SMILES IDX 13 14
REMARK H PARENT
REMARK Flexibility Score: inf
ROOT
ATOM      1  C   UNL     1       6.758   0.446   1.927  1.00  0.00     0.080 C 
ENDROOT
BRANCH   1   2
ATOM      2  C   UNL     1       5.383   0.934   1.625  1.00  0.00     0.130 C 
ATOM      3  C   UNL     1       5.111   1.841   0.478  1.00  0.00     0.087 C 
ATOM      4  O   UNL     1       4.434   0.601   2.316  1.00  0.00    -0.300 OA
ENDBRANCH   1   2
BRANCH   1   5
ATOM      5  C   UNL     1       7.026  -0.890   1.263  1.00  0.00     0.043 C 
BRANCH   5   6
ATOM      6  C   UNL     1       7.514  -0.727  -0.118  1.00  0.00    -0.044 A 
ATOM      7  C   UNL     1       6.865  -1.330  -1.201  1.00  0.00     0.008 A 
ATOM      8  C   UNL     1       8.633   0.038  -0.360  1.00  0.00     0.054 A 
ATOM      9  C   UNL     1       7.369  -1.140  -2.475  1.00  0.00     0.051 A 
ATOM     10  C   UNL     1       9.137   0.227  -1.650  1.00  0.00     0.166 A 
ATOM     11  C   UNL     1       8.501  -0.367  -2.716  1.00  0.00     0.165 A 
ATOM     12  O   UNL     1      10.217   0.930  -2.143  1.00  0.00    -0.454 OA
ATOM     13  O   UNL     1       9.208  -0.013  -3.854  1.00  0.00    -0.454 OA
ATOM     14  C   UNL     1      10.250   0.882  -3.546  1.00  0.00     0.468 C 
ENDBRANCH   5   6
ENDBRANCH   1   5
TORSDOF 3
ENDMDL
MODEL 5
REMARK VINA RESULT:      -7.1      1.420      1.789
REMARK SMILES CC(=O)CCc1ccc2c(c1)OCO2
REMARK SMILES IDX 4 1 2 2 1 3 3 4 5 5 6 6 7 7 11 8 8 9 10 10 9 11 12 12 14 13
REMARK SMILES IDX 13 14
REMARK H PARENT
REMARK Flexibility Score: inf
ROOT
ATOM      1  C   UNL     1       6.504   1.371   0.164  1.00  0.00     0.080 C 
ENDROOT
BRANCH   1   2
ATOM      2  C   UNL     1       5.525   1.001   1.225  1.00  0.00     0.130 C 
ATOM      3  C   UNL     1       5.622  -0.287   1.962  1.00  0.00     0.087 C 
ATOM      4  O   UNL     1       4.609   1.751   1.521  1.00  0.00    -0.300 OA
ENDBRANCH   1   2
BRANCH   1   5
ATOM      5  C   UNL     1       6.073   0.843  -1.190  1.00  0.00     0.043 C 
BRANCH   5   6
ATOM      6  C   UNL     1       7.114  -0.000  -1.804  1.00  0.00    -0.044 A 
ATOM      7  C   UNL     1       8.030   0.520  -2.726  1.00  0.00     0.008 A 
ATOM      8  C   UNL     1       7.198  -1.333  -1.469  1.00  0.00     0.054 A 
ATOM      9  C   UNL     1       8.986  -0.319  -3.269  1.00  0.00     0.051 A 
ATOM     10  C   UNL     1       8.167  -2.177  -2.020  1.00  0.00     0.166 A 
ATOM     11  C   UNL     1       9.068  -1.666  -2.928  1.00  0.00     0.165 A 
ATOM     12  O   UNL     1       8.453  -3.515  -1.852  1.00  0.00    -0.454 OA
ATOM     13  O   UNL     1       9.897  -2.712  -3.301  1.00  0.00    -0.454 OA
ATOM     14  C   UNL     1       9.600  -3.880  -2.575  1.00  0.00     0.468 C 
ENDBRANCH   5   6
ENDBRANCH   1   5
TORSDOF 3
ENDMDL
