@<TRIPOS>MOLECULE
/home/cewinharhar/GITHUB/reincatalyze/data/processed/docking_pred/2023-May-22-2206_sub9_nm5_bs15_s42_ex16_mel10_mts10000_k50_ec02_g099_lra9e-4_lrc1e-3/dca47ac415302ce9f1313af6aebf6be1e2794cfe_ligand_9.pdbqt
 14 15 0 0 0
SMALL
GASTEIGER

@<TRIPOS>ATOM
      1  C          5.5400    1.7930    1.1610 C.3     1  UNL1        0.0800
      2  C          5.0690    0.6060    1.9280 C.2     1  UNL1        0.1300
      3  C          5.8570   -0.6540    1.9790 C.3     1  UNL1        0.0870
      4  O          4.0140    0.6350    2.5420 O.2     1  UNL1       -0.3000
      5  C          5.4360    1.5590   -0.3330 C.3     1  UNL1        0.0430
      6  C          6.6800    0.9930   -0.8850 C.2     1  UNL1       -0.0440
      7  C          7.9380    1.4550   -0.4830 C.2     1  UNL1        0.0080
      8  C          6.6140   -0.0180   -1.8180 C.2     1  UNL1        0.0540
      9  C          9.0700    0.8850   -1.0350 C.2     1  UNL1        0.0510
     10  C          7.7620   -0.5910   -2.3720 C.2     1  UNL1        0.1660
     11  C          9.0000   -0.1350   -1.9780 C.2     1  UNL1        0.1650
     12  O          7.9580   -1.5900   -3.3020 O.2     1  UNL1       -0.4540
     13  O          9.9410   -0.8730   -2.6800 O.2     1  UNL1       -0.4540
     14  C          9.3260   -1.8680   -3.4630 C.3     1  UNL1        0.4680
@<TRIPOS>BOND
     1    14    12    1
     2    14    13    1
     3    12    10    1
     4    13    11    1
     5    10    11    2
     6    10     8    1
     7    11     9    1
     8     8     6    2
     9     9     7    2
    10     6     7    1
    11     6     5    1
    12     5     1    1
    13     1     2    1
    14     2     3    1
    15     2     4    2
