@<TRIPOS>MOLECULE
/home/cewinharhar/GITHUB/reincatalyze/data/processed/docking_pred/2023-May-22-2206_sub9_nm5_bs15_s42_ex16_mel10_mts10000_k50_ec02_g099_lra9e-4_lrc1e-3/dca47ac415302ce9f1313af6aebf6be1e2794cfe_ligand_9.pdbqt
 14 15 0 0 0
SMALL
GASTEIGER

@<TRIPOS>ATOM
      1  C          6.7580    0.4460    1.9270 C.3     1  UNL1        0.0800
      2  C          5.3830    0.9340    1.6250 C.2     1  UNL1        0.1300
      3  C          5.1110    1.8410    0.4780 C.3     1  UNL1        0.0870
      4  O          4.4340    0.6010    2.3160 O.2     1  UNL1       -0.3000
      5  C          7.0260   -0.8900    1.2630 C.3     1  UNL1        0.0430
      6  C          7.5140   -0.7270   -0.1180 C.2     1  UNL1       -0.0440
      7  C          6.8650   -1.3300   -1.2010 C.2     1  UNL1        0.0080
      8  C          8.6330    0.0380   -0.3600 C.2     1  UNL1        0.0540
      9  C          7.3690   -1.1400   -2.4750 C.2     1  UNL1        0.0510
     10  C          9.1370    0.2270   -1.6500 C.2     1  UNL1        0.1660
     11  C          8.5010   -0.3670   -2.7160 C.2     1  UNL1        0.1650
     12  O         10.2170    0.9300   -2.1430 O.2     1  UNL1       -0.4540
     13  O          9.2080   -0.0130   -3.8540 O.2     1  UNL1       -0.4540
     14  C         10.2500    0.8820   -3.5460 C.3     1  UNL1        0.4680
@<TRIPOS>BOND
     1    13    14    1
     2    13    11    1
     3    14    12    1
     4    11     9    2
     5    11    10    1
     6     9     7    1
     7    12    10    1
     8    10     8    2
     9     7     6    2
    10     8     6    1
    11     6     5    1
    12     3     2    1
    13     5     1    1
    14     2     1    1
    15     2     4    2
