@<TRIPOS>MOLECULE
/home/cewinharhar/GITHUB/reincatalyze/data/processed/docking_pred/2023-May-22-2206_sub9_nm5_bs15_s42_ex16_mel10_mts10000_k50_ec02_g099_lra9e-4_lrc1e-3/dca47ac415302ce9f1313af6aebf6be1e2794cfe_ligand_9.pdbqt
 14 15 0 0 0
SMALL
GASTEIGER

@<TRIPOS>ATOM
      1  C          6.0930    1.3440    1.0750 C.3     1  UNL1        0.0800
      2  C          5.5680    0.3050    2.0040 C.2     1  UNL1        0.1300
      3  C          6.3610   -0.9050    2.3520 C.3     1  UNL1        0.0870
      4  O          4.4630    0.4180    2.5100 O.2     1  UNL1       -0.3000
      5  C          5.7040    1.0480   -0.3590 C.3     1  UNL1        0.0430
      6  C          6.8220    0.4610   -1.1200 C.2     1  UNL1       -0.0440
      7  C          6.6790   -0.7400   -1.8240 C.2     1  UNL1        0.0080
      8  C          8.0390    1.1030   -1.1460 C.2     1  UNL1        0.0540
      9  C          7.7630   -1.2420   -2.5210 C.2     1  UNL1        0.0510
     10  C          9.1320    0.5910   -1.8530 C.2     1  UNL1        0.1660
     11  C          8.9930   -0.5910   -2.5450 C.2     1  UNL1        0.1650
     12  O         10.4260    1.0330   -2.0310 O.2     1  UNL1       -0.4540
     13  O         10.2160   -0.8530   -3.1410 O.2     1  UNL1       -0.4540
     14  C         11.1270    0.1970   -2.9160 C.3     1  UNL1        0.4680
@<TRIPOS>BOND
     1    13    14    1
     2    13    11    1
     3    14    12    1
     4    11     9    2
     5    11    10    1
     6     9     7    1
     7    12    10    1
     8    10     8    2
     9     7     6    2
    10     8     6    1
    11     6     5    1
    12     5     1    1
    13     1     2    1
    14     2     3    1
    15     2     4    2
