@<TRIPOS>MOLECULE
/home/cewinharhar/GITHUB/reincatalyze/data/processed/docking_pred/2023-May-22-2206_sub9_nm5_bs15_s42_ex16_mel10_mts10000_k50_ec02_g099_lra9e-4_lrc1e-3/ddb46e737fe602632681221f3e2121514b9159c3_ligand_9.pdbqt
 14 15 0 0 0
SMALL
GASTEIGER

@<TRIPOS>ATOM
      1  C          5.7730    1.3520   -0.2650 C.3     1  UNL1        0.0800
      2  C          5.1720    1.2470    1.0940 C.2     1  UNL1        0.1300
      3  C          5.3770    0.0470    1.9480 C.3     1  UNL1        0.0870
      4  O          4.4880    2.1500    1.5480 O.2     1  UNL1       -0.3000
      5  C          7.2670    1.0970   -0.2270 C.3     1  UNL1        0.0430
      6  C          7.6170   -0.1920   -0.8510 C.2     1  UNL1       -0.0440
      7  C          7.6320   -0.3530   -2.2410 C.2     1  UNL1        0.0080
      8  C          7.9420   -1.2680   -0.0560 C.2     1  UNL1        0.0540
      9  C          7.9700   -1.5860   -2.7690 C.2     1  UNL1        0.0510
     10  C          8.2840   -2.5120   -0.5960 C.2     1  UNL1        0.1660
     11  C          8.2970   -2.6720   -1.9630 C.2     1  UNL1        0.1650
     12  O          8.6390   -3.7160   -0.0280 O.2     1  UNL1       -0.4540
     13  O          8.6650   -3.9860   -2.2090 O.2     1  UNL1       -0.4540
     14  C          8.9790   -4.6580   -1.0130 C.3     1  UNL1        0.4680
@<TRIPOS>BOND
     1     9     7    1
     2     9    11    2
     3     7     6    2
     4    13    11    1
     5    13    14    1
     6    11    10    1
     7    14    12    1
     8     6     5    1
     9     6     8    1
    10    10     8    2
    11    10    12    1
    12     1     5    1
    13     1     2    1
    14     2     4    2
    15     2     3    1
