@<TRIPOS>MOLECULE
/home/cewinharhar/GITHUB/reincatalyze/data/processed/docking_pred/2023-May-22-2206_sub9_nm5_bs15_s42_ex16_mel10_mts10000_k50_ec02_g099_lra9e-4_lrc1e-3/de552809cd3cf8423e47c41d2ed627091c55f56d_ligand_9.pdbqt
 14 15 0 0 0
SMALL
GASTEIGER

@<TRIPOS>ATOM
      1  C          5.3370   -0.0750    1.9760 C.3     1  UNL1        0.0800
      2  C          4.4550    1.1120    1.7920 C.2     1  UNL1        0.1300
      3  C          4.7440    2.1460    0.7630 C.3     1  UNL1        0.0870
      4  O          3.4640    1.2700    2.4860 O.2     1  UNL1       -0.3000
      5  C          6.8010    0.3110    1.9090 C.3     1  UNL1        0.0430
      6  C          7.4000   -0.0420    0.6100 C.2     1  UNL1       -0.0440
      7  C          7.8990    0.9370   -0.2570 C.2     1  UNL1        0.0080
      8  C          7.4780   -1.3630    0.2310 C.2     1  UNL1        0.0540
      9  C          8.4510    0.5460   -1.4640 C.2     1  UNL1        0.0510
     10  C          8.0370   -1.7530   -0.9900 C.2     1  UNL1        0.1660
     11  C          8.5280   -0.7900   -1.8440 C.2     1  UNL1        0.1650
     12  O          8.2270   -2.9810   -1.5870 O.2     1  UNL1       -0.4540
     13  O          9.0140   -1.4550   -2.9590 O.2     1  UNL1       -0.4540
     14  C          8.9260   -2.8500   -2.7980 C.3     1  UNL1        0.4680
@<TRIPOS>BOND
     1    13    14    1
     2    13    11    1
     3    14    12    1
     4    11     9    2
     5    11    10    1
     6    12    10    1
     7     9     7    1
     8    10     8    2
     9     7     6    2
    10     8     6    1
    11     6     5    1
    12     3     2    1
    13     2     1    1
    14     2     4    2
    15     5     1    1
