@<TRIPOS>MOLECULE
/home/cewinharhar/GITHUB/reincatalyze/data/processed/docking_pred/2023-May-22-2206_sub9_nm5_bs15_s42_ex16_mel10_mts10000_k50_ec02_g099_lra9e-4_lrc1e-3/e1ac879641feb84a16575019a922afe40680d27c_ligand_9.pdbqt
 14 15 0 0 0
SMALL
GASTEIGER

@<TRIPOS>ATOM
      1  C          5.4470   -0.0290    2.0160 C.3     1  UNL1        0.0800
      2  C          4.5740    1.1530    1.7710 C.2     1  UNL1        0.1300
      3  C          4.8860    2.1480    0.7100 C.3     1  UNL1        0.0870
      4  O          3.5710    1.3410    2.4410 O.2     1  UNL1       -0.3000
      5  C          6.8700    0.2350    1.5660 C.3     1  UNL1        0.0430
      6  C          7.2920   -0.7020    0.5090 C.2     1  UNL1       -0.0440
      7  C          7.1650   -0.3820   -0.8480 C.2     1  UNL1        0.0080
      8  C          7.8270   -1.9220    0.8540 C.2     1  UNL1        0.0540
      9  C          7.5790   -1.3010   -1.7950 C.2     1  UNL1        0.0510
     10  C          8.2440   -2.8470   -0.1080 C.2     1  UNL1        0.1660
     11  C          8.1190   -2.5340   -1.4430 C.2     1  UNL1        0.1650
     12  O          8.7980   -4.1070   -0.0220 O.2     1  UNL1       -0.4540
     13  O          8.6040   -3.6190   -2.1570 O.2     1  UNL1       -0.4540
     14  C          9.1280   -4.6010   -1.2950 C.3     1  UNL1        0.4680
@<TRIPOS>BOND
     1    13    11    1
     2    13    14    1
     3     9    11    2
     4     9     7    1
     5    11    10    1
     6    14    12    1
     7     7     6    2
     8    10    12    1
     9    10     8    2
    10     6     8    1
    11     6     5    1
    12     3     2    1
    13     5     1    1
    14     2     1    1
    15     2     4    2
