MODEL 1
REMARK VINA RESULT:      -7.4      0.000      0.000
REMARK SMILES CC(=O)CCc1ccc2c(c1)OCO2
REMARK SMILES IDX 4 1 2 2 1 3 3 4 5 5 6 6 7 7 11 8 8 9 10 10 9 11 12 12 14 13
REMARK SMILES IDX 13 14
REMARK H PARENT
REMARK Flexibility Score: inf
ROOT
ATOM      1  C   UNL     1       5.571   2.013   1.206  1.00  0.00     0.080 C 
ENDROOT
BRANCH   1   2
ATOM      2  C   UNL     1       5.075   0.821   1.949  1.00  0.00     0.130 C 
ATOM      3  C   UNL     1       5.919  -0.389   2.138  1.00  0.00     0.087 C 
ATOM      4  O   UNL     1       3.952   0.803   2.426  1.00  0.00    -0.300 OA
ENDBRANCH   1   2
BRANCH   1   5
ATOM      5  C   UNL     1       5.424   1.829  -0.292  1.00  0.00     0.043 C 
BRANCH   5   6
ATOM      6  C   UNL     1       6.584   1.129  -0.872  1.00  0.00    -0.044 A 
ATOM      7  C   UNL     1       7.866   1.692  -0.852  1.00  0.00     0.008 A 
ATOM      8  C   UNL     1       6.415  -0.109  -1.449  1.00  0.00     0.054 A 
ATOM      9  C   UNL     1       8.916   0.988  -1.412  1.00  0.00     0.051 A 
ATOM     10  C   UNL     1       7.481  -0.817  -2.012  1.00  0.00     0.166 A 
ATOM     11  C   UNL     1       8.742  -0.263  -1.994  1.00  0.00     0.165 A 
ATOM     12  O   UNL     1       7.570  -2.043  -2.636  1.00  0.00    -0.454 OA
ATOM     13  O   UNL     1       9.588  -1.171  -2.612  1.00  0.00    -0.454 OA
ATOM     14  C   UNL     1       8.903  -2.353  -2.953  1.00  0.00     0.468 C 
ENDBRANCH   5   6
ENDBRANCH   1   5
TORSDOF 3
ENDMDL
MODEL 2
REMARK VINA RESULT:      -7.0      1.978      2.615
REMARK SMILES CC(=O)CCc1ccc2c(c1)OCO2
REMARK SMILES IDX 4 1 2 2 1 3 3 4 5 5 6 6 7 7 11 8 8 9 10 10 9 11 12 12 14 13
REMARK SMILES IDX 13 14
REMARK H PARENT
REMARK Flexibility Score: inf
ROOT
ATOM      1  C   UNL     1       5.509  -0.035   1.950  1.00  0.00     0.080 C 
ENDROOT
BRANCH   1   2
ATOM      2  C   UNL     1       4.670   1.157   1.644  1.00  0.00     0.130 C 
ATOM      3  C   UNL     1       5.026   2.104   0.554  1.00  0.00     0.087 C 
ATOM      4  O   UNL     1       3.658   1.392   2.285  1.00  0.00    -0.300 OA
ENDBRANCH   1   2
BRANCH   1   5
ATOM      5  C   UNL     1       6.949   0.184   1.532  1.00  0.00     0.043 C 
BRANCH   5   6
ATOM      6  C   UNL     1       7.362  -0.760   0.478  1.00  0.00    -0.044 A 
ATOM      7  C   UNL     1       7.247  -0.439  -0.880  1.00  0.00     0.008 A 
ATOM      8  C   UNL     1       7.876  -1.988   0.826  1.00  0.00     0.054 A 
ATOM      9  C   UNL     1       7.651  -1.365  -1.824  1.00  0.00     0.051 A 
ATOM     10  C   UNL     1       8.283  -2.921  -0.133  1.00  0.00     0.166 A 
ATOM     11  C   UNL     1       8.169  -2.607  -1.469  1.00  0.00     0.165 A 
ATOM     12  O   UNL     1       8.817  -4.189  -0.043  1.00  0.00    -0.454 OA
ATOM     13  O   UNL     1       8.642  -3.699  -2.179  1.00  0.00    -0.454 OA
ATOM     14  C   UNL     1       9.146  -4.688  -1.314  1.00  0.00     0.468 C 
ENDBRANCH   5   6
ENDBRANCH   1   5
TORSDOF 3
ENDMDL
MODEL 3
REMARK VINA RESULT:      -7.0      1.789      2.348
REMARK SMILES CC(=O)CCc1ccc2c(c1)OCO2
REMARK SMILES IDX 4 1 2 2 1 3 3 4 5 5 6 6 7 7 11 8 8 9 10 10 9 11 12 12 14 13
REMARK SMILES IDX 13 14
REMARK H PARENT
REMARK Flexibility Score: inf
ROOT
ATOM      1  C   UNL     1       5.630   1.084  -0.403  1.00  0.00     0.080 C 
ENDROOT
BRANCH   1   2
ATOM      2  C   UNL     1       5.168   1.182   1.010  1.00  0.00     0.130 C 
ATOM      3  C   UNL     1       5.540   0.161   2.025  1.00  0.00     0.087 C 
ATOM      4  O   UNL     1       4.466   2.110   1.376  1.00  0.00    -0.300 OA
ENDBRANCH   1   2
BRANCH   1   5
ATOM      5  C   UNL     1       7.142   1.018  -0.485  1.00  0.00     0.043 C 
BRANCH   5   6
ATOM      6  C   UNL     1       7.605  -0.268  -1.036  1.00  0.00    -0.044 A 
ATOM      7  C   UNL     1       7.847  -0.435  -2.404  1.00  0.00     0.008 A 
ATOM      8  C   UNL     1       7.808  -1.337  -0.193  1.00  0.00     0.054 A 
ATOM      9  C   UNL     1       8.281  -1.665  -2.863  1.00  0.00     0.051 A 
ATOM     10  C   UNL     1       8.248  -2.579  -0.662  1.00  0.00     0.166 A 
ATOM     11  C   UNL     1       8.485  -2.744  -2.009  1.00  0.00     0.165 A 
ATOM     12  O   UNL     1       8.520  -3.777  -0.037  1.00  0.00    -0.454 OA
ATOM     13  O   UNL     1       8.904  -4.054  -2.184  1.00  0.00    -0.454 OA
ATOM     14  C   UNL     1       9.027  -4.718  -0.948  1.00  0.00     0.468 C 
ENDBRANCH   5   6
ENDBRANCH   1   5
TORSDOF 3
ENDMDL
MODEL 4
REMARK VINA RESULT:      -6.6      1.441      5.218
REMARK SMILES CC(=O)CCc1ccc2c(c1)OCO2
REMARK SMILES IDX 4 1 2 2 1 3 3 4 5 5 6 6 7 7 11 8 8 9 10 10 9 11 12 12 14 13
REMARK SMILES IDX 13 14
REMARK H PARENT
REMARK Flexibility Score: inf
ROOT
ATOM      1  C   UNL     1       7.681  -1.725  -3.041  1.00  0.00     0.080 C 
ENDROOT
BRANCH   1   2
ATOM      2  C   UNL     1       8.803  -2.605  -2.613  1.00  0.00     0.130 C 
ATOM      3  C   UNL     1       8.668  -3.539  -1.462  1.00  0.00     0.087 C 
ATOM      4  O   UNL     1       9.874  -2.585  -3.198  1.00  0.00    -0.300 OA
ENDBRANCH   1   2
BRANCH   1   5
ATOM      5  C   UNL     1       8.021  -0.261  -2.838  1.00  0.00     0.043 C 
BRANCH   5   6
ATOM      6  C   UNL     1       7.118   0.380  -1.866  1.00  0.00    -0.044 A 
ATOM      7  C   UNL     1       6.483   1.595  -2.147  1.00  0.00     0.008 A 
ATOM      8  C   UNL     1       6.885  -0.222  -0.651  1.00  0.00     0.054 A 
ATOM      9  C   UNL     1       5.645   2.150  -1.197  1.00  0.00     0.051 A 
ATOM     10  C   UNL     1       6.036   0.342   0.306  1.00  0.00     0.166 A 
ATOM     11  C   UNL     1       5.412   1.538   0.031  1.00  0.00     0.165 A 
ATOM     12  O   UNL     1       5.648  -0.054   1.568  1.00  0.00    -0.454 OA
ATOM     13  O   UNL     1       4.644   1.854   1.141  1.00  0.00    -0.454 OA
ATOM     14  C   UNL     1       4.694   0.827   2.102  1.00  0.00     0.468 C 
ENDBRANCH   5   6
ENDBRANCH   1   5
TORSDOF 3
ENDMDL
MODEL 5
REMARK VINA RESULT:      -6.6      1.070      1.101
REMARK SMILES CC(=O)CCc1ccc2c(c1)OCO2
REMARK SMILES IDX 4 1 2 2 1 3 3 4 5 5 6 6 7 7 11 8 8 9 10 10 9 11 12 12 14 13
REMARK SMILES IDX 13 14
REMARK H PARENT
REMARK Flexibility Score: inf
ROOT
ATOM      1  C   UNL     1       5.019   1.945   0.756  1.00  0.00     0.080 C 
ENDROOT
BRANCH   1   2
ATOM      2  C   UNL     1       4.573   1.035   1.847  1.00  0.00     0.130 C 
ATOM      3  C   UNL     1       5.346  -0.182   2.214  1.00  0.00     0.087 C 
ATOM      4  O   UNL     1       3.551   1.262   2.475  1.00  0.00    -0.300 OA
ENDBRANCH   1   2
BRANCH   1   5
ATOM      5  C   UNL     1       6.531   1.996   0.665  1.00  0.00     0.043 C 
BRANCH   5   6
ATOM      6  C   UNL     1       7.034   1.250  -0.501  1.00  0.00    -0.044 A 
ATOM      7  C   UNL     1       7.114   1.837  -1.769  1.00  0.00     0.008 A 
ATOM      8  C   UNL     1       7.440  -0.057  -0.352  1.00  0.00     0.054 A 
ATOM      9  C   UNL     1       7.595   1.088  -2.827  1.00  0.00     0.051 A 
ATOM     10  C   UNL     1       7.927  -0.810  -1.425  1.00  0.00     0.166 A 
ATOM     11  C   UNL     1       8.004  -0.233  -2.672  1.00  0.00     0.165 A 
ATOM     12  O   UNL     1       8.384  -2.107  -1.532  1.00  0.00    -0.454 OA
ATOM     13  O   UNL     1       8.514  -1.197  -3.529  1.00  0.00    -0.454 OA
ATOM     14  C   UNL     1       8.854  -2.370  -2.829  1.00  0.00     0.468 C 
ENDBRANCH   5   6
ENDBRANCH   1   5
TORSDOF 3
ENDMDL
