@<TRIPOS>MOLECULE
/home/cewinharhar/GITHUB/reincatalyze/data/processed/docking_pred/2023-May-22-2206_sub9_nm5_bs15_s42_ex16_mel10_mts10000_k50_ec02_g099_lra9e-4_lrc1e-3/e25bbeeb226b659c1020d17bcfddf5bb3560bc0d_ligand_9.pdbqt
 14 15 0 0 0
SMALL
GASTEIGER

@<TRIPOS>ATOM
      1  C          5.0190    1.9450    0.7560 C.3     1  UNL1        0.0800
      2  C          4.5730    1.0350    1.8470 C.2     1  UNL1        0.1300
      3  C          5.3460   -0.1820    2.2140 C.3     1  UNL1        0.0870
      4  O          3.5510    1.2620    2.4750 O.2     1  UNL1       -0.3000
      5  C          6.5310    1.9960    0.6650 C.3     1  UNL1        0.0430
      6  C          7.0340    1.2500   -0.5010 C.2     1  UNL1       -0.0440
      7  C          7.1140    1.8370   -1.7690 C.2     1  UNL1        0.0080
      8  C          7.4400   -0.0570   -0.3520 C.2     1  UNL1        0.0540
      9  C          7.5950    1.0880   -2.8270 C.2     1  UNL1        0.0510
     10  C          7.9270   -0.8100   -1.4250 C.2     1  UNL1        0.1660
     11  C          8.0040   -0.2330   -2.6720 C.2     1  UNL1        0.1650
     12  O          8.3840   -2.1070   -1.5320 O.2     1  UNL1       -0.4540
     13  O          8.5140   -1.1970   -3.5290 O.2     1  UNL1       -0.4540
     14  C          8.8540   -2.3700   -2.8290 C.3     1  UNL1        0.4680
@<TRIPOS>BOND
     1    13    14    1
     2    13    11    1
     3    14    12    1
     4     9    11    2
     5     9     7    1
     6    11    10    1
     7     7     6    2
     8    12    10    1
     9    10     8    2
    10     6     8    1
    11     6     5    1
    12     5     1    1
    13     1     2    1
    14     2     3    1
    15     2     4    2
