@<TRIPOS>MOLECULE
/home/cewinharhar/GITHUB/reincatalyze/data/processed/docking_pred/2023-May-22-2206_sub9_nm5_bs15_s42_ex16_mel10_mts10000_k50_ec02_g099_lra9e-4_lrc1e-3/e25bbeeb226b659c1020d17bcfddf5bb3560bc0d_ligand_9.pdbqt
 14 15 0 0 0
SMALL
GASTEIGER

@<TRIPOS>ATOM
      1  C          7.6810   -1.7250   -3.0410 C.3     1  UNL1        0.0800
      2  C          8.8030   -2.6050   -2.6130 C.2     1  UNL1        0.1300
      3  C          8.6680   -3.5390   -1.4620 C.3     1  UNL1        0.0870
      4  O          9.8740   -2.5850   -3.1980 O.2     1  UNL1       -0.3000
      5  C          8.0210   -0.2610   -2.8380 C.3     1  UNL1        0.0430
      6  C          7.1180    0.3800   -1.8660 C.2     1  UNL1       -0.0440
      7  C          6.4830    1.5950   -2.1470 C.2     1  UNL1        0.0080
      8  C          6.8850   -0.2220   -0.6510 C.2     1  UNL1        0.0540
      9  C          5.6450    2.1500   -1.1970 C.2     1  UNL1        0.0510
     10  C          6.0360    0.3420    0.3060 C.2     1  UNL1        0.1660
     11  C          5.4120    1.5380    0.0310 C.2     1  UNL1        0.1650
     12  O          5.6480   -0.0540    1.5680 O.2     1  UNL1       -0.4540
     13  O          4.6440    1.8540    1.1410 O.2     1  UNL1       -0.4540
     14  C          4.6940    0.8270    2.1020 C.3     1  UNL1        0.4680
@<TRIPOS>BOND
     1     4     2    2
     2     1     5    1
     3     1     2    1
     4     5     6    1
     5     2     3    1
     6     7     6    2
     7     7     9    1
     8     6     8    1
     9     9    11    2
    10     8    10    2
    11    11    10    1
    12    11    13    1
    13    10    12    1
    14    13    14    1
    15    12    14    1
