@<TRIPOS>MOLECULE
/home/cewinharhar/GITHUB/reincatalyze/data/processed/docking_pred/2023-May-22-2206_sub9_nm5_bs15_s42_ex16_mel10_mts10000_k50_ec02_g099_lra9e-4_lrc1e-3/e25bbeeb226b659c1020d17bcfddf5bb3560bc0d_ligand_9.pdbqt
 14 15 0 0 0
SMALL
GASTEIGER

@<TRIPOS>ATOM
      1  C          5.5710    2.0130    1.2060 C.3     1  UNL1        0.0800
      2  C          5.0750    0.8210    1.9490 C.2     1  UNL1        0.1300
      3  C          5.9190   -0.3890    2.1380 C.3     1  UNL1        0.0870
      4  O          3.9520    0.8030    2.4260 O.2     1  UNL1       -0.3000
      5  C          5.4240    1.8290   -0.2920 C.3     1  UNL1        0.0430
      6  C          6.5840    1.1290   -0.8720 C.2     1  UNL1       -0.0440
      7  C          7.8660    1.6920   -0.8520 C.2     1  UNL1        0.0080
      8  C          6.4150   -0.1090   -1.4490 C.2     1  UNL1        0.0540
      9  C          8.9160    0.9880   -1.4120 C.2     1  UNL1        0.0510
     10  C          7.4810   -0.8170   -2.0120 C.2     1  UNL1        0.1660
     11  C          8.7420   -0.2630   -1.9940 C.2     1  UNL1        0.1650
     12  O          7.5700   -2.0430   -2.6360 O.2     1  UNL1       -0.4540
     13  O          9.5880   -1.1710   -2.6120 O.2     1  UNL1       -0.4540
     14  C          8.9030   -2.3530   -2.9530 C.3     1  UNL1        0.4680
@<TRIPOS>BOND
     1    14    12    1
     2    14    13    1
     3    12    10    1
     4    13    11    1
     5    10    11    2
     6    10     8    1
     7    11     9    1
     8     8     6    2
     9     9     7    2
    10     6     7    1
    11     6     5    1
    12     5     1    1
    13     1     2    1
    14     2     3    1
    15     2     4    2
