@<TRIPOS>MOLECULE
/home/cewinharhar/GITHUB/reincatalyze/data/processed/docking_pred/2023-May-22-2206_sub9_nm5_bs15_s42_ex16_mel10_mts10000_k50_ec02_g099_lra9e-4_lrc1e-3/e25bbeeb226b659c1020d17bcfddf5bb3560bc0d_ligand_9.pdbqt
 14 15 0 0 0
SMALL
GASTEIGER

@<TRIPOS>ATOM
      1  C          5.5090   -0.0350    1.9500 C.3     1  UNL1        0.0800
      2  C          4.6700    1.1570    1.6440 C.2     1  UNL1        0.1300
      3  C          5.0260    2.1040    0.5540 C.3     1  UNL1        0.0870
      4  O          3.6580    1.3920    2.2850 O.2     1  UNL1       -0.3000
      5  C          6.9490    0.1840    1.5320 C.3     1  UNL1        0.0430
      6  C          7.3620   -0.7600    0.4780 C.2     1  UNL1       -0.0440
      7  C          7.2470   -0.4390   -0.8800 C.2     1  UNL1        0.0080
      8  C          7.8760   -1.9880    0.8260 C.2     1  UNL1        0.0540
      9  C          7.6510   -1.3650   -1.8240 C.2     1  UNL1        0.0510
     10  C          8.2830   -2.9210   -0.1330 C.2     1  UNL1        0.1660
     11  C          8.1690   -2.6070   -1.4690 C.2     1  UNL1        0.1650
     12  O          8.8170   -4.1890   -0.0430 O.2     1  UNL1       -0.4540
     13  O          8.6420   -3.6990   -2.1790 O.2     1  UNL1       -0.4540
     14  C          9.1460   -4.6880   -1.3140 C.3     1  UNL1        0.4680
@<TRIPOS>BOND
     1    13    11    1
     2    13    14    1
     3     9    11    2
     4     9     7    1
     5    11    10    1
     6    14    12    1
     7     7     6    2
     8    10    12    1
     9    10     8    2
    10     6     8    1
    11     6     5    1
    12     3     2    1
    13     5     1    1
    14     2     1    1
    15     2     4    2
