@<TRIPOS>MOLECULE
/home/cewinharhar/GITHUB/reincatalyze/data/processed/docking_pred/2023-May-22-2206_sub9_nm5_bs15_s42_ex16_mel10_mts10000_k50_ec02_g099_lra9e-4_lrc1e-3/e3e0f9713a2c6d1770d60d03407d62bfa70f046f_ligand_9.pdbqt
 14 15 0 0 0
SMALL
GASTEIGER

@<TRIPOS>ATOM
      1  C          5.5350    1.9320    1.2600 C.3     1  UNL1        0.0800
      2  C          5.1130    0.7130    2.0040 C.2     1  UNL1        0.1300
      3  C          6.0270   -0.4460    2.1870 C.3     1  UNL1        0.0870
      4  O          3.9960    0.6300    2.4880 O.2     1  UNL1       -0.3000
      5  C          5.4070    1.7340   -0.2380 C.3     1  UNL1        0.0430
      6  C          6.5730    1.0270   -0.7970 C.2     1  UNL1       -0.0440
      7  C          7.8810    1.4510   -0.5400 C.2     1  UNL1        0.0080
      8  C          6.3820   -0.0810   -1.5910 C.2     1  UNL1        0.0540
      9  C          8.9360    0.7470   -1.0910 C.2     1  UNL1        0.0510
     10  C          7.4510   -0.7900   -2.1460 C.2     1  UNL1        0.1660
     11  C          8.7390   -0.3720   -1.8940 C.2     1  UNL1        0.1650
     12  O          7.5220   -1.9040   -2.9560 O.2     1  UNL1       -0.4540
     13  O          9.5820   -1.2480   -2.5600 O.2     1  UNL1       -0.4540
     14  C          8.8560   -2.2870   -3.1710 C.3     1  UNL1        0.4680
@<TRIPOS>BOND
     1    14    12    1
     2    14    13    1
     3    12    10    1
     4    13    11    1
     5    10    11    2
     6    10     8    1
     7    11     9    1
     8     8     6    2
     9     9     7    2
    10     6     7    1
    11     6     5    1
    12     5     1    1
    13     1     2    1
    14     2     3    1
    15     2     4    2
