@<TRIPOS>MOLECULE
/home/cewinharhar/GITHUB/reincatalyze/data/processed/docking_pred/2023-May-22-2206_sub9_nm5_bs15_s42_ex16_mel10_mts10000_k50_ec02_g099_lra9e-4_lrc1e-3/e3fbdfe9b196bdc40f83d7817e536621cd4b8c1b_ligand_9.pdbqt
 14 15 0 0 0
SMALL
GASTEIGER

@<TRIPOS>ATOM
      1  C         -0.4100  -12.0070    2.3850 C.3     1  UNL1        0.0800
      2  C         -1.5670  -11.5690    1.5540 C.2     1  UNL1        0.1300
      3  C         -2.0840  -10.1750    1.6080 C.3     1  UNL1        0.0870
      4  O         -2.1270  -12.3480    0.8000 O.2     1  UNL1       -0.3000
      5  C          0.8580  -12.0960    1.5590 C.3     1  UNL1        0.0430
      6  C          1.1030  -10.8570    0.7990 C.2     1  UNL1       -0.0440
      7  C          0.7620  -10.7480   -0.5540 C.2     1  UNL1        0.0080
      8  C          1.6780   -9.7750    1.4250 C.2     1  UNL1        0.0540
      9  C          1.0140   -9.5610   -1.2170 C.2     1  UNL1        0.0510
     10  C          1.9310   -8.5760    0.7510 C.2     1  UNL1        0.1660
     11  C          1.5960   -8.4680   -0.5810 C.2     1  UNL1        0.1650
     12  O          2.4840   -7.3760    1.1440 O.2     1  UNL1       -0.4540
     13  O          1.9550   -7.1910   -0.9820 O.2     1  UNL1       -0.4540
     14  C          2.4380   -6.4340    0.1030 C.3     1  UNL1        0.4680
@<TRIPOS>BOND
     1     9    11    2
     2     9     7    1
     3    13    11    1
     4    13    14    1
     5    11    10    1
     6     7     6    2
     7    14    12    1
     8    10    12    1
     9    10     8    2
    10     6     8    1
    11     6     5    1
    12     4     2    2
    13     2     3    1
    14     2     1    1
    15     5     1    1
