MODEL 1
REMARK VINA RESULT:       1.2      0.000      0.000
REMARK SMILES CC(=O)CCc1ccc2c(c1)OCO2
REMARK SMILES IDX 4 1 2 2 1 3 3 4 5 5 6 6 7 7 11 8 8 9 10 10 9 11 12 12 14 13
REMARK SMILES IDX 13 14
REMARK H PARENT
REMARK Flexibility Score: inf
ROOT
ATOM      1  C   UNL     1       8.789  -4.778  -0.374  1.00  0.00     0.080 C 
ENDROOT
BRANCH   1   2
ATOM      2  C   UNL     1       9.518  -4.679  -1.670  1.00  0.00     0.130 C 
ATOM      3  C   UNL     1      10.336  -5.806  -2.193  1.00  0.00     0.087 C 
ATOM      4  O   UNL     1       9.464  -3.663  -2.343  1.00  0.00    -0.300 OA
ENDBRANCH   1   2
BRANCH   1   5
ATOM      5  C   UNL     1       9.535  -4.061   0.733  1.00  0.00     0.043 C 
BRANCH   5   6
ATOM      6  C   UNL     1       8.877  -2.795   1.105  1.00  0.00    -0.044 A 
ATOM      7  C   UNL     1       9.599  -1.602   1.223  1.00  0.00     0.008 A 
ATOM      8  C   UNL     1       7.522  -2.774   1.340  1.00  0.00     0.054 A 
ATOM      9  C   UNL     1       8.928  -0.444   1.574  1.00  0.00     0.051 A 
ATOM     10  C   UNL     1       6.848  -1.601   1.694  1.00  0.00     0.166 A 
ATOM     11  C   UNL     1       7.557  -0.427   1.812  1.00  0.00     0.165 A 
ATOM     12  O   UNL     1       5.527  -1.325   1.977  1.00  0.00    -0.454 OA
ATOM     13  O   UNL     1       6.647   0.557   2.168  1.00  0.00    -0.454 OA
ATOM     14  C   UNL     1       5.334   0.049   2.194  1.00  0.00     0.468 C 
ENDBRANCH   5   6
ENDBRANCH   1   5
TORSDOF 3
ENDMDL
MODEL 2
REMARK VINA RESULT:       1.3      2.213      5.754
REMARK SMILES CC(=O)CCc1ccc2c(c1)OCO2
REMARK SMILES IDX 4 1 2 2 1 3 3 4 5 5 6 6 7 7 11 8 8 9 10 10 9 11 12 12 14 13
REMARK SMILES IDX 13 14
REMARK H PARENT
REMARK Flexibility Score: inf
ROOT
ATOM      1  C   UNL     1       6.533   2.135   1.383  1.00  0.00     0.080 C 
ENDROOT
BRANCH   1   2
ATOM      2  C   UNL     1       5.235   2.138   0.653  1.00  0.00     0.130 C 
ATOM      3  C   UNL     1       5.174   2.127  -0.833  1.00  0.00     0.087 C 
ATOM      4  O   UNL     1       4.175   2.150   1.259  1.00  0.00    -0.300 OA
ENDBRANCH   1   2
BRANCH   1   5
ATOM      5  C   UNL     1       6.509   1.163   2.546  1.00  0.00     0.043 C 
BRANCH   5   6
ATOM      6  C   UNL     1       6.901  -0.195   2.130  1.00  0.00    -0.044 A 
ATOM      7  C   UNL     1       5.968  -1.237   2.058  1.00  0.00     0.008 A 
ATOM      8  C   UNL     1       8.211  -0.457   1.801  1.00  0.00     0.054 A 
ATOM      9  C   UNL     1       6.393  -2.491   1.660  1.00  0.00     0.051 A 
ATOM     10  C   UNL     1       8.636  -1.727   1.400  1.00  0.00     0.166 A 
ATOM     11  C   UNL     1       7.719  -2.753   1.329  1.00  0.00     0.165 A 
ATOM     12  O   UNL     1       9.863  -2.234   1.028  1.00  0.00    -0.454 OA
ATOM     13  O   UNL     1       8.410  -3.879   0.910  1.00  0.00    -0.454 OA
ATOM     14  C   UNL     1       9.753  -3.573   0.620  1.00  0.00     0.468 C 
ENDBRANCH   5   6
ENDBRANCH   1   5
TORSDOF 3
ENDMDL
MODEL 3
REMARK VINA RESULT:       1.4      3.063      7.173
REMARK SMILES CC(=O)CCc1ccc2c(c1)OCO2
REMARK SMILES IDX 4 1 2 2 1 3 3 4 5 5 6 6 7 7 11 8 8 9 10 10 9 11 12 12 14 13
REMARK SMILES IDX 13 14
REMARK H PARENT
REMARK Flexibility Score: inf
ROOT
ATOM      1  C   UNL     1       1.966  -0.052   3.078  1.00  0.00     0.080 C 
ENDROOT
BRANCH   1   2
ATOM      2  C   UNL     1       0.493   0.162   3.128  1.00  0.00     0.130 C 
ATOM      3  C   UNL     1      -0.164   1.256   2.364  1.00  0.00     0.087 C 
ATOM      4  O   UNL     1      -0.223  -0.561   3.803  1.00  0.00    -0.300 OA
ENDBRANCH   1   2
BRANCH   1   5
ATOM      5  C   UNL     1       2.663   1.087   2.361  1.00  0.00     0.043 C 
BRANCH   5   6
ATOM      6  C   UNL     1       4.090   0.797   2.132  1.00  0.00    -0.044 A 
ATOM      7  C   UNL     1       5.007   1.813   1.841  1.00  0.00     0.008 A 
ATOM      8  C   UNL     1       4.542  -0.501   2.205  1.00  0.00     0.054 A 
ATOM      9  C   UNL     1       6.334   1.481   1.637  1.00  0.00     0.051 A 
ATOM     10  C   UNL     1       5.885  -0.832   1.998  1.00  0.00     0.166 A 
ATOM     11  C   UNL     1       6.788   0.167   1.711  1.00  0.00     0.165 A 
ATOM     12  O   UNL     1       6.571  -2.027   2.015  1.00  0.00    -0.454 OA
ATOM     13  O   UNL     1       8.023  -0.442   1.557  1.00  0.00    -0.454 OA
ATOM     14  C   UNL     1       7.948  -1.820   1.830  1.00  0.00     0.468 C 
ENDBRANCH   5   6
ENDBRANCH   1   5
TORSDOF 3
ENDMDL
MODEL 4
REMARK VINA RESULT:       2.1      1.707      2.523
REMARK SMILES CC(=O)CCc1ccc2c(c1)OCO2
REMARK SMILES IDX 4 1 2 2 1 3 3 4 5 5 6 6 7 7 11 8 8 9 10 10 9 11 12 12 14 13
REMARK SMILES IDX 13 14
REMARK H PARENT
REMARK Flexibility Score: inf
ROOT
ATOM      1  C   UNL     1       7.933  -3.137   0.746  1.00  0.00     0.080 C 
ENDROOT
BRANCH   1   2
ATOM      2  C   UNL     1       9.074  -4.052   0.465  1.00  0.00     0.130 C 
ATOM      3  C   UNL     1       9.155  -4.833  -0.799  1.00  0.00     0.087 C 
ATOM      4  O   UNL     1       9.981  -4.189   1.270  1.00  0.00    -0.300 OA
ENDBRANCH   1   2
BRANCH   1   5
ATOM      5  C   UNL     1       8.279  -2.146   1.839  1.00  0.00     0.043 C 
BRANCH   5   6
ATOM      6  C   UNL     1       7.371  -0.984   1.831  1.00  0.00    -0.044 A 
ATOM      7  C   UNL     1       7.829   0.302   1.522  1.00  0.00     0.008 A 
ATOM      8  C   UNL     1       6.039  -1.157   2.130  1.00  0.00     0.054 A 
ATOM      9  C   UNL     1       6.932   1.353   1.529  1.00  0.00     0.051 A 
ATOM     10  C   UNL     1       5.135  -0.091   2.135  1.00  0.00     0.166 A 
ATOM     11  C   UNL     1       5.585   1.175   1.833  1.00  0.00     0.165 A 
ATOM     12  O   UNL     1       3.784  -0.005   2.396  1.00  0.00    -0.454 OA
ATOM     13  O   UNL     1       4.490   2.020   1.914  1.00  0.00    -0.454 OA
ATOM     14  C   UNL     1       3.310   1.299   2.179  1.00  0.00     0.468 C 
ENDBRANCH   5   6
ENDBRANCH   1   5
TORSDOF 3
ENDMDL
MODEL 5
REMARK VINA RESULT:       2.1      9.936     11.254
REMARK SMILES CC(=O)CCc1ccc2c(c1)OCO2
REMARK SMILES IDX 4 1 2 2 1 3 3 4 5 5 6 6 7 7 11 8 8 9 10 10 9 11 12 12 14 13
REMARK SMILES IDX 13 14
REMARK H PARENT
REMARK Flexibility Score: inf
ROOT
ATOM      1  C   UNL     1      -0.410 -12.007   2.385  1.00  0.00     0.080 C 
ENDROOT
BRANCH   1   2
ATOM      2  C   UNL     1      -1.567 -11.569   1.554  1.00  0.00     0.130 C 
ATOM      3  C   UNL     1      -2.084 -10.175   1.608  1.00  0.00     0.087 C 
ATOM      4  O   UNL     1      -2.127 -12.348   0.800  1.00  0.00    -0.300 OA
ENDBRANCH   1   2
BRANCH   1   5
ATOM      5  C   UNL     1       0.858 -12.096   1.559  1.00  0.00     0.043 C 
BRANCH   5   6
ATOM      6  C   UNL     1       1.103 -10.857   0.799  1.00  0.00    -0.044 A 
ATOM      7  C   UNL     1       0.762 -10.748  -0.554  1.00  0.00     0.008 A 
ATOM      8  C   UNL     1       1.678  -9.775   1.425  1.00  0.00     0.054 A 
ATOM      9  C   UNL     1       1.014  -9.561  -1.217  1.00  0.00     0.051 A 
ATOM     10  C   UNL     1       1.931  -8.576   0.751  1.00  0.00     0.166 A 
ATOM     11  C   UNL     1       1.596  -8.468  -0.581  1.00  0.00     0.165 A 
ATOM     12  O   UNL     1       2.484  -7.376   1.144  1.00  0.00    -0.454 OA
ATOM     13  O   UNL     1       1.955  -7.191  -0.982  1.00  0.00    -0.454 OA
ATOM     14  C   UNL     1       2.438  -6.434   0.103  1.00  0.00     0.468 C 
ENDBRANCH   5   6
ENDBRANCH   1   5
TORSDOF 3
ENDMDL
