@<TRIPOS>MOLECULE
/home/cewinharhar/GITHUB/reincatalyze/data/processed/docking_pred/2023-May-22-2206_sub9_nm5_bs15_s42_ex16_mel10_mts10000_k50_ec02_g099_lra9e-4_lrc1e-3/e3fbdfe9b196bdc40f83d7817e536621cd4b8c1b_ligand_9.pdbqt
 14 15 0 0 0
SMALL
GASTEIGER

@<TRIPOS>ATOM
      1  C          1.9660   -0.0520    3.0780 C.3     1  UNL1        0.0800
      2  C          0.4930    0.1620    3.1280 C.2     1  UNL1        0.1300
      3  C         -0.1640    1.2560    2.3640 C.3     1  UNL1        0.0870
      4  O         -0.2230   -0.5610    3.8030 O.2     1  UNL1       -0.3000
      5  C          2.6630    1.0870    2.3610 C.3     1  UNL1        0.0430
      6  C          4.0900    0.7970    2.1320 C.2     1  UNL1       -0.0440
      7  C          5.0070    1.8130    1.8410 C.2     1  UNL1        0.0080
      8  C          4.5420   -0.5010    2.2050 C.2     1  UNL1        0.0540
      9  C          6.3340    1.4810    1.6370 C.2     1  UNL1        0.0510
     10  C          5.8850   -0.8320    1.9980 C.2     1  UNL1        0.1660
     11  C          6.7880    0.1670    1.7110 C.2     1  UNL1        0.1650
     12  O          6.5710   -2.0270    2.0150 O.2     1  UNL1       -0.4540
     13  O          8.0230   -0.4420    1.5570 O.2     1  UNL1       -0.4540
     14  C          7.9480   -1.8200    1.8300 C.3     1  UNL1        0.4680
@<TRIPOS>BOND
     1    13    11    1
     2    13    14    1
     3     9    11    2
     4     9     7    1
     5    11    10    1
     6    14    12    1
     7     7     6    2
     8    10    12    1
     9    10     8    2
    10     6     8    1
    11     6     5    1
    12     5     1    1
    13     3     2    1
    14     1     2    1
    15     2     4    2
