@<TRIPOS>MOLECULE
/home/cewinharhar/GITHUB/reincatalyze/data/processed/docking_pred/2023-May-22-2206_sub9_nm5_bs15_s42_ex16_mel10_mts10000_k50_ec02_g099_lra9e-4_lrc1e-3/e4fa235ec7efbd7e119135046aea7bf03a15639f_ligand_9.pdbqt
 14 15 0 0 0
SMALL
GASTEIGER

@<TRIPOS>ATOM
      1  C          5.8390    1.6140    0.8700 C.3     1  UNL1        0.0800
      2  C          5.3990    0.5980    1.8660 C.2     1  UNL1        0.1300
      3  C          6.2520   -0.5680    2.2220 C.3     1  UNL1        0.0870
      4  O          4.3170    0.6940    2.4230 O.2     1  UNL1       -0.3000
      5  C          5.7430    1.0760   -0.5440 C.3     1  UNL1        0.0430
      6  C          6.9890    0.4110   -0.9620 C.2     1  UNL1       -0.0440
      7  C          8.2410    1.0040   -0.7600 C.2     1  UNL1        0.0080
      8  C          6.9340   -0.8260   -1.5650 C.2     1  UNL1        0.0540
      9  C          9.3770    0.3320   -1.1720 C.2     1  UNL1        0.0510
     10  C          8.0850   -1.5010   -1.9790 C.2     1  UNL1        0.1660
     11  C          9.3170   -0.9180   -1.7810 C.2     1  UNL1        0.1650
     12  O          8.2910   -2.7190   -2.5920 O.2     1  UNL1       -0.4540
     13  O         10.2630   -1.7990   -2.2810 O.2     1  UNL1       -0.4540
     14  C          9.6620   -2.9930   -2.7220 C.3     1  UNL1        0.4680
@<TRIPOS>BOND
     1    14    12    1
     2    14    13    1
     3    12    10    1
     4    13    11    1
     5    10    11    2
     6    10     8    1
     7    11     9    1
     8     8     6    2
     9     9     7    2
    10     6     7    1
    11     6     5    1
    12     5     1    1
    13     1     2    1
    14     2     3    1
    15     2     4    2
