MODEL 1
REMARK VINA RESULT:      -8.2      0.000      0.000
REMARK SMILES CC(=O)CCc1ccc2c(c1)OCO2
REMARK SMILES IDX 4 1 2 2 1 3 3 4 5 5 6 6 7 7 11 8 8 9 10 10 9 11 12 12 14 13
REMARK SMILES IDX 13 14
REMARK H PARENT
REMARK Flexibility Score: inf
ROOT
ATOM      1  C   UNL     1       5.839   1.614   0.870  1.00  0.00     0.080 C 
ENDROOT
BRANCH   1   2
ATOM      2  C   UNL     1       5.399   0.598   1.866  1.00  0.00     0.130 C 
ATOM      3  C   UNL     1       6.252  -0.568   2.222  1.00  0.00     0.087 C 
ATOM      4  O   UNL     1       4.317   0.694   2.423  1.00  0.00    -0.300 OA
ENDBRANCH   1   2
BRANCH   1   5
ATOM      5  C   UNL     1       5.743   1.076  -0.544  1.00  0.00     0.043 C 
BRANCH   5   6
ATOM      6  C   UNL     1       6.989   0.411  -0.962  1.00  0.00    -0.044 A 
ATOM      7  C   UNL     1       8.241   1.004  -0.760  1.00  0.00     0.008 A 
ATOM      8  C   UNL     1       6.934  -0.826  -1.565  1.00  0.00     0.054 A 
ATOM      9  C   UNL     1       9.377   0.332  -1.172  1.00  0.00     0.051 A 
ATOM     10  C   UNL     1       8.085  -1.501  -1.979  1.00  0.00     0.166 A 
ATOM     11  C   UNL     1       9.317  -0.918  -1.781  1.00  0.00     0.165 A 
ATOM     12  O   UNL     1       8.291  -2.719  -2.592  1.00  0.00    -0.454 OA
ATOM     13  O   UNL     1      10.263  -1.799  -2.281  1.00  0.00    -0.454 OA
ATOM     14  C   UNL     1       9.662  -2.993  -2.722  1.00  0.00     0.468 C 
ENDBRANCH   5   6
ENDBRANCH   1   5
TORSDOF 3
ENDMDL
MODEL 2
REMARK VINA RESULT:      -7.7      1.101      1.797
REMARK SMILES CC(=O)CCc1ccc2c(c1)OCO2
REMARK SMILES IDX 4 1 2 2 1 3 3 4 5 5 6 6 7 7 11 8 8 9 10 10 9 11 12 12 14 13
REMARK SMILES IDX 13 14
REMARK H PARENT
REMARK Flexibility Score: inf
ROOT
ATOM      1  C   UNL     1       5.887   1.304  -0.314  1.00  0.00     0.080 C 
ENDROOT
BRANCH   1   2
ATOM      2  C   UNL     1       5.285   1.146   1.039  1.00  0.00     0.130 C 
ATOM      3  C   UNL     1       5.598  -0.024   1.901  1.00  0.00     0.087 C 
ATOM      4  O   UNL     1       4.510   1.979   1.481  1.00  0.00    -0.300 OA
ENDBRANCH   1   2
BRANCH   1   5
ATOM      5  C   UNL     1       7.401   1.289  -0.247  1.00  0.00     0.043 C 
BRANCH   5   6
ATOM      6  C   UNL     1       7.972   0.185  -1.039  1.00  0.00    -0.044 A 
ATOM      7  C   UNL     1       7.391  -0.232  -2.242  1.00  0.00     0.008 A 
ATOM      8  C   UNL     1       9.106  -0.458  -0.595  1.00  0.00     0.054 A 
ATOM      9  C   UNL     1       7.971  -1.274  -2.942  1.00  0.00     0.051 A 
ATOM     10  C   UNL     1       9.689  -1.510  -1.307  1.00  0.00     0.166 A 
ATOM     11  C   UNL     1       9.117  -1.922  -2.490  1.00  0.00     0.165 A 
ATOM     12  O   UNL     1      10.797  -2.298  -1.079  1.00  0.00    -0.454 OA
ATOM     13  O   UNL     1       9.894  -2.964  -2.970  1.00  0.00    -0.454 OA
ATOM     14  C   UNL     1      11.021  -3.175  -2.153  1.00  0.00     0.468 C 
ENDBRANCH   5   6
ENDBRANCH   1   5
TORSDOF 3
ENDMDL
MODEL 3
REMARK VINA RESULT:      -7.5      1.252      2.037
REMARK SMILES CC(=O)CCc1ccc2c(c1)OCO2
REMARK SMILES IDX 4 1 2 2 1 3 3 4 5 5 6 6 7 7 11 8 8 9 10 10 9 11 12 12 14 13
REMARK SMILES IDX 13 14
REMARK H PARENT
REMARK Flexibility Score: inf
ROOT
ATOM      1  C   UNL     1       6.577   0.100   0.947  1.00  0.00     0.080 C 
ENDROOT
BRANCH   1   2
ATOM      2  C   UNL     1       5.389   0.928   1.295  1.00  0.00     0.130 C 
ATOM      3  C   UNL     1       4.991   2.106   0.478  1.00  0.00     0.087 C 
ATOM      4  O   UNL     1       4.703   0.662   2.269  1.00  0.00    -0.300 OA
ENDBRANCH   1   2
BRANCH   1   5
ATOM      5  C   UNL     1       7.428   0.776  -0.110  1.00  0.00     0.043 C 
BRANCH   5   6
ATOM      6  C   UNL     1       8.094  -0.206  -0.985  1.00  0.00    -0.044 A 
ATOM      7  C   UNL     1       7.687  -0.401  -2.310  1.00  0.00     0.008 A 
ATOM      8  C   UNL     1       9.142  -0.953  -0.498  1.00  0.00     0.054 A 
ATOM      9  C   UNL     1       8.350  -1.336  -3.084  1.00  0.00     0.051 A 
ATOM     10  C   UNL     1       9.810  -1.896  -1.285  1.00  0.00     0.166 A 
ATOM     11  C   UNL     1       9.410  -2.089  -2.589  1.00  0.00     0.165 A 
ATOM     12  O   UNL     1      10.863  -2.750  -1.038  1.00  0.00    -0.454 OA
ATOM     13  O   UNL     1      10.236  -3.068  -3.121  1.00  0.00    -0.454 OA
ATOM     14  C   UNL     1      11.229  -3.449  -2.199  1.00  0.00     0.468 C 
ENDBRANCH   5   6
ENDBRANCH   1   5
TORSDOF 3
ENDMDL
MODEL 4
REMARK VINA RESULT:      -7.4      1.392      2.191
REMARK SMILES CC(=O)CCc1ccc2c(c1)OCO2
REMARK SMILES IDX 4 1 2 2 1 3 3 4 5 5 6 6 7 7 11 8 8 9 10 10 9 11 12 12 14 13
REMARK SMILES IDX 13 14
REMARK H PARENT
REMARK Flexibility Score: inf
ROOT
ATOM      1  C   UNL     1       6.647   0.095   1.900  1.00  0.00     0.080 C 
ENDROOT
BRANCH   1   2
ATOM      2  C   UNL     1       5.357   0.810   1.696  1.00  0.00     0.130 C 
ATOM      3  C   UNL     1       5.171   1.786   0.589  1.00  0.00     0.087 C 
ATOM      4  O   UNL     1       4.408   0.615   2.439  1.00  0.00    -0.300 OA
ENDBRANCH   1   2
BRANCH   1   5
ATOM      5  C   UNL     1       6.539  -1.362   1.496  1.00  0.00     0.043 C 
BRANCH   5   6
ATOM      6  C   UNL     1       7.272  -1.638   0.248  1.00  0.00    -0.044 A 
ATOM      7  C   UNL     1       6.853  -1.112  -0.980  1.00  0.00     0.008 A 
ATOM      8  C   UNL     1       8.397  -2.430   0.278  1.00  0.00     0.054 A 
ATOM      9  C   UNL     1       7.581  -1.405  -2.119  1.00  0.00     0.051 A 
ATOM     10  C   UNL     1       9.130  -2.722  -0.876  1.00  0.00     0.166 A 
ATOM     11  C   UNL     1       8.718  -2.206  -2.084  1.00  0.00     0.165 A 
ATOM     12  O   UNL     1      10.265  -3.472  -1.104  1.00  0.00    -0.454 OA
ATOM     13  O   UNL     1       9.618  -2.653  -3.039  1.00  0.00    -0.454 OA
ATOM     14  C   UNL     1      10.666  -3.384  -2.447  1.00  0.00     0.468 C 
ENDBRANCH   5   6
ENDBRANCH   1   5
TORSDOF 3
ENDMDL
MODEL 5
REMARK VINA RESULT:      -7.3      1.975      2.480
REMARK SMILES CC(=O)CCc1ccc2c(c1)OCO2
REMARK SMILES IDX 4 1 2 2 1 3 3 4 5 5 6 6 7 7 11 8 8 9 10 10 9 11 12 12 14 13
REMARK SMILES IDX 13 14
REMARK H PARENT
REMARK Flexibility Score: inf
ROOT
ATOM      1  C   UNL     1       6.136  -0.031   1.846  1.00  0.00     0.080 C 
ENDROOT
BRANCH   1   2
ATOM      2  C   UNL     1       5.045   0.965   1.658  1.00  0.00     0.130 C 
ATOM      3  C   UNL     1       5.100   1.989   0.580  1.00  0.00     0.087 C 
ATOM      4  O   UNL     1       4.067   0.969   2.388  1.00  0.00    -0.300 OA
ENDBRANCH   1   2
BRANCH   1   5
ATOM      5  C   UNL     1       6.427  -0.779   0.560  1.00  0.00     0.043 C 
BRANCH   5   6
ATOM      6  C   UNL     1       7.847  -0.677   0.178  1.00  0.00    -0.044 A 
ATOM      7  C   UNL     1       8.317   0.374  -0.618  1.00  0.00     0.008 A 
ATOM      8  C   UNL     1       8.741  -1.630   0.611  1.00  0.00     0.054 A 
ATOM      9  C   UNL     1       9.660   0.419  -0.945  1.00  0.00     0.051 A 
ATOM     10  C   UNL     1      10.098  -1.579   0.279  1.00  0.00     0.166 A 
ATOM     11  C   UNL     1      10.561  -0.547  -0.506  1.00  0.00     0.165 A 
ATOM     12  O   UNL     1      11.169  -2.393   0.579  1.00  0.00    -0.454 OA
ATOM     13  O   UNL     1      11.922  -0.749  -0.672  1.00  0.00    -0.454 OA
ATOM     14  C   UNL     1      12.366  -1.858   0.074  1.00  0.00     0.468 C 
ENDBRANCH   5   6
ENDBRANCH   1   5
TORSDOF 3
ENDMDL
