@<TRIPOS>MOLECULE
/home/cewinharhar/GITHUB/reincatalyze/data/processed/docking_pred/2023-May-22-2206_sub9_nm5_bs15_s42_ex16_mel10_mts10000_k50_ec02_g099_lra9e-4_lrc1e-3/e4fa235ec7efbd7e119135046aea7bf03a15639f_ligand_9.pdbqt
 14 15 0 0 0
SMALL
GASTEIGER

@<TRIPOS>ATOM
      1  C          5.8870    1.3040   -0.3140 C.3     1  UNL1        0.0800
      2  C          5.2850    1.1460    1.0390 C.2     1  UNL1        0.1300
      3  C          5.5980   -0.0240    1.9010 C.3     1  UNL1        0.0870
      4  O          4.5100    1.9790    1.4810 O.2     1  UNL1       -0.3000
      5  C          7.4010    1.2890   -0.2470 C.3     1  UNL1        0.0430
      6  C          7.9720    0.1850   -1.0390 C.2     1  UNL1       -0.0440
      7  C          7.3910   -0.2320   -2.2420 C.2     1  UNL1        0.0080
      8  C          9.1060   -0.4580   -0.5950 C.2     1  UNL1        0.0540
      9  C          7.9710   -1.2740   -2.9420 C.2     1  UNL1        0.0510
     10  C          9.6890   -1.5100   -1.3070 C.2     1  UNL1        0.1660
     11  C          9.1170   -1.9220   -2.4900 C.2     1  UNL1        0.1650
     12  O         10.7970   -2.2980   -1.0790 O.2     1  UNL1       -0.4540
     13  O          9.8940   -2.9640   -2.9700 O.2     1  UNL1       -0.4540
     14  C         11.0210   -3.1750   -2.1530 C.3     1  UNL1        0.4680
@<TRIPOS>BOND
     1    13    11    1
     2    13    14    1
     3     9    11    2
     4     9     7    1
     5    11    10    1
     6     7     6    2
     7    14    12    1
     8    10    12    1
     9    10     8    2
    10     6     8    1
    11     6     5    1
    12     1     5    1
    13     1     2    1
    14     2     4    2
    15     2     3    1
