MODEL 1
REMARK VINA RESULT:      -7.7      0.000      0.000
REMARK SMILES CC(=O)CCc1ccc2c(c1)OCO2
REMARK SMILES IDX 4 1 2 2 1 3 3 4 5 5 6 6 7 7 11 8 8 9 10 10 9 11 12 12 14 13
REMARK SMILES IDX 13 14
REMARK H PARENT
REMARK Flexibility Score: inf
ROOT
ATOM      1  C   UNL     1       5.498   1.927   1.252  1.00  0.00     0.080 C 
ENDROOT
BRANCH   1   2
ATOM      2  C   UNL     1       5.051   0.713   1.992  1.00  0.00     0.130 C 
ATOM      3  C   UNL     1       5.928  -0.478   2.140  1.00  0.00     0.087 C 
ATOM      4  O   UNL     1       3.943   0.663   2.501  1.00  0.00    -0.300 OA
ENDBRANCH   1   2
BRANCH   1   5
ATOM      5  C   UNL     1       5.379   1.732  -0.247  1.00  0.00     0.043 C 
BRANCH   5   6
ATOM      6  C   UNL     1       6.551   1.033  -0.802  1.00  0.00    -0.044 A 
ATOM      7  C   UNL     1       7.856   1.468  -0.540  1.00  0.00     0.008 A 
ATOM      8  C   UNL     1       6.371  -0.077  -1.596  1.00  0.00     0.054 A 
ATOM      9  C   UNL     1       8.918   0.772  -1.088  1.00  0.00     0.051 A 
ATOM     10  C   UNL     1       7.448  -0.778  -2.147  1.00  0.00     0.166 A 
ATOM     11  C   UNL     1       8.732  -0.350  -1.891  1.00  0.00     0.165 A 
ATOM     12  O   UNL     1       7.530  -1.891  -2.955  1.00  0.00    -0.454 OA
ATOM     13  O   UNL     1       9.584  -1.219  -2.554  1.00  0.00    -0.454 OA
ATOM     14  C   UNL     1       8.867  -2.264  -3.166  1.00  0.00     0.468 C 
ENDBRANCH   5   6
ENDBRANCH   1   5
TORSDOF 3
ENDMDL
MODEL 2
REMARK VINA RESULT:      -7.4      1.931      2.415
REMARK SMILES CC(=O)CCc1ccc2c(c1)OCO2
REMARK SMILES IDX 4 1 2 2 1 3 3 4 5 5 6 6 7 7 11 8 8 9 10 10 9 11 12 12 14 13
REMARK SMILES IDX 13 14
REMARK H PARENT
REMARK Flexibility Score: inf
ROOT
ATOM      1  C   UNL     1       5.767   1.325  -0.242  1.00  0.00     0.080 C 
ENDROOT
BRANCH   1   2
ATOM      2  C   UNL     1       5.180   1.254   1.125  1.00  0.00     0.130 C 
ATOM      3  C   UNL     1       5.437   0.099   2.026  1.00  0.00     0.087 C 
ATOM      4  O   UNL     1       4.466   2.149   1.548  1.00  0.00    -0.300 OA
ENDBRANCH   1   2
BRANCH   1   5
ATOM      5  C   UNL     1       7.259   1.057  -0.215  1.00  0.00     0.043 C 
BRANCH   5   6
ATOM      6  C   UNL     1       7.594  -0.234  -0.842  1.00  0.00    -0.044 A 
ATOM      7  C   UNL     1       7.573  -0.401  -2.232  1.00  0.00     0.008 A 
ATOM      8  C   UNL     1       7.939  -1.307  -0.053  1.00  0.00     0.054 A 
ATOM      9  C   UNL     1       7.897  -1.635  -2.764  1.00  0.00     0.051 A 
ATOM     10  C   UNL     1       8.267  -2.553  -0.596  1.00  0.00     0.166 A 
ATOM     11  C   UNL     1       8.245  -2.718  -1.963  1.00  0.00     0.165 A 
ATOM     12  O   UNL     1       8.637  -3.755  -0.032  1.00  0.00    -0.454 OA
ATOM     13  O   UNL     1       8.607  -4.033  -2.213  1.00  0.00    -0.454 OA
ATOM     14  C   UNL     1       8.952  -4.700  -1.022  1.00  0.00     0.468 C 
ENDBRANCH   5   6
ENDBRANCH   1   5
TORSDOF 3
ENDMDL
MODEL 3
REMARK VINA RESULT:      -7.2      2.098      2.634
REMARK SMILES CC(=O)CCc1ccc2c(c1)OCO2
REMARK SMILES IDX 4 1 2 2 1 3 3 4 5 5 6 6 7 7 11 8 8 9 10 10 9 11 12 12 14 13
REMARK SMILES IDX 13 14
REMARK H PARENT
REMARK Flexibility Score: inf
ROOT
ATOM      1  C   UNL     1       5.558  -0.008   1.937  1.00  0.00     0.080 C 
ENDROOT
BRANCH   1   2
ATOM      2  C   UNL     1       4.671   1.150   1.634  1.00  0.00     0.130 C 
ATOM      3  C   UNL     1       4.955   2.076   0.505  1.00  0.00     0.087 C 
ATOM      4  O   UNL     1       3.679   1.373   2.308  1.00  0.00    -0.300 OA
ENDBRANCH   1   2
BRANCH   1   5
ATOM      5  C   UNL     1       6.976   0.247   1.465  1.00  0.00     0.043 C 
BRANCH   5   6
ATOM      6  C   UNL     1       7.387  -0.716   0.427  1.00  0.00    -0.044 A 
ATOM      7  C   UNL     1       7.289  -0.411  -0.936  1.00  0.00     0.008 A 
ATOM      8  C   UNL     1       7.882  -1.946   0.795  1.00  0.00     0.054 A 
ATOM      9  C   UNL     1       7.690  -1.353  -1.865  1.00  0.00     0.051 A 
ATOM     10  C   UNL     1       8.287  -2.895  -0.148  1.00  0.00     0.166 A 
ATOM     11  C   UNL     1       8.190  -2.596  -1.489  1.00  0.00     0.165 A 
ATOM     12  O   UNL     1       8.804  -4.168  -0.038  1.00  0.00    -0.454 OA
ATOM     13  O   UNL     1       8.656  -3.703  -2.181  1.00  0.00    -0.454 OA
ATOM     14  C   UNL     1       9.140  -4.688  -1.299  1.00  0.00     0.468 C 
ENDBRANCH   5   6
ENDBRANCH   1   5
TORSDOF 3
ENDMDL
MODEL 4
REMARK VINA RESULT:      -7.1      1.257      1.469
REMARK SMILES CC(=O)CCc1ccc2c(c1)OCO2
REMARK SMILES IDX 4 1 2 2 1 3 3 4 5 5 6 6 7 7 11 8 8 9 10 10 9 11 12 12 14 13
REMARK SMILES IDX 13 14
REMARK H PARENT
REMARK Flexibility Score: inf
ROOT
ATOM      1  C   UNL     1       6.374   1.218   0.919  1.00  0.00     0.080 C 
ENDROOT
BRANCH   1   2
ATOM      2  C   UNL     1       5.662   0.388   1.931  1.00  0.00     0.130 C 
ATOM      3  C   UNL     1       6.274  -0.840   2.505  1.00  0.00     0.087 C 
ATOM      4  O   UNL     1       4.547   0.696   2.321  1.00  0.00    -0.300 OA
ENDBRANCH   1   2
BRANCH   1   5
ATOM      5  C   UNL     1       5.867   0.933  -0.481  1.00  0.00     0.043 C 
BRANCH   5   6
ATOM      6  C   UNL     1       6.817   0.110  -1.249  1.00  0.00    -0.044 A 
ATOM      7  C   UNL     1       7.510   0.625  -2.350  1.00  0.00     0.008 A 
ATOM      8  C   UNL     1       7.037  -1.199  -0.883  1.00  0.00     0.054 A 
ATOM      9  C   UNL     1       8.391  -0.194  -3.033  1.00  0.00     0.051 A 
ATOM     10  C   UNL     1       7.929  -2.023  -1.576  1.00  0.00     0.166 A 
ATOM     11  C   UNL     1       8.610  -1.517  -2.660  1.00  0.00     0.165 A 
ATOM     12  O   UNL     1       8.315  -3.337  -1.413  1.00  0.00    -0.454 OA
ATOM     13  O   UNL     1       9.410  -2.540  -3.144  1.00  0.00    -0.454 OA
ATOM     14  C   UNL     1       9.322  -3.684  -2.328  1.00  0.00     0.468 C 
ENDBRANCH   5   6
ENDBRANCH   1   5
TORSDOF 3
ENDMDL
MODEL 5
REMARK VINA RESULT:      -6.8      1.194      5.167
REMARK SMILES CC(=O)CCc1ccc2c(c1)OCO2
REMARK SMILES IDX 4 1 2 2 1 3 3 4 5 5 6 6 7 7 11 8 8 9 10 10 9 11 12 12 14 13
REMARK SMILES IDX 13 14
REMARK H PARENT
REMARK Flexibility Score: inf
ROOT
ATOM      1  C   UNL     1       8.342   0.180  -2.690  1.00  0.00     0.080 C 
ENDROOT
BRANCH   1   2
ATOM      2  C   UNL     1       8.063  -1.281  -2.778  1.00  0.00     0.130 C 
ATOM      3  C   UNL     1       9.148  -2.270  -3.020  1.00  0.00     0.087 C 
ATOM      4  O   UNL     1       6.928  -1.710  -2.653  1.00  0.00    -0.300 OA
ENDBRANCH   1   2
BRANCH   1   5
ATOM      5  C   UNL     1       8.877   0.557  -1.323  1.00  0.00     0.043 C 
BRANCH   5   6
ATOM      6  C   UNL     1       7.850   0.414  -0.276  1.00  0.00    -0.044 A 
ATOM      7  C   UNL     1       7.966  -0.543   0.739  1.00  0.00     0.008 A 
ATOM      8  C   UNL     1       6.747   1.237  -0.285  1.00  0.00     0.054 A 
ATOM      9  C   UNL     1       6.971  -0.631   1.696  1.00  0.00     0.051 A 
ATOM     10  C   UNL     1       5.744   1.144   0.684  1.00  0.00     0.166 A 
ATOM     11  C   UNL     1       5.857   0.202   1.683  1.00  0.00     0.165 A 
ATOM     12  O   UNL     1       4.568   1.835   0.889  1.00  0.00    -0.454 OA
ATOM     13  O   UNL     1       4.738   0.336   2.489  1.00  0.00    -0.454 OA
ATOM     14  C   UNL     1       3.940   1.420   2.075  1.00  0.00     0.468 C 
ENDBRANCH   5   6
ENDBRANCH   1   5
TORSDOF 3
ENDMDL
