@<TRIPOS>MOLECULE
/home/cewinharhar/GITHUB/reincatalyze/data/processed/docking_pred/2023-May-22-2206_sub9_nm5_bs15_s42_ex16_mel10_mts10000_k50_ec02_g099_lra9e-4_lrc1e-3/e664ed9b9863352566edc96c512c4454db4fc7ef_ligand_9.pdbqt
 14 15 0 0 0
SMALL
GASTEIGER

@<TRIPOS>ATOM
      1  C          8.3420    0.1800   -2.6900 C.3     1  UNL1        0.0800
      2  C          8.0630   -1.2810   -2.7780 C.2     1  UNL1        0.1300
      3  C          9.1480   -2.2700   -3.0200 C.3     1  UNL1        0.0870
      4  O          6.9280   -1.7100   -2.6530 O.2     1  UNL1       -0.3000
      5  C          8.8770    0.5570   -1.3230 C.3     1  UNL1        0.0430
      6  C          7.8500    0.4140   -0.2760 C.2     1  UNL1       -0.0440
      7  C          7.9660   -0.5430    0.7390 C.2     1  UNL1        0.0080
      8  C          6.7470    1.2370   -0.2850 C.2     1  UNL1        0.0540
      9  C          6.9710   -0.6310    1.6960 C.2     1  UNL1        0.0510
     10  C          5.7440    1.1440    0.6840 C.2     1  UNL1        0.1660
     11  C          5.8570    0.2020    1.6830 C.2     1  UNL1        0.1650
     12  O          4.5680    1.8350    0.8890 O.2     1  UNL1       -0.4540
     13  O          4.7380    0.3360    2.4890 O.2     1  UNL1       -0.4540
     14  C          3.9400    1.4200    2.0750 C.3     1  UNL1        0.4680
@<TRIPOS>BOND
     1     3     2    1
     2     2     1    1
     3     2     4    2
     4     1     5    1
     5     5     6    1
     6     8     6    2
     7     8    10    1
     8     6     7    1
     9    10    12    1
    10    10    11    2
    11     7     9    2
    12    12    14    1
    13    11     9    1
    14    11    13    1
    15    14    13    1
