@<TRIPOS>MOLECULE
/home/cewinharhar/GITHUB/reincatalyze/data/processed/docking_pred/2023-May-22-2206_sub9_nm5_bs15_s42_ex16_mel10_mts10000_k50_ec02_g099_lra9e-4_lrc1e-3/e69dee760b6a4f483691253cffcee702e9155e2b_ligand_9.pdbqt
 14 15 0 0 0
SMALL
GASTEIGER

@<TRIPOS>ATOM
      1  C          6.8100    0.7850    1.4160 C.3     1  UNL1        0.0800
      2  C          5.3720    1.1660    1.4830 C.2     1  UNL1        0.1300
      3  C          4.7800    2.1500    0.5380 C.3     1  UNL1        0.0870
      4  O          4.6330    0.6780    2.3230 O.2     1  UNL1       -0.3000
      5  C          7.3760    1.0140    0.0280 C.3     1  UNL1        0.0430
      6  C          7.6770   -0.2560   -0.6560 C.2     1  UNL1       -0.0440
      7  C          7.6470   -0.3620   -2.0510 C.2     1  UNL1        0.0080
      8  C          8.0010   -1.3700    0.0850 C.2     1  UNL1        0.0540
      9  C          7.9400   -1.5790   -2.6380 C.2     1  UNL1        0.0510
     10  C          8.2970   -2.5980   -0.5130 C.2     1  UNL1        0.1660
     11  C          8.2660   -2.7040   -1.8860 C.2     1  UNL1        0.1650
     12  O          8.6410   -3.8320   -0.0050 O.2     1  UNL1       -0.4540
     13  O          8.5960   -4.0140   -2.1950 O.2     1  UNL1       -0.4540
     14  C          8.9300   -4.7410   -1.0360 C.3     1  UNL1        0.4680
@<TRIPOS>BOND
     1     9     7    1
     2     9    11    2
     3    13    11    1
     4    13    14    1
     5     7     6    2
     6    11    10    1
     7    14    12    1
     8     6     5    1
     9     6     8    1
    10    10    12    1
    11    10     8    2
    12     5     1    1
    13     3     2    1
    14     1     2    1
    15     2     4    2
