@<TRIPOS>MOLECULE
/home/cewinharhar/GITHUB/reincatalyze/data/processed/docking_pred/2023-May-22-2206_sub9_nm5_bs15_s42_ex16_mel10_mts10000_k50_ec02_g099_lra9e-4_lrc1e-3/e69dee760b6a4f483691253cffcee702e9155e2b_ligand_9.pdbqt
 14 15 0 0 0
SMALL
GASTEIGER

@<TRIPOS>ATOM
      1  C          6.3350    1.2670    0.8430 C.3     1  UNL1        0.0800
      2  C          5.6550    0.4650    1.8970 C.2     1  UNL1        0.1300
      3  C          6.2820   -0.7530    2.4780 C.3     1  UNL1        0.0870
      4  O          4.5550    0.7850    2.3160 O.2     1  UNL1       -0.3000
      5  C          5.8250    0.9070   -0.5390 C.3     1  UNL1        0.0430
      6  C          6.8000    0.0910   -1.2850 C.2     1  UNL1       -0.0440
      7  C          7.5270    0.6190   -2.3580 C.2     1  UNL1        0.0080
      8  C          7.0090   -1.2210   -0.9260 C.2     1  UNL1        0.0540
      9  C          8.4290   -0.1940   -3.0220 C.2     1  UNL1        0.0510
     10  C          7.9220   -2.0380   -1.6000 C.2     1  UNL1        0.1660
     11  C          8.6370   -1.5200   -2.6560 C.2     1  UNL1        0.1650
     12  O          8.3030   -3.3530   -1.4380 O.2     1  UNL1       -0.4540
     13  O          9.4530   -2.5380   -3.1250 O.2     1  UNL1       -0.4540
     14  C          9.3390   -3.6900   -2.3240 C.3     1  UNL1        0.4680
@<TRIPOS>BOND
     1    13    11    1
     2    13    14    1
     3     9    11    2
     4     9     7    1
     5    11    10    1
     6     7     6    2
     7    14    12    1
     8    10    12    1
     9    10     8    2
    10     6     8    1
    11     6     5    1
    12     5     1    1
    13     1     2    1
    14     2     4    2
    15     2     3    1
