@<TRIPOS>MOLECULE
/home/cewinharhar/GITHUB/reincatalyze/data/processed/docking_pred/2023-May-22-2206_sub9_nm5_bs15_s42_ex16_mel10_mts10000_k50_ec02_g099_lra9e-4_lrc1e-3/e8fc6854485d68a8d0bf78bf523603f1a9cbeca9_ligand_9.pdbqt
 14 15 0 0 0
SMALL
GASTEIGER

@<TRIPOS>ATOM
      1  C          6.3180    1.3840    0.8730 C.3     1  UNL1        0.0800
      2  C          5.7810    0.5300    1.9690 C.2     1  UNL1        0.1300
      3  C          6.6320   -0.4680    2.6700 C.3     1  UNL1        0.0870
      4  O          4.6170    0.6260    2.3250 O.2     1  UNL1       -0.3000
      5  C          5.7630    0.9650   -0.4740 C.3     1  UNL1        0.0430
      6  C          6.7300    0.1550   -1.2360 C.2     1  UNL1       -0.0440
      7  C          7.4320    0.6850   -2.3250 C.2     1  UNL1        0.0080
      8  C          6.9590   -1.1530   -0.8750 C.2     1  UNL1        0.0540
      9  C          8.3290   -0.1220   -3.0020 C.2     1  UNL1        0.0510
     10  C          7.8670   -1.9650   -1.5630 C.2     1  UNL1        0.1660
     11  C          8.5570   -1.4450   -2.6350 C.2     1  UNL1        0.1650
     12  O          8.2630   -3.2750   -1.4020 O.2     1  UNL1       -0.4540
     13  O          9.3720   -2.4570   -3.1150 O.2     1  UNL1       -0.4540
     14  C          9.2850   -3.6070   -2.3080 C.3     1  UNL1        0.4680
@<TRIPOS>BOND
     1    13    11    1
     2    13    14    1
     3     9    11    2
     4     9     7    1
     5    11    10    1
     6     7     6    2
     7    14    12    1
     8    10    12    1
     9    10     8    2
    10     6     8    1
    11     6     5    1
    12     5     1    1
    13     1     2    1
    14     2     4    2
    15     2     3    1
