@<TRIPOS>MOLECULE
/home/cewinharhar/GITHUB/reincatalyze/data/processed/docking_pred/2023-May-22-2206_sub9_nm5_bs15_s42_ex16_mel10_mts10000_k50_ec02_g099_lra9e-4_lrc1e-3/e8fc6854485d68a8d0bf78bf523603f1a9cbeca9_ligand_9.pdbqt
 14 15 0 0 0
SMALL
GASTEIGER

@<TRIPOS>ATOM
      1  C          5.6280    1.0230    0.4340 C.3     1  UNL1        0.0800
      2  C          5.5200    0.7030    1.8850 C.2     1  UNL1        0.1300
      3  C          6.7050    0.7350    2.7820 C.3     1  UNL1        0.0870
      4  O          4.4460    0.4030    2.3810 O.2     1  UNL1       -0.3000
      5  C          7.0760    1.0520   -0.0160 C.3     1  UNL1        0.0430
      6  C          7.4670   -0.2050   -0.6780 C.2     1  UNL1       -0.0440
      7  C          7.4750   -0.3280   -2.0730 C.2     1  UNL1        0.0080
      8  C          7.8380   -1.2900    0.0830 C.2     1  UNL1        0.0540
      9  C          7.8530   -1.5320   -2.6380 C.2     1  UNL1        0.0510
     10  C          8.2200   -2.5050   -0.4940 C.2     1  UNL1        0.1660
     11  C          8.2270   -2.6270   -1.8660 C.2     1  UNL1        0.1650
     12  O          8.6240   -3.7120    0.0370 O.2     1  UNL1       -0.4540
     13  O          8.6400   -3.9190   -2.1510 O.2     1  UNL1       -0.4540
     14  C          8.9900   -4.6120   -0.9770 C.3     1  UNL1        0.4680
@<TRIPOS>BOND
     1     9     7    1
     2     9    11    2
     3    13    11    1
     4    13    14    1
     5     7     6    2
     6    11    10    1
     7    14    12    1
     8     6     5    1
     9     6     8    1
    10    10    12    1
    11    10     8    2
    12     5     1    1
    13     1     2    1
    14     2     4    2
    15     2     3    1
