MODEL 1
REMARK VINA RESULT:      -7.2      0.000      0.000
REMARK SMILES CC(=O)CCc1ccc2c(c1)OCO2
REMARK SMILES IDX 4 1 2 2 1 3 3 4 5 5 6 6 7 7 11 8 8 9 10 10 9 11 12 12 14 13
REMARK SMILES IDX 13 14
REMARK H PARENT
REMARK Flexibility Score: inf
ROOT
ATOM      1  C   UNL     1       5.628   1.023   0.434  1.00  0.00     0.080 C 
ENDROOT
BRANCH   1   2
ATOM      2  C   UNL     1       5.520   0.703   1.885  1.00  0.00     0.130 C 
ATOM      3  C   UNL     1       6.705   0.735   2.782  1.00  0.00     0.087 C 
ATOM      4  O   UNL     1       4.446   0.403   2.381  1.00  0.00    -0.300 OA
ENDBRANCH   1   2
BRANCH   1   5
ATOM      5  C   UNL     1       7.076   1.052  -0.016  1.00  0.00     0.043 C 
BRANCH   5   6
ATOM      6  C   UNL     1       7.467  -0.205  -0.678  1.00  0.00    -0.044 A 
ATOM      7  C   UNL     1       7.475  -0.328  -2.073  1.00  0.00     0.008 A 
ATOM      8  C   UNL     1       7.838  -1.290   0.083  1.00  0.00     0.054 A 
ATOM      9  C   UNL     1       7.853  -1.532  -2.638  1.00  0.00     0.051 A 
ATOM     10  C   UNL     1       8.220  -2.505  -0.494  1.00  0.00     0.166 A 
ATOM     11  C   UNL     1       8.227  -2.627  -1.866  1.00  0.00     0.165 A 
ATOM     12  O   UNL     1       8.624  -3.712   0.037  1.00  0.00    -0.454 OA
ATOM     13  O   UNL     1       8.640  -3.919  -2.151  1.00  0.00    -0.454 OA
ATOM     14  C   UNL     1       8.990  -4.612  -0.977  1.00  0.00     0.468 C 
ENDBRANCH   5   6
ENDBRANCH   1   5
TORSDOF 3
ENDMDL
MODEL 2
REMARK VINA RESULT:      -7.1      1.689      2.118
REMARK SMILES CC(=O)CCc1ccc2c(c1)OCO2
REMARK SMILES IDX 4 1 2 2 1 3 3 4 5 5 6 6 7 7 11 8 8 9 10 10 9 11 12 12 14 13
REMARK SMILES IDX 13 14
REMARK H PARENT
REMARK Flexibility Score: inf
ROOT
ATOM      1  C   UNL     1       6.152   1.660   1.666  1.00  0.00     0.080 C 
ENDROOT
BRANCH   1   2
ATOM      2  C   UNL     1       5.513   0.433   2.219  1.00  0.00     0.130 C 
ATOM      3  C   UNL     1       6.291  -0.810   2.465  1.00  0.00     0.087 C 
ATOM      4  O   UNL     1       4.322   0.414   2.489  1.00  0.00    -0.300 OA
ENDBRANCH   1   2
BRANCH   1   5
ATOM      5  C   UNL     1       5.958   1.752   0.165  1.00  0.00     0.043 C 
BRANCH   5   6
ATOM      6  C   UNL     1       6.980   0.982  -0.566  1.00  0.00    -0.044 A 
ATOM      7  C   UNL     1       8.308   1.417  -0.645  1.00  0.00     0.008 A 
ATOM      8  C   UNL     1       6.631  -0.195  -1.189  1.00  0.00     0.054 A 
ATOM      9  C   UNL     1       9.223   0.653  -1.345  1.00  0.00     0.051 A 
ATOM     10  C   UNL     1       7.561  -0.964  -1.895  1.00  0.00     0.166 A 
ATOM     11  C   UNL     1       8.868  -0.537  -1.974  1.00  0.00     0.165 A 
ATOM     12  O   UNL     1       7.464  -2.151  -2.589  1.00  0.00    -0.454 OA
ATOM     13  O   UNL     1       9.554  -1.481  -2.722  1.00  0.00    -0.454 OA
ATOM     14  C   UNL     1       8.722  -2.567  -3.055  1.00  0.00     0.468 C 
ENDBRANCH   5   6
ENDBRANCH   1   5
TORSDOF 3
ENDMDL
MODEL 3
REMARK VINA RESULT:      -7.0      1.789      2.267
REMARK SMILES CC(=O)CCc1ccc2c(c1)OCO2
REMARK SMILES IDX 4 1 2 2 1 3 3 4 5 5 6 6 7 7 11 8 8 9 10 10 9 11 12 12 14 13
REMARK SMILES IDX 13 14
REMARK H PARENT
REMARK Flexibility Score: inf
ROOT
ATOM      1  C   UNL     1       5.094   0.299   1.625  1.00  0.00     0.080 C 
ENDROOT
BRANCH   1   2
ATOM      2  C   UNL     1       6.222  -0.188   2.466  1.00  0.00     0.130 C 
ATOM      3  C   UNL     1       7.051   0.745   3.276  1.00  0.00     0.087 C 
ATOM      4  O   UNL     1       6.501  -1.375   2.515  1.00  0.00    -0.300 OA
ENDBRANCH   1   2
BRANCH   1   5
ATOM      5  C   UNL     1       5.572   1.291   0.583  1.00  0.00     0.043 C 
BRANCH   5   6
ATOM      6  C   UNL     1       6.662   0.737  -0.239  1.00  0.00    -0.044 A 
ATOM      7  C   UNL     1       7.900   1.382  -0.346  1.00  0.00     0.008 A 
ATOM      8  C   UNL     1       6.471  -0.443  -0.920  1.00  0.00     0.054 A 
ATOM      9  C   UNL     1       8.886   0.814  -1.132  1.00  0.00     0.051 A 
ATOM     10  C   UNL     1       7.471  -1.014  -1.713  1.00  0.00     0.166 A 
ATOM     11  C   UNL     1       8.689  -0.379  -1.820  1.00  0.00     0.165 A 
ATOM     12  O   UNL     1       7.526  -2.160  -2.478  1.00  0.00    -0.454 OA
ATOM     13  O   UNL     1       9.475  -1.157  -2.656  1.00  0.00    -0.454 OA
ATOM     14  C   UNL     1       8.808  -2.342  -3.023  1.00  0.00     0.468 C 
ENDBRANCH   5   6
ENDBRANCH   1   5
TORSDOF 3
ENDMDL
MODEL 4
REMARK VINA RESULT:      -6.9      1.096      1.283
REMARK SMILES CC(=O)CCc1ccc2c(c1)OCO2
REMARK SMILES IDX 4 1 2 2 1 3 3 4 5 5 6 6 7 7 11 8 8 9 10 10 9 11 12 12 14 13
REMARK SMILES IDX 13 14
REMARK H PARENT
REMARK Flexibility Score: inf
ROOT
ATOM      1  C   UNL     1       6.318   1.384   0.873  1.00  0.00     0.080 C 
ENDROOT
BRANCH   1   2
ATOM      2  C   UNL     1       5.781   0.530   1.969  1.00  0.00     0.130 C 
ATOM      3  C   UNL     1       6.632  -0.468   2.670  1.00  0.00     0.087 C 
ATOM      4  O   UNL     1       4.617   0.626   2.325  1.00  0.00    -0.300 OA
ENDBRANCH   1   2
BRANCH   1   5
ATOM      5  C   UNL     1       5.763   0.965  -0.474  1.00  0.00     0.043 C 
BRANCH   5   6
ATOM      6  C   UNL     1       6.730   0.155  -1.236  1.00  0.00    -0.044 A 
ATOM      7  C   UNL     1       7.432   0.685  -2.325  1.00  0.00     0.008 A 
ATOM      8  C   UNL     1       6.959  -1.153  -0.875  1.00  0.00     0.054 A 
ATOM      9  C   UNL     1       8.329  -0.122  -3.002  1.00  0.00     0.051 A 
ATOM     10  C   UNL     1       7.867  -1.965  -1.563  1.00  0.00     0.166 A 
ATOM     11  C   UNL     1       8.557  -1.445  -2.635  1.00  0.00     0.165 A 
ATOM     12  O   UNL     1       8.263  -3.275  -1.402  1.00  0.00    -0.454 OA
ATOM     13  O   UNL     1       9.372  -2.457  -3.115  1.00  0.00    -0.454 OA
ATOM     14  C   UNL     1       9.285  -3.607  -2.308  1.00  0.00     0.468 C 
ENDBRANCH   5   6
ENDBRANCH   1   5
TORSDOF 3
ENDMDL
MODEL 5
REMARK VINA RESULT:      -6.5      0.987      1.128
REMARK SMILES CC(=O)CCc1ccc2c(c1)OCO2
REMARK SMILES IDX 4 1 2 2 1 3 3 4 5 5 6 6 7 7 11 8 8 9 10 10 9 11 12 12 14 13
REMARK SMILES IDX 13 14
REMARK H PARENT
REMARK Flexibility Score: inf
ROOT
ATOM      1  C   UNL     1       6.812   1.477   0.654  1.00  0.00     0.080 C 
ENDROOT
BRANCH   1   2
ATOM      2  C   UNL     1       6.249   0.960   1.932  1.00  0.00     0.130 C 
ATOM      3  C   UNL     1       4.879   0.385   2.006  1.00  0.00     0.087 C 
ATOM      4  O   UNL     1       6.901   0.995   2.963  1.00  0.00    -0.300 OA
ENDBRANCH   1   2
BRANCH   1   5
ATOM      5  C   UNL     1       6.103   0.876  -0.543  1.00  0.00     0.043 C 
BRANCH   5   6
ATOM      6  C   UNL     1       6.892  -0.204  -1.161  1.00  0.00    -0.044 A 
ATOM      7  C   UNL     1       7.319  -0.131  -2.492  1.00  0.00     0.008 A 
ATOM      8  C   UNL     1       7.225  -1.315  -0.420  1.00  0.00     0.054 A 
ATOM      9  C   UNL     1       8.058  -1.175  -3.018  1.00  0.00     0.051 A 
ATOM     10  C   UNL     1       7.973  -2.368  -0.956  1.00  0.00     0.166 A 
ATOM     11  C   UNL     1       8.392  -2.297  -2.266  1.00  0.00     0.165 A 
ATOM     12  O   UNL     1       8.424  -3.561  -0.434  1.00  0.00    -0.454 OA
ATOM     13  O   UNL     1       9.102  -3.460  -2.523  1.00  0.00    -0.454 OA
ATOM     14  C   UNL     1       9.224  -4.248  -1.362  1.00  0.00     0.468 C 
ENDBRANCH   5   6
ENDBRANCH   1   5
TORSDOF 3
ENDMDL
