@<TRIPOS>MOLECULE
/home/cewinharhar/GITHUB/reincatalyze/data/processed/docking_pred/2023-May-22-2206_sub9_nm5_bs15_s42_ex16_mel10_mts10000_k50_ec02_g099_lra9e-4_lrc1e-3/e8fc6854485d68a8d0bf78bf523603f1a9cbeca9_ligand_9.pdbqt
 14 15 0 0 0
SMALL
GASTEIGER

@<TRIPOS>ATOM
      1  C          6.1520    1.6600    1.6660 C.3     1  UNL1        0.0800
      2  C          5.5130    0.4330    2.2190 C.2     1  UNL1        0.1300
      3  C          6.2910   -0.8100    2.4650 C.3     1  UNL1        0.0870
      4  O          4.3220    0.4140    2.4890 O.2     1  UNL1       -0.3000
      5  C          5.9580    1.7520    0.1650 C.3     1  UNL1        0.0430
      6  C          6.9800    0.9820   -0.5660 C.2     1  UNL1       -0.0440
      7  C          8.3080    1.4170   -0.6450 C.2     1  UNL1        0.0080
      8  C          6.6310   -0.1950   -1.1890 C.2     1  UNL1        0.0540
      9  C          9.2230    0.6530   -1.3450 C.2     1  UNL1        0.0510
     10  C          7.5610   -0.9640   -1.8950 C.2     1  UNL1        0.1660
     11  C          8.8680   -0.5370   -1.9740 C.2     1  UNL1        0.1650
     12  O          7.4640   -2.1510   -2.5890 O.2     1  UNL1       -0.4540
     13  O          9.5540   -1.4810   -2.7220 O.2     1  UNL1       -0.4540
     14  C          8.7220   -2.5670   -3.0550 C.3     1  UNL1        0.4680
@<TRIPOS>BOND
     1    14    13    1
     2    14    12    1
     3    13    11    1
     4    12    10    1
     5    11    10    2
     6    11     9    1
     7    10     8    1
     8     9     7    2
     9     8     6    2
    10     7     6    1
    11     6     5    1
    12     5     1    1
    13     1     2    1
    14     2     3    1
    15     2     4    2
