@<TRIPOS>MOLECULE
/home/cewinharhar/GITHUB/reincatalyze/data/processed/docking_pred/2023-May-22-2206_sub9_nm5_bs15_s42_ex16_mel10_mts10000_k50_ec02_g099_lra9e-4_lrc1e-3/e8fc6854485d68a8d0bf78bf523603f1a9cbeca9_ligand_9.pdbqt
 14 15 0 0 0
SMALL
GASTEIGER

@<TRIPOS>ATOM
      1  C          5.0940    0.2990    1.6250 C.3     1  UNL1        0.0800
      2  C          6.2220   -0.1880    2.4660 C.2     1  UNL1        0.1300
      3  C          7.0510    0.7450    3.2760 C.3     1  UNL1        0.0870
      4  O          6.5010   -1.3750    2.5150 O.2     1  UNL1       -0.3000
      5  C          5.5720    1.2910    0.5830 C.3     1  UNL1        0.0430
      6  C          6.6620    0.7370   -0.2390 C.2     1  UNL1       -0.0440
      7  C          7.9000    1.3820   -0.3460 C.2     1  UNL1        0.0080
      8  C          6.4710   -0.4430   -0.9200 C.2     1  UNL1        0.0540
      9  C          8.8860    0.8140   -1.1320 C.2     1  UNL1        0.0510
     10  C          7.4710   -1.0140   -1.7130 C.2     1  UNL1        0.1660
     11  C          8.6890   -0.3790   -1.8200 C.2     1  UNL1        0.1650
     12  O          7.5260   -2.1600   -2.4780 O.2     1  UNL1       -0.4540
     13  O          9.4750   -1.1570   -2.6560 O.2     1  UNL1       -0.4540
     14  C          8.8080   -2.3420   -3.0230 C.3     1  UNL1        0.4680
@<TRIPOS>BOND
     1    14    13    1
     2    14    12    1
     3    13    11    1
     4    12    10    1
     5    11    10    2
     6    11     9    1
     7    10     8    1
     8     9     7    2
     9     8     6    2
    10     7     6    1
    11     6     5    1
    12     5     1    1
    13     1     2    1
    14     2     4    2
    15     2     3    1
