@<TRIPOS>MOLECULE
/home/cewinharhar/GITHUB/reincatalyze/data/processed/docking_pred/2023-May-22-2206_sub9_nm5_bs15_s42_ex16_mel10_mts10000_k50_ec02_g099_lra9e-4_lrc1e-3/ea9f39b4277e7ba3f00603e8654b95ed05d2571c_ligand_9.pdbqt
 14 15 0 0 0
SMALL
GASTEIGER

@<TRIPOS>ATOM
      1  C          5.7560    1.4930   -0.2710 C.3     1  UNL1        0.0800
      2  C          5.1060    1.3130    1.0580 C.2     1  UNL1        0.1300
      3  C          5.4810    0.1950    1.9650 C.3     1  UNL1        0.0870
      4  O          4.2410    2.0830    1.4420 O.2     1  UNL1       -0.3000
      5  C          7.2400    1.1960   -0.2030 C.3     1  UNL1        0.0430
      6  C          7.5720   -0.0830   -0.8550 C.2     1  UNL1       -0.0440
      7  C          7.5370   -0.2280   -2.2460 C.2     1  UNL1        0.0080
      8  C          7.9290   -1.1680   -0.0870 C.2     1  UNL1        0.0540
      9  C          7.8590   -1.4520   -2.8030 C.2     1  UNL1        0.0510
     10  C          8.2550   -2.4040   -0.6540 C.2     1  UNL1        0.1660
     11  C          8.2190   -2.5470   -2.0230 C.2     1  UNL1        0.1650
     12  O          8.6350   -3.6150   -0.1140 O.2     1  UNL1       -0.4540
     13  O          8.5820   -3.8560   -2.2990 O.2     1  UNL1       -0.4540
     14  C          8.9420   -4.5420   -1.1230 C.3     1  UNL1        0.4680
@<TRIPOS>BOND
     1     9     7    1
     2     9    11    2
     3    13    11    1
     4    13    14    1
     5     7     6    2
     6    11    10    1
     7    14    12    1
     8     6     5    1
     9     6     8    1
    10    10    12    1
    11    10     8    2
    12     1     5    1
    13     1     2    1
    14     2     4    2
    15     2     3    1
