@<TRIPOS>MOLECULE
/home/cewinharhar/GITHUB/reincatalyze/data/processed/docking_pred/2023-May-22-2206_sub9_nm5_bs15_s42_ex16_mel10_mts10000_k50_ec02_g099_lra9e-4_lrc1e-3/eb53456adf8787420c4e8f25112cf644d6bf88f9_ligand_9.pdbqt
 14 15 0 0 0
SMALL
GASTEIGER

@<TRIPOS>ATOM
      1  C          6.9050    0.9540    1.2030 C.3     1  UNL1        0.0800
      2  C          5.4560    1.1260    1.5010 C.2     1  UNL1        0.1300
      3  C          4.6320    2.1500    0.8040 C.3     1  UNL1        0.0870
      4  O          4.8990    0.4270    2.3320 O.2     1  UNL1       -0.3000
      5  C          7.1810    1.0810   -0.2820 C.3     1  UNL1        0.0430
      6  C          7.5580   -0.2120   -0.8810 C.2     1  UNL1       -0.0440
      7  C          7.5870   -0.3980   -2.2670 C.2     1  UNL1        0.0080
      8  C          7.8940   -1.2690   -0.0650 C.2     1  UNL1        0.0540
      9  C          7.9500   -1.6330   -2.7720 C.2     1  UNL1        0.0510
     10  C          8.2610   -2.5160   -0.5800 C.2     1  UNL1        0.1660
     11  C          8.2890   -2.7000   -1.9450 C.2     1  UNL1        0.1650
     12  O          8.6320   -3.7050    0.0120 O.2     1  UNL1       -0.4540
     13  O          8.6810   -4.0110   -2.1650 O.2     1  UNL1       -0.4540
     14  C          8.9970   -4.6570   -0.9550 C.3     1  UNL1        0.4680
@<TRIPOS>BOND
     1     9     7    1
     2     9    11    2
     3     7     6    2
     4    13    11    1
     5    13    14    1
     6    11    10    1
     7    14    12    1
     8     6     5    1
     9     6     8    1
    10    10     8    2
    11    10    12    1
    12     5     1    1
    13     3     2    1
    14     1     2    1
    15     2     4    2
