@<TRIPOS>MOLECULE
/home/cewinharhar/GITHUB/reincatalyze/data/processed/docking_pred/2023-May-22-2206_sub9_nm5_bs15_s42_ex16_mel10_mts10000_k50_ec02_g099_lra9e-4_lrc1e-3/eb53456adf8787420c4e8f25112cf644d6bf88f9_ligand_9.pdbqt
 14 15 0 0 0
SMALL
GASTEIGER

@<TRIPOS>ATOM
      1  C          5.5510    1.9060    1.2860 C.3     1  UNL1        0.0800
      2  C          5.1230    0.6840    2.0220 C.2     1  UNL1        0.1300
      3  C          6.0300   -0.4820    2.1940 C.3     1  UNL1        0.0870
      4  O          4.0060    0.6040    2.5070 O.2     1  UNL1       -0.3000
      5  C          5.4170    1.7220   -0.2120 C.3     1  UNL1        0.0430
      6  C          6.5810    1.0210   -0.7830 C.2     1  UNL1       -0.0440
      7  C          7.8890    1.4500   -0.5340 C.2     1  UNL1        0.0080
      8  C          6.3880   -0.0860   -1.5780 C.2     1  UNL1        0.0540
      9  C          8.9430    0.7520   -1.0960 C.2     1  UNL1        0.0510
     10  C          7.4560   -0.7890   -2.1440 C.2     1  UNL1        0.1660
     11  C          8.7440   -0.3660   -1.9010 C.2     1  UNL1        0.1650
     12  O          7.5240   -1.9000   -2.9570 O.2     1  UNL1       -0.4540
     13  O          9.5850   -1.2360   -2.5760 O.2     1  UNL1       -0.4540
     14  C          8.8580   -2.2770   -3.1840 C.3     1  UNL1        0.4680
@<TRIPOS>BOND
     1    14    12    1
     2    14    13    1
     3    12    10    1
     4    13    11    1
     5    10    11    2
     6    10     8    1
     7    11     9    1
     8     8     6    2
     9     9     7    2
    10     6     7    1
    11     6     5    1
    12     5     1    1
    13     1     2    1
    14     2     3    1
    15     2     4    2
