@<TRIPOS>MOLECULE
/home/cewinharhar/GITHUB/reincatalyze/data/processed/docking_pred/2023-May-22-2206_sub9_nm5_bs15_s42_ex16_mel10_mts10000_k50_ec02_g099_lra9e-4_lrc1e-3/eb9358f7bad4db9539b7d0967c6d7dee777b6146_ligand_9.pdbqt
 14 15 0 0 0
SMALL
GASTEIGER

@<TRIPOS>ATOM
      1  C          5.5960   -0.2160    1.9590 C.3     1  UNL1        0.0800
      2  C          5.3560    0.9920    1.1200 C.2     1  UNL1        0.1300
      3  C          5.8570    1.0840   -0.2770 C.3     1  UNL1        0.0870
      4  O          4.7370    1.9470    1.5600 O.2     1  UNL1       -0.3000
      5  C          6.5580   -1.1730    1.2830 C.3     1  UNL1        0.0430
      6  C          7.6740   -1.5430    2.1710 C.2     1  UNL1       -0.0440
      7  C          7.6800   -1.1940    3.5270 C.2     1  UNL1        0.0080
      8  C          8.7410   -2.2520    1.6670 C.2     1  UNL1        0.0540
      9  C          8.7540   -1.5700    4.3120 C.2     1  UNL1        0.0510
     10  C          9.8240   -2.6310    2.4660 C.2     1  UNL1        0.1660
     11  C          9.8310   -2.2860    3.7990 C.2     1  UNL1        0.1650
     12  O         10.9860   -3.3260    2.2050 O.2     1  UNL1       -0.4540
     13  O         11.0090   -2.7830    4.3350 O.2     1  UNL1       -0.4540
     14  C         11.7270   -3.5280    3.3810 C.3     1  UNL1        0.4680
@<TRIPOS>BOND
     1     3     2    1
     2     2     4    2
     3     2     1    1
     4     5     1    1
     5     5     6    1
     6     8     6    2
     7     8    10    1
     8     6     7    1
     9    12    10    1
    10    12    14    1
    11    10    11    2
    12    14    13    1
    13     7     9    2
    14    11     9    1
    15    11    13    1
