@<TRIPOS>MOLECULE
/home/cewinharhar/GITHUB/reincatalyze/data/processed/docking_pred/2023-May-22-2206_sub9_nm5_bs15_s42_ex16_mel10_mts10000_k50_ec02_g099_lra9e-4_lrc1e-3/eb9358f7bad4db9539b7d0967c6d7dee777b6146_ligand_9.pdbqt
 14 15 0 0 0
SMALL
GASTEIGER

@<TRIPOS>ATOM
      1  C          5.6540    1.4030   -0.3270 C.3     1  UNL1        0.0800
      2  C          5.1070    1.3010    1.0550 C.2     1  UNL1        0.1300
      3  C          5.4690    0.1750    1.9570 C.3     1  UNL1        0.0870
      4  O          4.3410    2.1460    1.4890 O.2     1  UNL1       -0.3000
      5  C          7.1590    1.2260   -0.3380 C.3     1  UNL1        0.0430
      6  C          7.5550   -0.0520   -0.9570 C.2     1  UNL1       -0.0440
      7  C          7.6580   -0.1930   -2.3460 C.2     1  UNL1        0.0080
      8  C          7.8340   -1.1380   -0.1600 C.2     1  UNL1        0.0540
      9  C          8.0350   -1.4160   -2.8700 C.2     1  UNL1        0.0510
     10  C          8.2150   -2.3730   -0.6950 C.2     1  UNL1        0.1660
     11  C          8.3160   -2.5120   -2.0610 C.2     1  UNL1        0.1650
     12  O          8.5390   -3.5850   -0.1230 O.2     1  UNL1       -0.4540
     13  O          8.7050   -3.8210   -2.3030 O.2     1  UNL1       -0.4540
     14  C          8.9460   -4.5100   -1.0990 C.3     1  UNL1        0.4680
@<TRIPOS>BOND
     1     9     7    1
     2     9    11    2
     3     7     6    2
     4    13    11    1
     5    13    14    1
     6    11    10    1
     7    14    12    1
     8     6     5    1
     9     6     8    1
    10    10     8    2
    11    10    12    1
    12     5     1    1
    13     1     2    1
    14     2     4    2
    15     2     3    1
