MODEL 1
REMARK VINA RESULT:      -7.6      0.000      0.000
REMARK SMILES CC(=O)CCc1ccc2c(c1)OCO2
REMARK SMILES IDX 4 1 2 2 1 3 3 4 5 5 6 6 7 7 11 8 8 9 10 10 9 11 12 12 14 13
REMARK SMILES IDX 13 14
REMARK H PARENT
REMARK Flexibility Score: inf
ROOT
ATOM      1  C   UNL     1       5.558   1.850   1.316  1.00  0.00     0.080 C 
ENDROOT
BRANCH   1   2
ATOM      2  C   UNL     1       5.102   0.632   2.041  1.00  0.00     0.130 C 
ATOM      3  C   UNL     1       5.978  -0.561   2.191  1.00  0.00     0.087 C 
ATOM      4  O   UNL     1       3.988   0.577   2.536  1.00  0.00    -0.300 OA
ENDBRANCH   1   2
BRANCH   1   5
ATOM      5  C   UNL     1       5.416   1.684  -0.184  1.00  0.00     0.043 C 
BRANCH   5   6
ATOM      6  C   UNL     1       6.580   0.996  -0.770  1.00  0.00    -0.044 A 
ATOM      7  C   UNL     1       7.886   1.450  -0.554  1.00  0.00     0.008 A 
ATOM      8  C   UNL     1       6.391  -0.124  -1.548  1.00  0.00     0.054 A 
ATOM      9  C   UNL     1       8.940   0.764  -1.129  1.00  0.00     0.051 A 
ATOM     10  C   UNL     1       7.460  -0.815  -2.127  1.00  0.00     0.166 A 
ATOM     11  C   UNL     1       8.745  -0.367  -1.915  1.00  0.00     0.165 A 
ATOM     12  O   UNL     1       7.531  -1.935  -2.928  1.00  0.00    -0.454 OA
ATOM     13  O   UNL     1       9.587  -1.231  -2.597  1.00  0.00    -0.454 OA
ATOM     14  C   UNL     1       8.866  -2.292  -3.178  1.00  0.00     0.468 C 
ENDBRANCH   5   6
ENDBRANCH   1   5
TORSDOF 3
ENDMDL
MODEL 2
REMARK VINA RESULT:      -7.5      1.903      2.381
REMARK SMILES CC(=O)CCc1ccc2c(c1)OCO2
REMARK SMILES IDX 4 1 2 2 1 3 3 4 5 5 6 6 7 7 11 8 8 9 10 10 9 11 12 12 14 13
REMARK SMILES IDX 13 14
REMARK H PARENT
REMARK Flexibility Score: inf
ROOT
ATOM      1  C   UNL     1       5.741   1.290  -0.319  1.00  0.00     0.080 C 
ENDROOT
BRANCH   1   2
ATOM      2  C   UNL     1       5.200   1.237   1.067  1.00  0.00     0.130 C 
ATOM      3  C   UNL     1       5.461   0.080   1.964  1.00  0.00     0.087 C 
ATOM      4  O   UNL     1       4.520   2.150   1.510  1.00  0.00    -0.300 OA
ENDBRANCH   1   2
BRANCH   1   5
ATOM      5  C   UNL     1       7.245   1.100  -0.330  1.00  0.00     0.043 C 
BRANCH   5   6
ATOM      6  C   UNL     1       7.628  -0.194  -0.924  1.00  0.00    -0.044 A 
ATOM      7  C   UNL     1       7.738  -0.361  -2.309  1.00  0.00     0.008 A 
ATOM      8  C   UNL     1       7.888  -1.269  -0.105  1.00  0.00     0.054 A 
ATOM      9  C   UNL     1       8.102  -1.598  -2.809  1.00  0.00     0.051 A 
ATOM     10  C   UNL     1       8.257  -2.518  -0.615  1.00  0.00     0.166 A 
ATOM     11  C   UNL     1       8.364  -2.684  -1.978  1.00  0.00     0.165 A 
ATOM     12  O   UNL     1       8.562  -3.723  -0.020  1.00  0.00    -0.454 OA
ATOM     13  O   UNL     1       8.738  -4.001  -2.194  1.00  0.00    -0.454 OA
ATOM     14  C   UNL     1       8.963  -4.671  -0.976  1.00  0.00     0.468 C 
ENDBRANCH   5   6
ENDBRANCH   1   5
TORSDOF 3
ENDMDL
MODEL 3
REMARK VINA RESULT:      -7.2      2.044      2.598
REMARK SMILES CC(=O)CCc1ccc2c(c1)OCO2
REMARK SMILES IDX 4 1 2 2 1 3 3 4 5 5 6 6 7 7 11 8 8 9 10 10 9 11 12 12 14 13
REMARK SMILES IDX 13 14
REMARK H PARENT
REMARK Flexibility Score: inf
ROOT
ATOM      1  C   UNL     1       5.451  -0.024   2.028  1.00  0.00     0.080 C 
ENDROOT
BRANCH   1   2
ATOM      2  C   UNL     1       4.569   1.149   1.774  1.00  0.00     0.130 C 
ATOM      3  C   UNL     1       4.880   2.144   0.713  1.00  0.00     0.087 C 
ATOM      4  O   UNL     1       3.560   1.330   2.436  1.00  0.00    -0.300 OA
ENDBRANCH   1   2
BRANCH   1   5
ATOM      5  C   UNL     1       6.871   0.244   1.571  1.00  0.00     0.043 C 
BRANCH   5   6
ATOM      6  C   UNL     1       7.292  -0.693   0.515  1.00  0.00    -0.044 A 
ATOM      7  C   UNL     1       7.170  -0.372  -0.842  1.00  0.00     0.008 A 
ATOM      8  C   UNL     1       7.822  -1.916   0.860  1.00  0.00     0.054 A 
ATOM      9  C   UNL     1       7.583  -1.291  -1.789  1.00  0.00     0.051 A 
ATOM     10  C   UNL     1       8.239  -2.841  -0.102  1.00  0.00     0.166 A 
ATOM     11  C   UNL     1       8.118  -2.526  -1.437  1.00  0.00     0.165 A 
ATOM     12  O   UNL     1       8.788  -4.103  -0.015  1.00  0.00    -0.454 OA
ATOM     13  O   UNL     1       8.601  -3.612  -2.150  1.00  0.00    -0.454 OA
ATOM     14  C   UNL     1       9.120  -4.596  -1.288  1.00  0.00     0.468 C 
ENDBRANCH   5   6
ENDBRANCH   1   5
TORSDOF 3
ENDMDL
MODEL 4
REMARK VINA RESULT:      -7.1      1.229      1.414
REMARK SMILES CC(=O)CCc1ccc2c(c1)OCO2
REMARK SMILES IDX 4 1 2 2 1 3 3 4 5 5 6 6 7 7 11 8 8 9 10 10 9 11 12 12 14 13
REMARK SMILES IDX 13 14
REMARK H PARENT
REMARK Flexibility Score: inf
ROOT
ATOM      1  C   UNL     1       6.350   1.205   0.953  1.00  0.00     0.080 C 
ENDROOT
BRANCH   1   2
ATOM      2  C   UNL     1       5.659   0.356   1.964  1.00  0.00     0.130 C 
ATOM      3  C   UNL     1       6.303  -0.858   2.535  1.00  0.00     0.087 C 
ATOM      4  O   UNL     1       4.537   0.634   2.354  1.00  0.00    -0.300 OA
ENDBRANCH   1   2
BRANCH   1   5
ATOM      5  C   UNL     1       5.837   0.923  -0.445  1.00  0.00     0.043 C 
BRANCH   5   6
ATOM      6  C   UNL     1       6.790   0.114  -1.225  1.00  0.00    -0.044 A 
ATOM      7  C   UNL     1       7.478   0.645  -2.322  1.00  0.00     0.008 A 
ATOM      8  C   UNL     1       7.020  -1.197  -0.872  1.00  0.00     0.054 A 
ATOM      9  C   UNL     1       8.361  -0.162  -3.015  1.00  0.00     0.051 A 
ATOM     10  C   UNL     1       7.915  -2.009  -1.576  1.00  0.00     0.166 A 
ATOM     11  C   UNL     1       8.591  -1.487  -2.657  1.00  0.00     0.165 A 
ATOM     12  O   UNL     1       8.309  -3.321  -1.427  1.00  0.00    -0.454 OA
ATOM     13  O   UNL     1       9.396  -2.500  -3.153  1.00  0.00    -0.454 OA
ATOM     14  C   UNL     1       9.317  -3.653  -2.348  1.00  0.00     0.468 C 
ENDBRANCH   5   6
ENDBRANCH   1   5
TORSDOF 3
ENDMDL
MODEL 5
REMARK VINA RESULT:      -7.1      1.932      2.489
REMARK SMILES CC(=O)CCc1ccc2c(c1)OCO2
REMARK SMILES IDX 4 1 2 2 1 3 3 4 5 5 6 6 7 7 11 8 8 9 10 10 9 11 12 12 14 13
REMARK SMILES IDX 13 14
REMARK H PARENT
REMARK Flexibility Score: inf
ROOT
ATOM      1  C   UNL     1       6.827   0.915   1.317  1.00  0.00     0.080 C 
ENDROOT
BRANCH   1   2
ATOM      2  C   UNL     1       5.364   1.174   1.431  1.00  0.00     0.130 C 
ATOM      3  C   UNL     1       4.673   2.149   0.546  1.00  0.00     0.087 C 
ATOM      4  O   UNL     1       4.687   0.590   2.261  1.00  0.00    -0.300 OA
ENDBRANCH   1   2
BRANCH   1   5
ATOM      5  C   UNL     1       7.310   1.103  -0.107  1.00  0.00     0.043 C 
BRANCH   5   6
ATOM      6  C   UNL     1       7.642  -0.183  -0.746  1.00  0.00    -0.044 A 
ATOM      7  C   UNL     1       7.647  -0.330  -2.138  1.00  0.00     0.008 A 
ATOM      8  C   UNL     1       7.958  -1.271   0.035  1.00  0.00     0.054 A 
ATOM      9  C   UNL     1       7.967  -1.561  -2.681  1.00  0.00     0.051 A 
ATOM     10  C   UNL     1       8.282  -2.513  -0.519  1.00  0.00     0.166 A 
ATOM     11  C   UNL     1       8.286  -2.659  -1.888  1.00  0.00     0.165 A 
ATOM     12  O   UNL     1       8.627  -3.728   0.035  1.00  0.00    -0.454 OA
ATOM     13  O   UNL     1       8.638  -3.974  -2.150  1.00  0.00    -0.454 OA
ATOM     14  C   UNL     1       8.951  -4.662  -0.963  1.00  0.00     0.468 C 
ENDBRANCH   5   6
ENDBRANCH   1   5
TORSDOF 3
ENDMDL
