@<TRIPOS>MOLECULE
/home/cewinharhar/GITHUB/reincatalyze/data/processed/docking_pred/2023-May-22-2206_sub9_nm5_bs15_s42_ex16_mel10_mts10000_k50_ec02_g099_lra9e-4_lrc1e-3/ebaba25497d2d3047300f44322ccacaaeed3cb61_ligand_9.pdbqt
 14 15 0 0 0
SMALL
GASTEIGER

@<TRIPOS>ATOM
      1  C          6.8270    0.9150    1.3170 C.3     1  UNL1        0.0800
      2  C          5.3640    1.1740    1.4310 C.2     1  UNL1        0.1300
      3  C          4.6730    2.1490    0.5460 C.3     1  UNL1        0.0870
      4  O          4.6870    0.5900    2.2610 O.2     1  UNL1       -0.3000
      5  C          7.3100    1.1030   -0.1070 C.3     1  UNL1        0.0430
      6  C          7.6420   -0.1830   -0.7460 C.2     1  UNL1       -0.0440
      7  C          7.6470   -0.3300   -2.1380 C.2     1  UNL1        0.0080
      8  C          7.9580   -1.2710    0.0350 C.2     1  UNL1        0.0540
      9  C          7.9670   -1.5610   -2.6810 C.2     1  UNL1        0.0510
     10  C          8.2820   -2.5130   -0.5190 C.2     1  UNL1        0.1660
     11  C          8.2860   -2.6590   -1.8880 C.2     1  UNL1        0.1650
     12  O          8.6270   -3.7280    0.0350 O.2     1  UNL1       -0.4540
     13  O          8.6380   -3.9740   -2.1500 O.2     1  UNL1       -0.4540
     14  C          8.9510   -4.6620   -0.9630 C.3     1  UNL1        0.4680
@<TRIPOS>BOND
     1     9     7    1
     2     9    11    2
     3    13    11    1
     4    13    14    1
     5     7     6    2
     6    11    10    1
     7    14    12    1
     8     6     5    1
     9     6     8    1
    10    10     8    2
    11    10    12    1
    12     5     1    1
    13     3     2    1
    14     1     2    1
    15     2     4    2
