@<TRIPOS>MOLECULE
/home/cewinharhar/GITHUB/reincatalyze/data/processed/docking_pred/2023-May-22-2206_sub9_nm5_bs15_s42_ex16_mel10_mts10000_k50_ec02_g099_lra9e-4_lrc1e-3/ebaba25497d2d3047300f44322ccacaaeed3cb61_ligand_9.pdbqt
 14 15 0 0 0
SMALL
GASTEIGER

@<TRIPOS>ATOM
      1  C          5.5580    1.8500    1.3160 C.3     1  UNL1        0.0800
      2  C          5.1020    0.6320    2.0410 C.2     1  UNL1        0.1300
      3  C          5.9780   -0.5610    2.1910 C.3     1  UNL1        0.0870
      4  O          3.9880    0.5770    2.5360 O.2     1  UNL1       -0.3000
      5  C          5.4160    1.6840   -0.1840 C.3     1  UNL1        0.0430
      6  C          6.5800    0.9960   -0.7700 C.2     1  UNL1       -0.0440
      7  C          7.8860    1.4500   -0.5540 C.2     1  UNL1        0.0080
      8  C          6.3910   -0.1240   -1.5480 C.2     1  UNL1        0.0540
      9  C          8.9400    0.7640   -1.1290 C.2     1  UNL1        0.0510
     10  C          7.4600   -0.8150   -2.1270 C.2     1  UNL1        0.1660
     11  C          8.7450   -0.3670   -1.9150 C.2     1  UNL1        0.1650
     12  O          7.5310   -1.9350   -2.9280 O.2     1  UNL1       -0.4540
     13  O          9.5870   -1.2310   -2.5970 O.2     1  UNL1       -0.4540
     14  C          8.8660   -2.2920   -3.1780 C.3     1  UNL1        0.4680
@<TRIPOS>BOND
     1    14    12    1
     2    14    13    1
     3    12    10    1
     4    13    11    1
     5    10    11    2
     6    10     8    1
     7    11     9    1
     8     8     6    2
     9     9     7    2
    10     6     7    1
    11     6     5    1
    12     5     1    1
    13     1     2    1
    14     2     3    1
    15     2     4    2
