@<TRIPOS>MOLECULE
/home/cewinharhar/GITHUB/reincatalyze/data/processed/docking_pred/2023-May-22-2206_sub9_nm5_bs15_s42_ex16_mel10_mts10000_k50_ec02_g099_lra9e-4_lrc1e-3/eeadc03eb41629d2f630482e7f417ab6451359e8_ligand_9.pdbqt
 14 15 0 0 0
SMALL
GASTEIGER

@<TRIPOS>ATOM
      1  C          6.7770    0.5870    1.2590 C.3     1  UNL1        0.0800
      2  C          5.3920    1.1100    1.4260 C.2     1  UNL1        0.1300
      3  C          4.8350    2.1490    0.5200 C.3     1  UNL1        0.0870
      4  O          4.6700    0.6970    2.3190 O.2     1  UNL1       -0.3000
      5  C          7.2900    0.8270   -0.1470 C.3     1  UNL1        0.0430
      6  C          7.7190   -0.4270   -0.7930 C.2     1  UNL1       -0.0440
      7  C          7.9130   -0.5090   -2.1760 C.2     1  UNL1        0.0080
      8  C          7.9410   -1.5480   -0.0260 C.2     1  UNL1        0.0540
      9  C          8.3180   -1.7120   -2.7260 C.2     1  UNL1        0.0510
     10  C          8.3500   -2.7610   -0.5870 C.2     1  UNL1        0.1660
     11  C          8.5400   -2.8440   -1.9480 C.2     1  UNL1        0.1650
     12  O          8.6310   -3.9990   -0.0470 O.2     1  UNL1       -0.4540
     13  O          8.9390   -4.1440   -2.2190 O.2     1  UNL1       -0.4540
     14  C          9.0970   -4.8850   -1.0330 C.3     1  UNL1        0.4680
@<TRIPOS>BOND
     1     9     7    1
     2     9    11    2
     3    13    11    1
     4    13    14    1
     5     7     6    2
     6    11    10    1
     7    14    12    1
     8     6     5    1
     9     6     8    1
    10    10    12    1
    11    10     8    2
    12     5     1    1
    13     3     2    1
    14     1     2    1
    15     2     4    2
