@<TRIPOS>MOLECULE
/home/cewinharhar/GITHUB/reincatalyze/data/processed/docking_pred/2023-May-22-2206_sub9_nm5_bs15_s42_ex16_mel10_mts10000_k50_ec02_g099_lra9e-4_lrc1e-3/f1acaff2cf7a86b9bbc999bfeecc6491fc2a0881_ligand_9.pdbqt
 14 15 0 0 0
SMALL
GASTEIGER

@<TRIPOS>ATOM
      1  C          5.5200    1.9180    1.2660 C.3     1  UNL1        0.0800
      2  C          5.0660    0.7040    2.0000 C.2     1  UNL1        0.1300
      3  C          5.9420   -0.4880    2.1560 C.3     1  UNL1        0.0870
      4  O          3.9520    0.6520    2.4980 O.2     1  UNL1       -0.3000
      5  C          5.3960    1.7320   -0.2330 C.3     1  UNL1        0.0430
      6  C          6.5640    1.0310   -0.7950 C.2     1  UNL1       -0.0440
      7  C          7.8710    1.4660   -0.5470 C.2     1  UNL1        0.0080
      8  C          6.3770   -0.0820   -1.5830 C.2     1  UNL1        0.0540
      9  C          8.9280    0.7670   -1.1000 C.2     1  UNL1        0.0510
     10  C          7.4490   -0.7860   -2.1400 C.2     1  UNL1        0.1660
     11  C          8.7350   -0.3580   -1.8960 C.2     1  UNL1        0.1650
     12  O          7.5240   -1.9030   -2.9440 O.2     1  UNL1       -0.4540
     13  O          9.5810   -1.2300   -2.5630 O.2     1  UNL1       -0.4540
     14  C          8.8590   -2.2780   -3.1650 C.3     1  UNL1        0.4680
@<TRIPOS>BOND
     1    14    12    1
     2    14    13    1
     3    12    10    1
     4    13    11    1
     5    10    11    2
     6    10     8    1
     7    11     9    1
     8     8     6    2
     9     9     7    2
    10     6     7    1
    11     6     5    1
    12     5     1    1
    13     1     2    1
    14     2     3    1
    15     2     4    2
