MODEL 1
REMARK VINA RESULT:      -7.7      0.000      0.000
REMARK SMILES CC(=O)CCc1ccc2c(c1)OCO2
REMARK SMILES IDX 4 1 2 2 1 3 3 4 5 5 6 6 7 7 11 8 8 9 10 10 9 11 12 12 14 13
REMARK SMILES IDX 13 14
REMARK H PARENT
REMARK Flexibility Score: inf
ROOT
ATOM      1  C   UNL     1       5.498   1.931   1.250  1.00  0.00     0.080 C 
ENDROOT
BRANCH   1   2
ATOM      2  C   UNL     1       5.056   0.718   1.993  1.00  0.00     0.130 C 
ATOM      3  C   UNL     1       5.937  -0.471   2.143  1.00  0.00     0.087 C 
ATOM      4  O   UNL     1       3.949   0.665   2.504  1.00  0.00    -0.300 OA
ENDBRANCH   1   2
BRANCH   1   5
ATOM      5  C   UNL     1       5.378   1.732  -0.248  1.00  0.00     0.043 C 
BRANCH   5   6
ATOM      6  C   UNL     1       6.551   1.033  -0.802  1.00  0.00    -0.044 A 
ATOM      7  C   UNL     1       7.856   1.467  -0.539  1.00  0.00     0.008 A 
ATOM      8  C   UNL     1       6.371  -0.077  -1.596  1.00  0.00     0.054 A 
ATOM      9  C   UNL     1       8.918   0.770  -1.085  1.00  0.00     0.051 A 
ATOM     10  C   UNL     1       7.449  -0.779  -2.145  1.00  0.00     0.166 A 
ATOM     11  C   UNL     1       8.732  -0.351  -1.888  1.00  0.00     0.165 A 
ATOM     12  O   UNL     1       7.530  -1.892  -2.954  1.00  0.00    -0.454 OA
ATOM     13  O   UNL     1       9.584  -1.221  -2.550  1.00  0.00    -0.454 OA
ATOM     14  C   UNL     1       8.868  -2.266  -3.164  1.00  0.00     0.468 C 
ENDBRANCH   5   6
ENDBRANCH   1   5
TORSDOF 3
ENDMDL
MODEL 2
REMARK VINA RESULT:      -7.5      1.933      2.401
REMARK SMILES CC(=O)CCc1ccc2c(c1)OCO2
REMARK SMILES IDX 4 1 2 2 1 3 3 4 5 5 6 6 7 7 11 8 8 9 10 10 9 11 12 12 14 13
REMARK SMILES IDX 13 14
REMARK H PARENT
REMARK Flexibility Score: inf
ROOT
ATOM      1  C   UNL     1       5.737   1.281  -0.305  1.00  0.00     0.080 C 
ENDROOT
BRANCH   1   2
ATOM      2  C   UNL     1       5.164   1.240   1.069  1.00  0.00     0.130 C 
ATOM      3  C   UNL     1       5.424   0.101   1.990  1.00  0.00     0.087 C 
ATOM      4  O   UNL     1       4.460   2.148   1.481  1.00  0.00    -0.300 OA
ENDBRANCH   1   2
BRANCH   1   5
ATOM      5  C   UNL     1       7.239   1.077  -0.282  1.00  0.00     0.043 C 
BRANCH   5   6
ATOM      6  C   UNL     1       7.625  -0.212  -0.882  1.00  0.00    -0.044 A 
ATOM      7  C   UNL     1       7.743  -0.369  -2.268  1.00  0.00     0.008 A 
ATOM      8  C   UNL     1       7.882  -1.293  -0.071  1.00  0.00     0.054 A 
ATOM      9  C   UNL     1       8.109  -1.602  -2.775  1.00  0.00     0.051 A 
ATOM     10  C   UNL     1       8.253  -2.538  -0.588  1.00  0.00     0.166 A 
ATOM     11  C   UNL     1       8.367  -2.694  -1.952  1.00  0.00     0.165 A 
ATOM     12  O   UNL     1       8.556  -3.748  -0.000  1.00  0.00    -0.454 OA
ATOM     13  O   UNL     1       8.743  -4.009  -2.175  1.00  0.00    -0.454 OA
ATOM     14  C   UNL     1       8.962  -4.688  -0.961  1.00  0.00     0.468 C 
ENDBRANCH   5   6
ENDBRANCH   1   5
TORSDOF 3
ENDMDL
MODEL 3
REMARK VINA RESULT:      -7.2      2.101      2.636
REMARK SMILES CC(=O)CCc1ccc2c(c1)OCO2
REMARK SMILES IDX 4 1 2 2 1 3 3 4 5 5 6 6 7 7 11 8 8 9 10 10 9 11 12 12 14 13
REMARK SMILES IDX 13 14
REMARK H PARENT
REMARK Flexibility Score: inf
ROOT
ATOM      1  C   UNL     1       5.568   0.001   1.867  1.00  0.00     0.080 C 
ENDROOT
BRANCH   1   2
ATOM      2  C   UNL     1       4.679   1.161   1.582  1.00  0.00     0.130 C 
ATOM      3  C   UNL     1       4.962   2.107   0.470  1.00  0.00     0.087 C 
ATOM      4  O   UNL     1       3.686   1.370   2.260  1.00  0.00    -0.300 OA
ENDBRANCH   1   2
BRANCH   1   5
ATOM      5  C   UNL     1       6.981   0.257   1.379  1.00  0.00     0.043 C 
BRANCH   5   6
ATOM      6  C   UNL     1       7.390  -0.721   0.355  1.00  0.00    -0.044 A 
ATOM      7  C   UNL     1       7.290  -0.437  -1.012  1.00  0.00     0.008 A 
ATOM      8  C   UNL     1       7.887  -1.945   0.741  1.00  0.00     0.054 A 
ATOM      9  C   UNL     1       7.691  -1.393  -1.927  1.00  0.00     0.051 A 
ATOM     10  C   UNL     1       8.292  -2.908  -0.188  1.00  0.00     0.166 A 
ATOM     11  C   UNL     1       8.193  -2.630  -1.533  1.00  0.00     0.165 A 
ATOM     12  O   UNL     1       8.810  -4.179  -0.059  1.00  0.00    -0.454 OA
ATOM     13  O   UNL     1       8.658  -3.747  -2.209  1.00  0.00    -0.454 OA
ATOM     14  C   UNL     1       9.144  -4.718  -1.313  1.00  0.00     0.468 C 
ENDBRANCH   5   6
ENDBRANCH   1   5
TORSDOF 3
ENDMDL
MODEL 4
REMARK VINA RESULT:      -7.1      1.258      1.471
REMARK SMILES CC(=O)CCc1ccc2c(c1)OCO2
REMARK SMILES IDX 4 1 2 2 1 3 3 4 5 5 6 6 7 7 11 8 8 9 10 10 9 11 12 12 14 13
REMARK SMILES IDX 13 14
REMARK H PARENT
REMARK Flexibility Score: inf
ROOT
ATOM      1  C   UNL     1       6.377   1.227   0.920  1.00  0.00     0.080 C 
ENDROOT
BRANCH   1   2
ATOM      2  C   UNL     1       5.653   0.406   1.930  1.00  0.00     0.130 C 
ATOM      3  C   UNL     1       6.264  -0.811   2.529  1.00  0.00     0.087 C 
ATOM      4  O   UNL     1       4.530   0.711   2.297  1.00  0.00    -0.300 OA
ENDBRANCH   1   2
BRANCH   1   5
ATOM      5  C   UNL     1       5.871   0.947  -0.482  1.00  0.00     0.043 C 
BRANCH   5   6
ATOM      6  C   UNL     1       6.818   0.118  -1.248  1.00  0.00    -0.044 A 
ATOM      7  C   UNL     1       7.503   0.624  -2.359  1.00  0.00     0.008 A 
ATOM      8  C   UNL     1       7.044  -1.186  -0.870  1.00  0.00     0.054 A 
ATOM      9  C   UNL     1       8.381  -0.201  -3.039  1.00  0.00     0.051 A 
ATOM     10  C   UNL     1       7.933  -2.016  -1.561  1.00  0.00     0.166 A 
ATOM     11  C   UNL     1       8.606  -1.519  -2.655  1.00  0.00     0.165 A 
ATOM     12  O   UNL     1       8.323  -3.327  -1.387  1.00  0.00    -0.454 OA
ATOM     13  O   UNL     1       9.405  -2.545  -3.134  1.00  0.00    -0.454 OA
ATOM     14  C   UNL     1       9.325  -3.681  -2.306  1.00  0.00     0.468 C 
ENDBRANCH   5   6
ENDBRANCH   1   5
TORSDOF 3
ENDMDL
MODEL 5
REMARK VINA RESULT:      -7.0      1.965      2.570
REMARK SMILES CC(=O)CCc1ccc2c(c1)OCO2
REMARK SMILES IDX 4 1 2 2 1 3 3 4 5 5 6 6 7 7 11 8 8 9 10 10 9 11 12 12 14 13
REMARK SMILES IDX 13 14
REMARK H PARENT
REMARK Flexibility Score: inf
ROOT
ATOM      1  C   UNL     1       6.830   0.700   1.066  1.00  0.00     0.080 C 
ENDROOT
BRANCH   1   2
ATOM      2  C   UNL     1       5.435   1.082   1.421  1.00  0.00     0.130 C 
ATOM      3  C   UNL     1       4.707   2.150   0.685  1.00  0.00     0.087 C 
ATOM      4  O   UNL     1       4.846   0.527   2.334  1.00  0.00    -0.300 OA
ENDBRANCH   1   2
BRANCH   1   5
ATOM      5  C   UNL     1       7.073   0.824  -0.425  1.00  0.00     0.043 C 
BRANCH   5   6
ATOM      6  C   UNL     1       7.578  -0.434  -1.003  1.00  0.00    -0.044 A 
ATOM      7  C   UNL     1       7.855  -0.553  -2.370  1.00  0.00     0.008 A 
ATOM      8  C   UNL     1       7.788  -1.523  -0.189  1.00  0.00     0.054 A 
ATOM      9  C   UNL     1       8.328  -1.758  -2.857  1.00  0.00     0.051 A 
ATOM     10  C   UNL     1       8.267  -2.739  -0.686  1.00  0.00     0.166 A 
ATOM     11  C   UNL     1       8.538  -2.858  -2.030  1.00  0.00     0.165 A 
ATOM     12  O   UNL     1       8.553  -3.950  -0.091  1.00  0.00    -0.454 OA
ATOM     13  O   UNL     1       8.992  -4.151  -2.235  1.00  0.00    -0.454 OA
ATOM     14  C   UNL     1       9.103  -4.850  -1.018  1.00  0.00     0.468 C 
ENDBRANCH   5   6
ENDBRANCH   1   5
TORSDOF 3
ENDMDL
