@<TRIPOS>MOLECULE
/home/cewinharhar/GITHUB/reincatalyze/data/processed/docking_pred/2023-May-22-2206_sub9_nm5_bs15_s42_ex16_mel10_mts10000_k50_ec02_g099_lra9e-4_lrc1e-3/f32d20faebe3d2be17d1bcf3c85c7c889e58fe23_ligand_9.pdbqt
 14 15 0 0 0
SMALL
GASTEIGER

@<TRIPOS>ATOM
      1  C          8.3360    0.2110   -2.6260 C.3     1  UNL1        0.0800
      2  C          8.0450   -1.2450   -2.7360 C.2     1  UNL1        0.1300
      3  C          9.1140   -2.2350   -3.0330 C.3     1  UNL1        0.0870
      4  O          6.9110   -1.6710   -2.5840 O.2     1  UNL1       -0.3000
      5  C          8.8470    0.5680   -1.2440 C.3     1  UNL1        0.0430
      6  C          7.7950    0.4310   -0.2210 C.2     1  UNL1       -0.0440
      7  C          7.8710   -0.5430    0.7810 C.2     1  UNL1        0.0080
      8  C          6.7100    1.2770   -0.2400 C.2     1  UNL1        0.0540
      9  C          6.8540   -0.6240    1.7160 C.2     1  UNL1        0.0510
     10  C          5.6860    1.1920    0.7080 C.2     1  UNL1        0.1660
     11  C          5.7580    0.2320    1.6930 C.2     1  UNL1        0.1650
     12  O          4.5210    1.9040    0.8990 O.2     1  UNL1       -0.4540
     13  O          4.6260    0.3780    2.4790 O.2     1  UNL1       -0.4540
     14  C          3.8590    1.4840    2.0650 C.3     1  UNL1        0.4680
@<TRIPOS>BOND
     1     3     2    1
     2     2     1    1
     3     2     4    2
     4     1     5    1
     5     5     6    1
     6     8     6    2
     7     8    10    1
     8     6     7    1
     9    10    12    1
    10    10    11    2
    11     7     9    2
    12    12    14    1
    13    11     9    1
    14    11    13    1
    15    14    13    1
