@<TRIPOS>MOLECULE
/home/cewinharhar/GITHUB/reincatalyze/data/processed/docking_pred/2023-May-22-2206_sub9_nm5_bs15_s42_ex16_mel10_mts10000_k50_ec02_g099_lra9e-4_lrc1e-3/f338baa35ded8d3cb3d8a5b9e0cebf8a24c11f6d_ligand_9.pdbqt
 14 15 0 0 0
SMALL
GASTEIGER

@<TRIPOS>ATOM
      1  C          5.5400    1.9140    1.2640 C.3     1  UNL1        0.0800
      2  C          5.1010    0.6970    2.0020 C.2     1  UNL1        0.1300
      3  C          6.0010   -0.4740    2.1800 C.3     1  UNL1        0.0870
      4  O          3.9830    0.6260    2.4850 O.2     1  UNL1       -0.3000
      5  C          5.4120    1.7260   -0.2340 C.3     1  UNL1        0.0430
      6  C          6.5780    1.0210   -0.7970 C.2     1  UNL1       -0.0440
      7  C          7.8860    1.4510   -0.5450 C.2     1  UNL1        0.0080
      8  C          6.3880   -0.0880   -1.5890 C.2     1  UNL1        0.0540
      9  C          8.9410    0.7500   -1.1000 C.2     1  UNL1        0.0510
     10  C          7.4580   -0.7940   -2.1470 C.2     1  UNL1        0.1660
     11  C          8.7450   -0.3710   -1.9010 C.2     1  UNL1        0.1650
     12  O          7.5290   -1.9080   -2.9560 O.2     1  UNL1       -0.4540
     13  O          9.5890   -1.2450   -2.5690 O.2     1  UNL1       -0.4540
     14  C          8.8630   -2.2870   -3.1760 C.3     1  UNL1        0.4680
@<TRIPOS>BOND
     1    14    12    1
     2    14    13    1
     3    12    10    1
     4    13    11    1
     5    10    11    2
     6    10     8    1
     7    11     9    1
     8     8     6    2
     9     9     7    2
    10     6     7    1
    11     6     5    1
    12     5     1    1
    13     1     2    1
    14     2     3    1
    15     2     4    2
