@<TRIPOS>MOLECULE
/home/cewinharhar/GITHUB/reincatalyze/data/processed/docking_pred/2023-May-22-2206_sub9_nm5_bs15_s42_ex16_mel10_mts10000_k50_ec02_g099_lra9e-4_lrc1e-3/f411d25023d78b520541a26d40866fe70d26d332_ligand_9.pdbqt
 14 15 0 0 0
SMALL
GASTEIGER

@<TRIPOS>ATOM
      1  C          8.2780    0.1780   -2.7300 C.3     1  UNL1        0.0800
      2  C          8.0360   -1.2900   -2.7920 C.2     1  UNL1        0.1300
      3  C          9.1420   -2.2550   -3.0350 C.3     1  UNL1        0.0870
      4  O          6.9140   -1.7470   -2.6440 O.2     1  UNL1       -0.3000
      5  C          8.8180    0.5900   -1.3750 C.3     1  UNL1        0.0430
      6  C          7.8050    0.4460   -0.3150 C.2     1  UNL1       -0.0440
      7  C          7.9370   -0.5070    0.7010 C.2     1  UNL1        0.0080
      8  C          6.6980    1.2650   -0.3140 C.2     1  UNL1        0.0540
      9  C          6.9540   -0.5960    1.6700 C.2     1  UNL1        0.0510
     10  C          5.7070    1.1710    0.6680 C.2     1  UNL1        0.1660
     11  C          5.8360    0.2330    1.6680 C.2     1  UNL1        0.1650
     12  O          4.5320    1.8580    0.8850 O.2     1  UNL1       -0.4540
     13  O          4.7260    0.3650    2.4870 O.2     1  UNL1       -0.4540
     14  C          3.9190    1.4440    2.0800 C.3     1  UNL1        0.4680
@<TRIPOS>BOND
     1     3     2    1
     2     2     1    1
     3     2     4    2
     4     1     5    1
     5     5     6    1
     6     6     8    2
     7     6     7    1
     8     8    10    1
     9    10    12    1
    10    10    11    2
    11     7     9    2
    12    12    14    1
    13    11     9    1
    14    11    13    1
    15    14    13    1
