@<TRIPOS>MOLECULE
/home/cewinharhar/GITHUB/reincatalyze/data/processed/docking_pred/2023-May-22-2206_sub9_nm5_bs15_s42_ex16_mel10_mts10000_k50_ec02_g099_lra9e-4_lrc1e-3/f411d25023d78b520541a26d40866fe70d26d332_ligand_9.pdbqt
 14 15 0 0 0
SMALL
GASTEIGER

@<TRIPOS>ATOM
      1  C          6.3950    1.1960    0.9440 C.3     1  UNL1        0.0800
      2  C          5.6490    0.3710    1.9350 C.2     1  UNL1        0.1300
      3  C          6.2380   -0.8590    2.5280 C.3     1  UNL1        0.0870
      4  O          4.5240    0.6840    2.2900 O.2     1  UNL1       -0.3000
      5  C          5.8980    0.9460   -0.4660 C.3     1  UNL1        0.0430
      6  C          6.8360    0.1090   -1.2360 C.2     1  UNL1       -0.0440
      7  C          7.5150    0.6070   -2.3540 C.2     1  UNL1        0.0080
      8  C          7.0580   -1.1940   -0.8530 C.2     1  UNL1        0.0540
      9  C          8.3830   -0.2250   -3.0370 C.2     1  UNL1        0.0510
     10  C          7.9370   -2.0310   -1.5470 C.2     1  UNL1        0.1660
     11  C          8.6050   -1.5430   -2.6480 C.2     1  UNL1        0.1650
     12  O          8.3220   -3.3430   -1.3700 O.2     1  UNL1       -0.4540
     13  O          9.3950   -2.5750   -3.1280 O.2     1  UNL1       -0.4540
     14  C          9.3160   -3.7060   -2.2940 C.3     1  UNL1        0.4680
@<TRIPOS>BOND
     1    13    11    1
     2    13    14    1
     3     9    11    2
     4     9     7    1
     5    11    10    1
     6     7     6    2
     7    14    12    1
     8    10    12    1
     9    10     8    2
    10     6     8    1
    11     6     5    1
    12     5     1    1
    13     1     2    1
    14     2     4    2
    15     2     3    1
