@<TRIPOS>MOLECULE
/home/cewinharhar/GITHUB/reincatalyze/data/processed/docking_pred/2023-May-22-2206_sub9_nm5_bs15_s42_ex16_mel10_mts10000_k50_ec02_g099_lra9e-4_lrc1e-3/f411d25023d78b520541a26d40866fe70d26d332_ligand_9.pdbqt
 14 15 0 0 0
SMALL
GASTEIGER

@<TRIPOS>ATOM
      1  C          5.8080    1.5130   -0.2990 C.3     1  UNL1        0.0800
      2  C          5.1200    1.3580    1.0130 C.2     1  UNL1        0.1300
      3  C          5.4450    0.2390    1.9370 C.3     1  UNL1        0.0870
      4  O          4.2620    2.1500    1.3690 O.2     1  UNL1       -0.3000
      5  C          7.2870    1.2030   -0.1850 C.3     1  UNL1        0.0430
      6  C          7.6280   -0.0780   -0.8290 C.2     1  UNL1       -0.0440
      7  C          7.6470   -0.2170   -2.2210 C.2     1  UNL1        0.0080
      8  C          7.9400   -1.1710   -0.0510 C.2     1  UNL1        0.0540
      9  C          7.9760   -1.4430   -2.7690 C.2     1  UNL1        0.0510
     10  C          8.2720   -2.4080   -0.6100 C.2     1  UNL1        0.1660
     11  C          8.2890   -2.5460   -1.9800 C.2     1  UNL1        0.1650
     12  O          8.6140   -3.6260   -0.0610 O.2     1  UNL1       -0.4540
     13  O          8.6470   -3.8580   -2.2470 O.2     1  UNL1       -0.4540
     14  C          8.9490   -4.5540   -1.0610 C.3     1  UNL1        0.4680
@<TRIPOS>BOND
     1     9     7    1
     2     9    11    2
     3    13    11    1
     4    13    14    1
     5     7     6    2
     6    11    10    1
     7    14    12    1
     8     6     5    1
     9     6     8    1
    10    10    12    1
    11    10     8    2
    12     1     5    1
    13     1     2    1
    14     2     4    2
    15     2     3    1
