@<TRIPOS>MOLECULE
/home/cewinharhar/GITHUB/reincatalyze/data/processed/docking_pred/2023-May-22-2206_sub9_nm5_bs15_s42_ex16_mel10_mts10000_k50_ec02_g099_lra9e-4_lrc1e-3/f411d25023d78b520541a26d40866fe70d26d332_ligand_9.pdbqt
 14 15 0 0 0
SMALL
GASTEIGER

@<TRIPOS>ATOM
      1  C          5.6000    0.0480    1.9870 C.3     1  UNL1        0.0800
      2  C          4.6800    1.1750    1.6640 C.2     1  UNL1        0.1300
      3  C          4.9850    2.1450    0.5790 C.3     1  UNL1        0.0870
      4  O          3.6430    1.3350    2.2870 O.2     1  UNL1       -0.3000
      5  C          6.9980    0.3120    1.4640 C.3     1  UNL1        0.0430
      6  C          7.3890   -0.6660    0.4330 C.2     1  UNL1       -0.0440
      7  C          7.2750   -0.3780   -0.9310 C.2     1  UNL1        0.0080
      8  C          7.8820   -1.8940    0.8110 C.2     1  UNL1        0.0540
      9  C          7.6590   -1.3340   -1.8540 C.2     1  UNL1        0.0510
     10  C          8.2690   -2.8580   -0.1250 C.2     1  UNL1        0.1660
     11  C          8.1560   -2.5750   -1.4690 C.2     1  UNL1        0.1650
     12  O          8.7800   -4.1330   -0.0050 O.2     1  UNL1       -0.4540
     13  O          8.6060   -3.6940   -2.1520 O.2     1  UNL1       -0.4540
     14  C          9.0960   -4.6700   -1.2640 C.3     1  UNL1        0.4680
@<TRIPOS>BOND
     1    13    11    1
     2    13    14    1
     3     9    11    2
     4     9     7    1
     5    11    10    1
     6    14    12    1
     7     7     6    2
     8    10    12    1
     9    10     8    2
    10     6     8    1
    11     6     5    1
    12     3     2    1
    13     5     1    1
    14     2     1    1
    15     2     4    2
