@<TRIPOS>MOLECULE
/home/cewinharhar/GITHUB/reincatalyze/data/processed/docking_pred/2023-May-22-2206_sub9_nm5_bs15_s42_ex16_mel10_mts10000_k50_ec02_g099_lra9e-4_lrc1e-3/f43d8cd6194682d8f3e5600fbc578d0750565092_ligand_9.pdbqt
 14 15 0 0 0
SMALL
GASTEIGER

@<TRIPOS>ATOM
      1  C          5.5510    1.9110    1.2770 C.3     1  UNL1        0.0800
      2  C          5.1240    0.6900    2.0150 C.2     1  UNL1        0.1300
      3  C          6.0310   -0.4760    2.1860 C.3     1  UNL1        0.0870
      4  O          4.0080    0.6100    2.5020 O.2     1  UNL1       -0.3000
      5  C          5.4190    1.7240   -0.2210 C.3     1  UNL1        0.0430
      6  C          6.5830    1.0210   -0.7890 C.2     1  UNL1       -0.0440
      7  C          7.8920    1.4480   -0.5360 C.2     1  UNL1        0.0080
      8  C          6.3910   -0.0850   -1.5850 C.2     1  UNL1        0.0540
      9  C          8.9460    0.7480   -1.0950 C.2     1  UNL1        0.0510
     10  C          7.4600   -0.7890   -2.1480 C.2     1  UNL1        0.1660
     11  C          8.7480   -0.3690   -1.9000 C.2     1  UNL1        0.1650
     12  O          7.5290   -1.9000   -2.9610 O.2     1  UNL1       -0.4540
     13  O          9.5900   -1.2400   -2.5740 O.2     1  UNL1       -0.4540
     14  C          8.8620   -2.2790   -3.1850 C.3     1  UNL1        0.4680
@<TRIPOS>BOND
     1    14    12    1
     2    14    13    1
     3    12    10    1
     4    13    11    1
     5    10    11    2
     6    10     8    1
     7    11     9    1
     8     8     6    2
     9     9     7    2
    10     6     7    1
    11     6     5    1
    12     5     1    1
    13     1     2    1
    14     2     3    1
    15     2     4    2
