@<TRIPOS>MOLECULE
/home/cewinharhar/GITHUB/reincatalyze/data/processed/docking_pred/2023-May-22-2206_sub9_nm5_bs15_s42_ex16_mel10_mts10000_k50_ec02_g099_lra9e-4_lrc1e-3/f43d8cd6194682d8f3e5600fbc578d0750565092_ligand_9.pdbqt
 14 15 0 0 0
SMALL
GASTEIGER

@<TRIPOS>ATOM
      1  C          6.3690    1.1850    0.9210 C.3     1  UNL1        0.0800
      2  C          5.6520    0.3710    1.9410 C.2     1  UNL1        0.1300
      3  C          6.2500   -0.8630    2.5170 C.3     1  UNL1        0.0870
      4  O          4.5430    0.6950    2.3350 O.2     1  UNL1       -0.3000
      5  C          5.8560    0.8960   -0.4760 C.3     1  UNL1        0.0430
      6  C          6.8110    0.0840   -1.2510 C.2     1  UNL1       -0.0440
      7  C          7.5000    0.6130   -2.3490 C.2     1  UNL1        0.0080
      8  C          7.0400   -1.2250   -0.8950 C.2     1  UNL1        0.0540
      9  C          8.3840   -0.1960   -3.0390 C.2     1  UNL1        0.0510
     10  C          7.9360   -2.0390   -1.5950 C.2     1  UNL1        0.1660
     11  C          8.6130   -1.5200   -2.6760 C.2     1  UNL1        0.1650
     12  O          8.3300   -3.3510   -1.4420 O.2     1  UNL1       -0.4540
     13  O          9.4190   -2.5350   -3.1690 O.2     1  UNL1       -0.4540
     14  C          9.3390   -3.6850   -2.3610 C.3     1  UNL1        0.4680
@<TRIPOS>BOND
     1    13    11    1
     2    13    14    1
     3     9    11    2
     4     9     7    1
     5    11    10    1
     6    14    12    1
     7     7     6    2
     8    10    12    1
     9    10     8    2
    10     6     8    1
    11     6     5    1
    12     5     1    1
    13     1     2    1
    14     2     4    2
    15     2     3    1
