@<TRIPOS>MOLECULE
/home/cewinharhar/GITHUB/reincatalyze/data/processed/docking_pred/2023-May-22-2206_sub9_nm5_bs15_s42_ex16_mel10_mts10000_k50_ec02_g099_lra9e-4_lrc1e-3/f43d8cd6194682d8f3e5600fbc578d0750565092_ligand_9.pdbqt
 14 15 0 0 0
SMALL
GASTEIGER

@<TRIPOS>ATOM
      1  C          5.3480   -0.0670    1.9820 C.3     1  UNL1        0.0800
      2  C          4.4590    1.1140    1.7970 C.2     1  UNL1        0.1300
      3  C          4.7420    2.1500    0.7670 C.3     1  UNL1        0.0870
      4  O          3.4670    1.2670    2.4910 O.2     1  UNL1       -0.3000
      5  C          6.8100    0.3270    1.9100 C.3     1  UNL1        0.0430
      6  C          7.4100   -0.0340    0.6130 C.2     1  UNL1       -0.0440
      7  C          7.9080    0.9390   -0.2600 C.2     1  UNL1        0.0080
      8  C          7.4900   -1.3580    0.2440 C.2     1  UNL1        0.0540
      9  C          8.4610    0.5410   -1.4640 C.2     1  UNL1        0.0510
     10  C          8.0500   -1.7550   -0.9740 C.2     1  UNL1        0.1660
     11  C          8.5390   -0.7980   -1.8350 C.2     1  UNL1        0.1650
     12  O          8.2420   -2.9870   -1.5620 O.2     1  UNL1       -0.4540
     13  O          9.0280   -1.4690   -2.9450 O.2     1  UNL1       -0.4540
     14  C          8.9420   -2.8640   -2.7740 C.3     1  UNL1        0.4680
@<TRIPOS>BOND
     1    13    14    1
     2    13    11    1
     3    14    12    1
     4    11     9    2
     5    11    10    1
     6    12    10    1
     7     9     7    1
     8    10     8    2
     9     7     6    2
    10     8     6    1
    11     6     5    1
    12     3     2    1
    13     2     1    1
    14     2     4    2
    15     5     1    1
