@<TRIPOS>MOLECULE
/home/cewinharhar/GITHUB/reincatalyze/data/processed/docking_pred/2023-May-22-2206_sub9_nm5_bs15_s42_ex16_mel10_mts10000_k50_ec02_g099_lra9e-4_lrc1e-3/f56adf6440abdf94ed5aca5eaefea0329b307251_ligand_9.pdbqt
 14 15 0 0 0
SMALL
GASTEIGER

@<TRIPOS>ATOM
      1  C          5.7840    1.4960   -0.3260 C.3     1  UNL1        0.0800
      2  C          5.0800    1.3360    0.9760 C.2     1  UNL1        0.1300
      3  C          5.3580    0.1860    1.8780 C.3     1  UNL1        0.0870
      4  O          4.2470    2.1490    1.3430 O.2     1  UNL1       -0.3000
      5  C          7.2620    1.1870   -0.1940 C.3     1  UNL1        0.0430
      6  C          7.6100   -0.0980   -0.8280 C.2     1  UNL1       -0.0440
      7  C          7.6330   -0.2470   -2.2190 C.2     1  UNL1        0.0080
      8  C          7.9240   -1.1830   -0.0410 C.2     1  UNL1        0.0540
      9  C          7.9680   -1.4760   -2.7570 C.2     1  UNL1        0.0510
     10  C          8.2630   -2.4230   -0.5900 C.2     1  UNL1        0.1660
     11  C          8.2850   -2.5710   -1.9590 C.2     1  UNL1        0.1650
     12  O          8.6080   -3.6350   -0.0300 O.2     1  UNL1       -0.4540
     13  O          8.6480   -3.8840   -2.2140 O.2     1  UNL1       -0.4540
     14  C          8.9500   -4.5690   -1.0220 C.3     1  UNL1        0.4680
@<TRIPOS>BOND
     1     9     7    1
     2     9    11    2
     3     7     6    2
     4    13    11    1
     5    13    14    1
     6    11    10    1
     7    14    12    1
     8     6     5    1
     9     6     8    1
    10    10     8    2
    11    10    12    1
    12     1     5    1
    13     1     2    1
    14     2     4    2
    15     2     3    1
