@<TRIPOS>MOLECULE
/home/cewinharhar/GITHUB/reincatalyze/data/processed/docking_pred/2023-May-22-2206_sub9_nm5_bs15_s42_ex16_mel10_mts10000_k50_ec02_g099_lra9e-4_lrc1e-3/f5d21a1fca5b46740ede221944c3c0743e15dd7f_ligand_9.pdbqt
 14 15 0 0 0
SMALL
GASTEIGER

@<TRIPOS>ATOM
      1  C          5.7170    1.2490   -0.2900 C.3     1  UNL1        0.0800
      2  C          5.1560    1.2270    1.0900 C.2     1  UNL1        0.1300
      3  C          5.4030    0.0890    2.0150 C.3     1  UNL1        0.0870
      4  O          4.4720    2.1500    1.5030 O.2     1  UNL1       -0.3000
      5  C          7.2200    1.0530   -0.2760 C.3     1  UNL1        0.0430
      6  C          7.6100   -0.2310   -0.8850 C.2     1  UNL1       -0.0440
      7  C          7.7150   -0.3820   -2.2730 C.2     1  UNL1        0.0080
      8  C          7.8810   -1.3140   -0.0800 C.2     1  UNL1        0.0540
      9  C          8.0850   -1.6110   -2.7880 C.2     1  UNL1        0.0510
     10  C          8.2560   -2.5540   -0.6060 C.2     1  UNL1        0.1660
     11  C          8.3590   -2.7040   -1.9710 C.2     1  UNL1        0.1650
     12  O          8.5730   -3.7640   -0.0250 O.2     1  UNL1       -0.4540
     13  O          8.7410   -4.0160   -2.2030 O.2     1  UNL1       -0.4540
     14  C          8.9760   -4.6980   -0.9940 C.3     1  UNL1        0.4680
@<TRIPOS>BOND
     1     9     7    1
     2     9    11    2
     3     7     6    2
     4    13    11    1
     5    13    14    1
     6    11    10    1
     7    14    12    1
     8     6     5    1
     9     6     8    1
    10    10     8    2
    11    10    12    1
    12     1     5    1
    13     1     2    1
    14     2     4    2
    15     2     3    1
