@<TRIPOS>MOLECULE
/home/cewinharhar/GITHUB/reincatalyze/data/processed/docking_pred/2023-May-22-2206_sub9_nm5_bs15_s42_ex16_mel10_mts10000_k50_ec02_g099_lra9e-4_lrc1e-3/f5d21a1fca5b46740ede221944c3c0743e15dd7f_ligand_9.pdbqt
 14 15 0 0 0
SMALL
GASTEIGER

@<TRIPOS>ATOM
      1  C          5.5490    1.9190    1.2850 C.3     1  UNL1        0.0800
      2  C          5.1300    0.6910    2.0160 C.2     1  UNL1        0.1300
      3  C          6.0490   -0.4650    2.1920 C.3     1  UNL1        0.0870
      4  O          4.0110    0.5980    2.4950 O.2     1  UNL1       -0.3000
      5  C          5.4190    1.7390   -0.2150 C.3     1  UNL1        0.0430
      6  C          6.5800    1.0320   -0.7830 C.2     1  UNL1       -0.0440
      7  C          7.8910    1.4550   -0.5330 C.2     1  UNL1        0.0080
      8  C          6.3840   -0.0740   -1.5790 C.2     1  UNL1        0.0540
      9  C          8.9420    0.7520   -1.0930 C.2     1  UNL1        0.0510
     10  C          7.4500   -0.7820   -2.1420 C.2     1  UNL1        0.1660
     11  C          8.7390   -0.3650   -1.8970 C.2     1  UNL1        0.1650
     12  O          7.5140   -1.8940   -2.9540 O.2     1  UNL1       -0.4540
     13  O          9.5780   -1.2400   -2.5700 O.2     1  UNL1       -0.4540
     14  C          8.8470   -2.2770   -3.1790 C.3     1  UNL1        0.4680
@<TRIPOS>BOND
     1    14    12    1
     2    14    13    1
     3    12    10    1
     4    13    11    1
     5    10    11    2
     6    10     8    1
     7    11     9    1
     8     8     6    2
     9     9     7    2
    10     6     7    1
    11     6     5    1
    12     5     1    1
    13     1     2    1
    14     2     3    1
    15     2     4    2
