@<TRIPOS>MOLECULE
/home/cewinharhar/GITHUB/reincatalyze/data/processed/docking_pred/2023-May-22-2206_sub9_nm5_bs15_s42_ex16_mel10_mts10000_k50_ec02_g099_lra9e-4_lrc1e-3/f5fb071253116e33fb6a6057d91faa3d89d34546_ligand_9.pdbqt
 14 15 0 0 0
SMALL
GASTEIGER

@<TRIPOS>ATOM
      1  C          6.3900    1.2190    0.9260 C.3     1  UNL1        0.0800
      2  C          5.6760    0.3780    1.9260 C.2     1  UNL1        0.1300
      3  C          6.2990   -0.8410    2.5090 C.3     1  UNL1        0.0870
      4  O          4.5500    0.6670    2.2990 O.2     1  UNL1       -0.3000
      5  C          5.8870    0.9500   -0.4790 C.3     1  UNL1        0.0430
      6  C          6.8310    0.1170   -1.2460 C.2     1  UNL1       -0.0440
      7  C          7.5260    0.6250   -2.3500 C.2     1  UNL1        0.0080
      8  C          7.0430   -1.1910   -0.8770 C.2     1  UNL1        0.0540
      9  C          8.3990   -0.2020   -3.0320 C.2     1  UNL1        0.0510
     10  C          7.9270   -2.0240   -1.5690 C.2     1  UNL1        0.1660
     11  C          8.6110   -1.5250   -2.6560 C.2     1  UNL1        0.1650
     12  O          8.3050   -3.3390   -1.4030 O.2     1  UNL1       -0.4540
     13  O          9.4030   -2.5550   -3.1380 O.2     1  UNL1       -0.4540
     14  C          9.3080   -3.6960   -2.3190 C.3     1  UNL1        0.4680
@<TRIPOS>BOND
     1    13    11    1
     2    13    14    1
     3     9    11    2
     4     9     7    1
     5    11    10    1
     6     7     6    2
     7    14    12    1
     8    10    12    1
     9    10     8    2
    10     6     8    1
    11     6     5    1
    12     5     1    1
    13     1     2    1
    14     2     4    2
    15     2     3    1
