MODEL 1
REMARK VINA RESULT:      -7.6      0.000      0.000
REMARK SMILES CC(=O)CCc1ccc2c(c1)OCO2
REMARK SMILES IDX 4 1 2 2 1 3 3 4 5 5 6 6 7 7 11 8 8 9 10 10 9 11 12 12 14 13
REMARK SMILES IDX 13 14
REMARK H PARENT
REMARK Flexibility Score: inf
ROOT
ATOM      1  C   UNL     1       5.544   1.894   1.293  1.00  0.00     0.080 C 
ENDROOT
BRANCH   1   2
ATOM      2  C   UNL     1       5.097   0.673   2.021  1.00  0.00     0.130 C 
ATOM      3  C   UNL     1       5.988  -0.506   2.190  1.00  0.00     0.087 C 
ATOM      4  O   UNL     1       3.978   0.606   2.504  1.00  0.00    -0.300 OA
ENDBRANCH   1   2
BRANCH   1   5
ATOM      5  C   UNL     1       5.410   1.720  -0.206  1.00  0.00     0.043 C 
BRANCH   5   6
ATOM      6  C   UNL     1       6.575   1.023  -0.782  1.00  0.00    -0.044 A 
ATOM      7  C   UNL     1       7.882   1.461  -0.544  1.00  0.00     0.008 A 
ATOM      8  C   UNL     1       6.383  -0.088  -1.571  1.00  0.00     0.054 A 
ATOM      9  C   UNL     1       8.936   0.766  -1.110  1.00  0.00     0.051 A 
ATOM     10  C   UNL     1       7.451  -0.788  -2.140  1.00  0.00     0.166 A 
ATOM     11  C   UNL     1       8.739  -0.356  -1.908  1.00  0.00     0.165 A 
ATOM     12  O   UNL     1       7.521  -1.902  -2.948  1.00  0.00    -0.454 OA
ATOM     13  O   UNL     1       9.580  -1.225  -2.585  1.00  0.00    -0.454 OA
ATOM     14  C   UNL     1       8.855  -2.273  -3.183  1.00  0.00     0.468 C 
ENDBRANCH   5   6
ENDBRANCH   1   5
TORSDOF 3
ENDMDL
MODEL 2
REMARK VINA RESULT:      -7.4      1.949      2.436
REMARK SMILES CC(=O)CCc1ccc2c(c1)OCO2
REMARK SMILES IDX 4 1 2 2 1 3 3 4 5 5 6 6 7 7 11 8 8 9 10 10 9 11 12 12 14 13
REMARK SMILES IDX 13 14
REMARK H PARENT
REMARK Flexibility Score: inf
ROOT
ATOM      1  C   UNL     1       5.748   1.190  -0.375  1.00  0.00     0.080 C 
ENDROOT
BRANCH   1   2
ATOM      2  C   UNL     1       5.165   1.211   0.995  1.00  0.00     0.130 C 
ATOM      3  C   UNL     1       5.388   0.099   1.956  1.00  0.00     0.087 C 
ATOM      4  O   UNL     1       4.481   2.150   1.370  1.00  0.00    -0.300 OA
ENDBRANCH   1   2
BRANCH   1   5
ATOM      5  C   UNL     1       7.253   1.013  -0.330  1.00  0.00     0.043 C 
BRANCH   5   6
ATOM      6  C   UNL     1       7.671  -0.270  -0.923  1.00  0.00    -0.044 A 
ATOM      7  C   UNL     1       7.834  -0.419  -2.305  1.00  0.00     0.008 A 
ATOM      8  C   UNL     1       7.911  -1.352  -0.108  1.00  0.00     0.054 A 
ATOM      9  C   UNL     1       8.229  -1.647  -2.805  1.00  0.00     0.051 A 
ATOM     10  C   UNL     1       8.311  -2.591  -0.618  1.00  0.00     0.166 A 
ATOM     11  C   UNL     1       8.471  -2.740  -1.978  1.00  0.00     0.165 A 
ATOM     12  O   UNL     1       8.605  -3.801  -0.025  1.00  0.00    -0.454 OA
ATOM     13  O   UNL     1       8.866  -4.051  -2.194  1.00  0.00    -0.454 OA
ATOM     14  C   UNL     1       9.051  -4.733  -0.976  1.00  0.00     0.468 C 
ENDBRANCH   5   6
ENDBRANCH   1   5
TORSDOF 3
ENDMDL
MODEL 3
REMARK VINA RESULT:      -7.2      2.077      2.627
REMARK SMILES CC(=O)CCc1ccc2c(c1)OCO2
REMARK SMILES IDX 4 1 2 2 1 3 3 4 5 5 6 6 7 7 11 8 8 9 10 10 9 11 12 12 14 13
REMARK SMILES IDX 13 14
REMARK H PARENT
REMARK Flexibility Score: inf
ROOT
ATOM      1  C   UNL     1       5.496  -0.005   1.986  1.00  0.00     0.080 C 
ENDROOT
BRANCH   1   2
ATOM      2  C   UNL     1       4.606   1.156   1.709  1.00  0.00     0.130 C 
ATOM      3  C   UNL     1       4.892   2.113   0.607  1.00  0.00     0.087 C 
ATOM      4  O   UNL     1       3.609   1.357   2.383  1.00  0.00    -0.300 OA
ENDBRANCH   1   2
BRANCH   1   5
ATOM      5  C   UNL     1       6.909   0.257   1.506  1.00  0.00     0.043 C 
BRANCH   5   6
ATOM      6  C   UNL     1       7.319  -0.701   0.463  1.00  0.00    -0.044 A 
ATOM      7  C   UNL     1       7.180  -0.407  -0.898  1.00  0.00     0.008 A 
ATOM      8  C   UNL     1       7.855  -1.916   0.826  1.00  0.00     0.054 A 
ATOM      9  C   UNL     1       7.582  -1.345  -1.832  1.00  0.00     0.051 A 
ATOM     10  C   UNL     1       8.261  -2.860  -0.122  1.00  0.00     0.166 A 
ATOM     11  C   UNL     1       8.123  -2.572  -1.462  1.00  0.00     0.165 A 
ATOM     12  O   UNL     1       8.813  -4.119  -0.017  1.00  0.00    -0.454 OA
ATOM     13  O   UNL     1       8.599  -3.672  -2.159  1.00  0.00    -0.454 OA
ATOM     14  C   UNL     1       9.130  -4.638  -1.283  1.00  0.00     0.468 C 
ENDBRANCH   5   6
ENDBRANCH   1   5
TORSDOF 3
ENDMDL
MODEL 4
REMARK VINA RESULT:      -7.1      1.249      1.457
REMARK SMILES CC(=O)CCc1ccc2c(c1)OCO2
REMARK SMILES IDX 4 1 2 2 1 3 3 4 5 5 6 6 7 7 11 8 8 9 10 10 9 11 12 12 14 13
REMARK SMILES IDX 13 14
REMARK H PARENT
REMARK Flexibility Score: inf
ROOT
ATOM      1  C   UNL     1       6.390   1.219   0.926  1.00  0.00     0.080 C 
ENDROOT
BRANCH   1   2
ATOM      2  C   UNL     1       5.676   0.378   1.926  1.00  0.00     0.130 C 
ATOM      3  C   UNL     1       6.299  -0.841   2.509  1.00  0.00     0.087 C 
ATOM      4  O   UNL     1       4.550   0.667   2.299  1.00  0.00    -0.300 OA
ENDBRANCH   1   2
BRANCH   1   5
ATOM      5  C   UNL     1       5.887   0.950  -0.479  1.00  0.00     0.043 C 
BRANCH   5   6
ATOM      6  C   UNL     1       6.831   0.117  -1.246  1.00  0.00    -0.044 A 
ATOM      7  C   UNL     1       7.526   0.625  -2.350  1.00  0.00     0.008 A 
ATOM      8  C   UNL     1       7.043  -1.191  -0.877  1.00  0.00     0.054 A 
ATOM      9  C   UNL     1       8.399  -0.202  -3.032  1.00  0.00     0.051 A 
ATOM     10  C   UNL     1       7.927  -2.024  -1.569  1.00  0.00     0.166 A 
ATOM     11  C   UNL     1       8.611  -1.525  -2.656  1.00  0.00     0.165 A 
ATOM     12  O   UNL     1       8.305  -3.339  -1.403  1.00  0.00    -0.454 OA
ATOM     13  O   UNL     1       9.403  -2.555  -3.138  1.00  0.00    -0.454 OA
ATOM     14  C   UNL     1       9.308  -3.696  -2.319  1.00  0.00     0.468 C 
ENDBRANCH   5   6
ENDBRANCH   1   5
TORSDOF 3
ENDMDL
MODEL 5
REMARK VINA RESULT:      -6.9      1.985      2.664
REMARK SMILES CC(=O)CCc1ccc2c(c1)OCO2
REMARK SMILES IDX 4 1 2 2 1 3 3 4 5 5 6 6 7 7 11 8 8 9 10 10 9 11 12 12 14 13
REMARK SMILES IDX 13 14
REMARK H PARENT
REMARK Flexibility Score: inf
ROOT
ATOM      1  C   UNL     1       6.571   1.007   1.122  1.00  0.00     0.080 C 
ENDROOT
BRANCH   1   2
ATOM      2  C   UNL     1       5.343   1.759   0.740  1.00  0.00     0.130 C 
ATOM      3  C   UNL     1       5.074   2.148  -0.670  1.00  0.00     0.087 C 
ATOM      4  O   UNL     1       4.517   2.079   1.579  1.00  0.00    -0.300 OA
ENDBRANCH   1   2
BRANCH   1   5
ATOM      5  C   UNL     1       7.637   1.113   0.051  1.00  0.00     0.043 C 
BRANCH   5   6
ATOM      6  C   UNL     1       7.860  -0.176  -0.628  1.00  0.00    -0.044 A 
ATOM      7  C   UNL     1       7.781  -0.294  -2.021  1.00  0.00     0.008 A 
ATOM      8  C   UNL     1       8.155  -1.297   0.115  1.00  0.00     0.054 A 
ATOM      9  C   UNL     1       7.999  -1.530  -2.603  1.00  0.00     0.051 A 
ATOM     10  C   UNL     1       8.376  -2.543  -0.479  1.00  0.00     0.166 A 
ATOM     11  C   UNL     1       8.297  -2.661  -1.849  1.00  0.00     0.165 A 
ATOM     12  O   UNL     1       8.679  -3.787   0.033  1.00  0.00    -0.454 OA
ATOM     13  O   UNL     1       8.558  -3.988  -2.153  1.00  0.00    -0.454 OA
ATOM     14  C   UNL     1       8.894  -4.717  -0.997  1.00  0.00     0.468 C 
ENDBRANCH   5   6
ENDBRANCH   1   5
TORSDOF 3
ENDMDL
