@<TRIPOS>MOLECULE
/home/cewinharhar/GITHUB/reincatalyze/data/processed/docking_pred/2023-May-22-2206_sub9_nm5_bs15_s42_ex16_mel10_mts10000_k50_ec02_g099_lra9e-4_lrc1e-3/f5fb071253116e33fb6a6057d91faa3d89d34546_ligand_9.pdbqt
 14 15 0 0 0
SMALL
GASTEIGER

@<TRIPOS>ATOM
      1  C          5.4960   -0.0050    1.9860 C.3     1  UNL1        0.0800
      2  C          4.6060    1.1560    1.7090 C.2     1  UNL1        0.1300
      3  C          4.8920    2.1130    0.6070 C.3     1  UNL1        0.0870
      4  O          3.6090    1.3570    2.3830 O.2     1  UNL1       -0.3000
      5  C          6.9090    0.2570    1.5060 C.3     1  UNL1        0.0430
      6  C          7.3190   -0.7010    0.4630 C.2     1  UNL1       -0.0440
      7  C          7.1800   -0.4070   -0.8980 C.2     1  UNL1        0.0080
      8  C          7.8550   -1.9160    0.8260 C.2     1  UNL1        0.0540
      9  C          7.5820   -1.3450   -1.8320 C.2     1  UNL1        0.0510
     10  C          8.2610   -2.8600   -0.1220 C.2     1  UNL1        0.1660
     11  C          8.1230   -2.5720   -1.4620 C.2     1  UNL1        0.1650
     12  O          8.8130   -4.1190   -0.0170 O.2     1  UNL1       -0.4540
     13  O          8.5990   -3.6720   -2.1590 O.2     1  UNL1       -0.4540
     14  C          9.1300   -4.6380   -1.2830 C.3     1  UNL1        0.4680
@<TRIPOS>BOND
     1    13    11    1
     2    13    14    1
     3     9    11    2
     4     9     7    1
     5    11    10    1
     6    14    12    1
     7     7     6    2
     8    10    12    1
     9    10     8    2
    10     6     8    1
    11     6     5    1
    12     3     2    1
    13     5     1    1
    14     2     1    1
    15     2     4    2
