@<TRIPOS>MOLECULE
/home/cewinharhar/GITHUB/reincatalyze/data/processed/docking_pred/2023-May-22-2206_sub9_nm5_bs15_s42_ex16_mel10_mts10000_k50_ec02_g099_lra9e-4_lrc1e-3/f6b0a6d65051a5b20d9eb350202399160ef0f891_ligand_9.pdbqt
 14 15 0 0 0
SMALL
GASTEIGER

@<TRIPOS>ATOM
      1  C          5.5910    1.8640    1.3060 C.3     1  UNL1        0.0800
      2  C          5.1440    0.6410    2.0300 C.2     1  UNL1        0.1300
      3  C          6.0370   -0.5360    2.1990 C.3     1  UNL1        0.0870
      4  O          4.0230    0.5700    2.5080 O.2     1  UNL1       -0.3000
      5  C          5.4530    1.6960   -0.1950 C.3     1  UNL1        0.0430
      6  C          6.6140    1.0000   -0.7760 C.2     1  UNL1       -0.0440
      7  C          7.9240    1.4290   -0.5310 C.2     1  UNL1        0.0080
      8  C          6.4190   -0.1010   -1.5780 C.2     1  UNL1        0.0540
      9  C          8.9750    0.7360   -1.1030 C.2     1  UNL1        0.0510
     10  C          7.4850   -0.7990   -2.1530 C.2     1  UNL1        0.1660
     11  C          8.7740   -0.3770   -1.9140 C.2     1  UNL1        0.1650
     12  O          7.5500   -1.9050   -2.9740 O.2     1  UNL1       -0.4540
     13  O          9.6120   -1.2420   -2.5990 O.2     1  UNL1       -0.4540
     14  C          8.8830   -2.2790   -3.2110 C.3     1  UNL1        0.4680
@<TRIPOS>BOND
     1    14    12    1
     2    14    13    1
     3    12    10    1
     4    13    11    1
     5    10    11    2
     6    10     8    1
     7    11     9    1
     8     8     6    2
     9     9     7    2
    10     6     7    1
    11     6     5    1
    12     5     1    1
    13     1     2    1
    14     2     3    1
    15     2     4    2
