@<TRIPOS>MOLECULE
/home/cewinharhar/GITHUB/reincatalyze/data/processed/docking_pred/2023-May-22-2206_sub9_nm5_bs15_s42_ex16_mel10_mts10000_k50_ec02_g099_lra9e-4_lrc1e-3/f74925e0f2dbd9eb14447f51d5c862455f02ecd6_ligand_9.pdbqt
 14 15 0 0 0
SMALL
GASTEIGER

@<TRIPOS>ATOM
      1  C          6.3350    1.2400    0.8530 C.3     1  UNL1        0.0800
      2  C          5.6440    0.4390    1.9020 C.2     1  UNL1        0.1300
      3  C          6.2560   -0.7900    2.4750 C.3     1  UNL1        0.0870
      4  O          4.5480    0.7700    2.3230 O.2     1  UNL1       -0.3000
      5  C          5.8210    0.8950   -0.5300 C.3     1  UNL1        0.0430
      6  C          6.7940    0.0900   -1.2890 C.2     1  UNL1       -0.0440
      7  C          7.5120    0.6270   -2.3640 C.2     1  UNL1        0.0080
      8  C          7.0130   -1.2240   -0.9400 C.2     1  UNL1        0.0540
      9  C          8.4130   -0.1760   -3.0380 C.2     1  UNL1        0.0510
     10  C          7.9250   -2.0320   -1.6240 C.2     1  UNL1        0.1660
     11  C          8.6310   -1.5040   -2.6830 C.2     1  UNL1        0.1650
     12  O          8.3140   -3.3460   -1.4740 O.2     1  UNL1       -0.4540
     13  O          9.4480   -2.5150   -3.1640 O.2     1  UNL1       -0.4540
     14  C          9.3450   -3.6730   -2.3690 C.3     1  UNL1        0.4680
@<TRIPOS>BOND
     1    13    11    1
     2    13    14    1
     3     9    11    2
     4     9     7    1
     5    11    10    1
     6    14    12    1
     7     7     6    2
     8    10    12    1
     9    10     8    2
    10     6     8    1
    11     6     5    1
    12     5     1    1
    13     1     2    1
    14     2     4    2
    15     2     3    1
