@<TRIPOS>MOLECULE
/home/cewinharhar/GITHUB/reincatalyze/data/processed/docking_pred/2023-May-22-2206_sub9_nm5_bs15_s42_ex16_mel10_mts10000_k50_ec02_g099_lra9e-4_lrc1e-3/f74925e0f2dbd9eb14447f51d5c862455f02ecd6_ligand_9.pdbqt
 14 15 0 0 0
SMALL
GASTEIGER

@<TRIPOS>ATOM
      1  C          5.3350   -0.0700    1.9740 C.3     1  UNL1        0.0800
      2  C          4.4460    1.1120    1.7910 C.2     1  UNL1        0.1300
      3  C          4.7210    2.1430    0.7560 C.3     1  UNL1        0.0870
      4  O          3.4590    1.2680    2.4920 O.2     1  UNL1       -0.3000
      5  C          6.7960    0.3250    1.9040 C.3     1  UNL1        0.0430
      6  C          7.3980   -0.0350    0.6080 C.2     1  UNL1       -0.0440
      7  C          7.8950    0.9390   -0.2660 C.2     1  UNL1        0.0080
      8  C          7.4810   -1.3580    0.2390 C.2     1  UNL1        0.0540
      9  C          8.4500    0.5410   -1.4680 C.2     1  UNL1        0.0510
     10  C          8.0440   -1.7550   -0.9780 C.2     1  UNL1        0.1660
     11  C          8.5320   -0.7980   -1.8390 C.2     1  UNL1        0.1650
     12  O          8.2380   -2.9870   -1.5660 O.2     1  UNL1       -0.4540
     13  O          9.0220   -1.4680   -2.9480 O.2     1  UNL1       -0.4540
     14  C          8.9390   -2.8630   -2.7770 C.3     1  UNL1        0.4680
@<TRIPOS>BOND
     1    13    14    1
     2    13    11    1
     3    14    12    1
     4    11     9    2
     5    11    10    1
     6    12    10    1
     7     9     7    1
     8    10     8    2
     9     7     6    2
    10     8     6    1
    11     6     5    1
    12     3     2    1
    13     2     1    1
    14     2     4    2
    15     5     1    1
