@<TRIPOS>MOLECULE
/home/cewinharhar/GITHUB/reincatalyze/data/processed/docking_pred/2023-May-22-2206_sub9_nm5_bs15_s42_ex16_mel10_mts10000_k50_ec02_g099_lra9e-4_lrc1e-3/f74925e0f2dbd9eb14447f51d5c862455f02ecd6_ligand_9.pdbqt
 14 15 0 0 0
SMALL
GASTEIGER

@<TRIPOS>ATOM
      1  C          5.5020    1.8990    1.2560 C.3     1  UNL1        0.0800
      2  C          5.0300    0.6950    1.9950 C.2     1  UNL1        0.1300
      3  C          5.8670   -0.5280    2.1110 C.3     1  UNL1        0.0870
      4  O          3.9330    0.6790    2.5310 O.2     1  UNL1       -0.3000
      5  C          5.3800    1.7080   -0.2430 C.3     1  UNL1        0.0430
      6  C          6.5550    1.0170   -0.8030 C.2     1  UNL1       -0.0440
      7  C          7.8570    1.4700   -0.5610 C.2     1  UNL1        0.0080
      8  C          6.3790   -0.1030   -1.5830 C.2     1  UNL1        0.0540
      9  C          8.9210    0.7800   -1.1130 C.2     1  UNL1        0.0510
     10  C          7.4590   -0.7980   -2.1380 C.2     1  UNL1        0.1660
     11  C          8.7400   -0.3520   -1.9010 C.2     1  UNL1        0.1650
     12  O          7.5440   -1.9190   -2.9360 O.2     1  UNL1       -0.4540
     13  O          9.5950   -1.2180   -2.5640 O.2     1  UNL1       -0.4540
     14  C          8.8840   -2.2780   -3.1580 C.3     1  UNL1        0.4680
@<TRIPOS>BOND
     1    14    12    1
     2    14    13    1
     3    12    10    1
     4    13    11    1
     5    10    11    2
     6    10     8    1
     7    11     9    1
     8     8     6    2
     9     9     7    2
    10     6     7    1
    11     6     5    1
    12     5     1    1
    13     1     2    1
    14     2     3    1
    15     2     4    2
