@<TRIPOS>MOLECULE
/home/cewinharhar/GITHUB/reincatalyze/data/processed/docking_pred/2023-May-22-2206_sub9_nm5_bs15_s42_ex16_mel10_mts10000_k50_ec02_g099_lra9e-4_lrc1e-3/f9550a52c30547fdb3e6e224a3b8a38c5560e948_ligand_9.pdbqt
 14 15 0 0 0
SMALL
GASTEIGER

@<TRIPOS>ATOM
      1  C          5.3270   -0.0770    1.9670 C.3     1  UNL1        0.0800
      2  C          4.4450    1.1110    1.7940 C.2     1  UNL1        0.1300
      3  C          4.7270    2.1500    0.7680 C.3     1  UNL1        0.0870
      4  O          3.4590    1.2670    2.4960 O.2     1  UNL1       -0.3000
      5  C          6.7910    0.3110    1.9090 C.3     1  UNL1        0.0430
      6  C          7.3970   -0.0350    0.6110 C.2     1  UNL1       -0.0440
      7  C          7.8890    0.9490   -0.2540 C.2     1  UNL1        0.0080
      8  C          7.4890   -1.3550    0.2320 C.2     1  UNL1        0.0540
      9  C          8.4480    0.5650   -1.4590 C.2     1  UNL1        0.0510
     10  C          8.0560   -1.7390   -0.9880 C.2     1  UNL1        0.1660
     11  C          8.5390   -0.7710   -1.8400 C.2     1  UNL1        0.1650
     12  O          8.2600   -2.9640   -1.5850 O.2     1  UNL1       -0.4540
     13  O          9.0350   -1.4290   -2.9540 O.2     1  UNL1       -0.4540
     14  C          8.9610   -2.8260   -2.7940 C.3     1  UNL1        0.4680
@<TRIPOS>BOND
     1    13    14    1
     2    13    11    1
     3    14    12    1
     4    11     9    2
     5    11    10    1
     6    12    10    1
     7     9     7    1
     8    10     8    2
     9     7     6    2
    10     8     6    1
    11     6     5    1
    12     3     2    1
    13     2     1    1
    14     2     4    2
    15     5     1    1
