MODEL 1
REMARK VINA RESULT:      -7.7      0.000      0.000
REMARK SMILES CC(=O)CCc1ccc2c(c1)OCO2
REMARK SMILES IDX 4 1 2 2 1 3 3 4 5 5 6 6 7 7 11 8 8 9 10 10 9 11 12 12 14 13
REMARK SMILES IDX 13 14
REMARK H PARENT
REMARK Flexibility Score: inf
ROOT
ATOM      1  C   UNL     1       5.549   1.917   1.272  1.00  0.00     0.080 C 
ENDROOT
BRANCH   1   2
ATOM      2  C   UNL     1       5.106   0.704   2.014  1.00  0.00     0.130 C 
ATOM      3  C   UNL     1       5.999  -0.472   2.193  1.00  0.00     0.087 C 
ATOM      4  O   UNL     1       3.988   0.640   2.499  1.00  0.00    -0.300 OA
ENDBRANCH   1   2
BRANCH   1   5
ATOM      5  C   UNL     1       5.415   1.727  -0.225  1.00  0.00     0.043 C 
BRANCH   5   6
ATOM      6  C   UNL     1       6.580   1.025  -0.794  1.00  0.00    -0.044 A 
ATOM      7  C   UNL     1       7.888   1.461  -0.552  1.00  0.00     0.008 A 
ATOM      8  C   UNL     1       6.389  -0.088  -1.580  1.00  0.00     0.054 A 
ATOM      9  C   UNL     1       8.942   0.762  -1.111  1.00  0.00     0.051 A 
ATOM     10  C   UNL     1       7.458  -0.792  -2.142  1.00  0.00     0.166 A 
ATOM     11  C   UNL     1       8.745  -0.363  -1.906  1.00  0.00     0.165 A 
ATOM     12  O   UNL     1       7.528  -1.910  -2.947  1.00  0.00    -0.454 OA
ATOM     13  O   UNL     1       9.588  -1.236  -2.577  1.00  0.00    -0.454 OA
ATOM     14  C   UNL     1       8.863  -2.284  -3.175  1.00  0.00     0.468 C 
ENDBRANCH   5   6
ENDBRANCH   1   5
TORSDOF 3
ENDMDL
MODEL 2
REMARK VINA RESULT:      -7.4      1.937      2.434
REMARK SMILES CC(=O)CCc1ccc2c(c1)OCO2
REMARK SMILES IDX 4 1 2 2 1 3 3 4 5 5 6 6 7 7 11 8 8 9 10 10 9 11 12 12 14 13
REMARK SMILES IDX 13 14
REMARK H PARENT
REMARK Flexibility Score: inf
ROOT
ATOM      1  C   UNL     1       5.829   1.401  -0.377  1.00  0.00     0.080 C 
ENDROOT
BRANCH   1   2
ATOM      2  C   UNL     1       5.164   1.330   0.955  1.00  0.00     0.130 C 
ATOM      3  C   UNL     1       5.499   0.266   1.939  1.00  0.00     0.087 C 
ATOM      4  O   UNL     1       4.320   2.150   1.278  1.00  0.00    -0.300 OA
ENDBRANCH   1   2
BRANCH   1   5
ATOM      5  C   UNL     1       7.309   1.090  -0.270  1.00  0.00     0.043 C 
BRANCH   5   6
ATOM      6  C   UNL     1       7.638  -0.214  -0.873  1.00  0.00    -0.044 A 
ATOM      7  C   UNL     1       7.649  -0.397  -2.261  1.00  0.00     0.008 A 
ATOM      8  C   UNL     1       7.947  -1.282  -0.063  1.00  0.00     0.054 A 
ATOM      9  C   UNL     1       7.966  -1.643  -2.770  1.00  0.00     0.051 A 
ATOM     10  C   UNL     1       8.267  -2.540  -0.583  1.00  0.00     0.166 A 
ATOM     11  C   UNL     1       8.277  -2.722  -1.948  1.00  0.00     0.165 A 
ATOM     12  O   UNL     1       8.604  -3.741   0.004  1.00  0.00    -0.454 OA
ATOM     13  O   UNL     1       8.624  -4.045  -2.173  1.00  0.00    -0.454 OA
ATOM     14  C   UNL     1       8.929  -4.703  -0.967  1.00  0.00     0.468 C 
ENDBRANCH   5   6
ENDBRANCH   1   5
TORSDOF 3
ENDMDL
MODEL 3
REMARK VINA RESULT:      -7.2      2.060      2.619
REMARK SMILES CC(=O)CCc1ccc2c(c1)OCO2
REMARK SMILES IDX 4 1 2 2 1 3 3 4 5 5 6 6 7 7 11 8 8 9 10 10 9 11 12 12 14 13
REMARK SMILES IDX 13 14
REMARK H PARENT
REMARK Flexibility Score: inf
ROOT
ATOM      1  C   UNL     1       5.475  -0.017   2.011  1.00  0.00     0.080 C 
ENDROOT
BRANCH   1   2
ATOM      2  C   UNL     1       4.590   1.154   1.757  1.00  0.00     0.130 C 
ATOM      3  C   UNL     1       4.888   2.138   0.681  1.00  0.00     0.087 C 
ATOM      4  O   UNL     1       3.589   1.341   2.429  1.00  0.00    -0.300 OA
ENDBRANCH   1   2
BRANCH   1   5
ATOM      5  C   UNL     1       6.891   0.250   1.542  1.00  0.00     0.043 C 
BRANCH   5   6
ATOM      6  C   UNL     1       7.306  -0.698   0.492  1.00  0.00    -0.044 A 
ATOM      7  C   UNL     1       7.168  -0.393  -0.867  1.00  0.00     0.008 A 
ATOM      8  C   UNL     1       7.846  -1.914   0.846  1.00  0.00     0.054 A 
ATOM      9  C   UNL     1       7.577  -1.322  -1.807  1.00  0.00     0.051 A 
ATOM     10  C   UNL     1       8.258  -2.848  -0.109  1.00  0.00     0.166 A 
ATOM     11  C   UNL     1       8.122  -2.550  -1.447  1.00  0.00     0.165 A 
ATOM     12  O   UNL     1       8.815  -4.106  -0.014  1.00  0.00    -0.454 OA
ATOM     13  O   UNL     1       8.604  -3.641  -2.152  1.00  0.00    -0.454 OA
ATOM     14  C   UNL     1       9.137  -4.613  -1.284  1.00  0.00     0.468 C 
ENDBRANCH   5   6
ENDBRANCH   1   5
TORSDOF 3
ENDMDL
MODEL 4
REMARK VINA RESULT:      -7.1      1.253      1.460
REMARK SMILES CC(=O)CCc1ccc2c(c1)OCO2
REMARK SMILES IDX 4 1 2 2 1 3 3 4 5 5 6 6 7 7 11 8 8 9 10 10 9 11 12 12 14 13
REMARK SMILES IDX 13 14
REMARK H PARENT
REMARK Flexibility Score: inf
ROOT
ATOM      1  C   UNL     1       6.395   1.199   0.947  1.00  0.00     0.080 C 
ENDROOT
BRANCH   1   2
ATOM      2  C   UNL     1       5.656   0.367   1.937  1.00  0.00     0.130 C 
ATOM      3  C   UNL     1       6.248  -0.869   2.516  1.00  0.00     0.087 C 
ATOM      4  O   UNL     1       4.534   0.677   2.304  1.00  0.00    -0.300 OA
ENDBRANCH   1   2
BRANCH   1   5
ATOM      5  C   UNL     1       5.895   0.950  -0.463  1.00  0.00     0.043 C 
BRANCH   5   6
ATOM      6  C   UNL     1       6.832   0.114  -1.235  1.00  0.00    -0.044 A 
ATOM      7  C   UNL     1       7.516   0.616  -2.347  1.00  0.00     0.008 A 
ATOM      8  C   UNL     1       7.048  -1.192  -0.860  1.00  0.00     0.054 A 
ATOM      9  C   UNL     1       8.384  -0.215  -3.033  1.00  0.00     0.051 A 
ATOM     10  C   UNL     1       7.926  -2.028  -1.556  1.00  0.00     0.166 A 
ATOM     11  C   UNL     1       8.599  -1.536  -2.651  1.00  0.00     0.165 A 
ATOM     12  O   UNL     1       8.306  -3.343  -1.385  1.00  0.00    -0.454 OA
ATOM     13  O   UNL     1       9.387  -2.568  -3.135  1.00  0.00    -0.454 OA
ATOM     14  C   UNL     1       9.301  -3.704  -2.309  1.00  0.00     0.468 C 
ENDBRANCH   5   6
ENDBRANCH   1   5
TORSDOF 3
ENDMDL
MODEL 5
REMARK VINA RESULT:      -6.8      1.253      1.746
REMARK SMILES CC(=O)CCc1ccc2c(c1)OCO2
REMARK SMILES IDX 4 1 2 2 1 3 3 4 5 5 6 6 7 7 11 8 8 9 10 10 9 11 12 12 14 13
REMARK SMILES IDX 13 14
REMARK H PARENT
REMARK Flexibility Score: inf
ROOT
ATOM      1  C   UNL     1       5.327  -0.077   1.967  1.00  0.00     0.080 C 
ENDROOT
BRANCH   1   2
ATOM      2  C   UNL     1       4.445   1.111   1.794  1.00  0.00     0.130 C 
ATOM      3  C   UNL     1       4.727   2.150   0.768  1.00  0.00     0.087 C 
ATOM      4  O   UNL     1       3.459   1.267   2.496  1.00  0.00    -0.300 OA
ENDBRANCH   1   2
BRANCH   1   5
ATOM      5  C   UNL     1       6.791   0.311   1.909  1.00  0.00     0.043 C 
BRANCH   5   6
ATOM      6  C   UNL     1       7.397  -0.035   0.611  1.00  0.00    -0.044 A 
ATOM      7  C   UNL     1       7.889   0.949  -0.254  1.00  0.00     0.008 A 
ATOM      8  C   UNL     1       7.489  -1.355   0.232  1.00  0.00     0.054 A 
ATOM      9  C   UNL     1       8.448   0.565  -1.459  1.00  0.00     0.051 A 
ATOM     10  C   UNL     1       8.056  -1.739  -0.988  1.00  0.00     0.166 A 
ATOM     11  C   UNL     1       8.539  -0.771  -1.840  1.00  0.00     0.165 A 
ATOM     12  O   UNL     1       8.260  -2.964  -1.585  1.00  0.00    -0.454 OA
ATOM     13  O   UNL     1       9.035  -1.429  -2.954  1.00  0.00    -0.454 OA
ATOM     14  C   UNL     1       8.961  -2.826  -2.794  1.00  0.00     0.468 C 
ENDBRANCH   5   6
ENDBRANCH   1   5
TORSDOF 3
ENDMDL
