@<TRIPOS>MOLECULE
/home/cewinharhar/GITHUB/reincatalyze/data/processed/docking_pred/2023-May-22-2206_sub9_nm5_bs15_s42_ex16_mel10_mts10000_k50_ec02_g099_lra9e-4_lrc1e-3/faf685cb0c2e1ff185f0c147bdf23d27aa2a460b_ligand_9.pdbqt
 14 15 0 0 0
SMALL
GASTEIGER

@<TRIPOS>ATOM
      1  C          5.7090    1.3020   -0.3100 C.3     1  UNL1        0.0800
      2  C          5.0880    1.2400    1.0420 C.2     1  UNL1        0.1300
      3  C          5.2960    0.0760    1.9450 C.3     1  UNL1        0.0870
      4  O          4.3830    2.1490    1.4500 O.2     1  UNL1       -0.3000
      5  C          7.2060    1.0700   -0.2390 C.3     1  UNL1        0.0430
      6  C          7.5900   -0.2090   -0.8620 C.2     1  UNL1       -0.0440
      7  C          7.6800   -0.3500   -2.2510 C.2     1  UNL1        0.0080
      8  C          7.8740   -1.2970   -0.0680 C.2     1  UNL1        0.0540
      9  C          8.0460   -1.5740   -2.7800 C.2     1  UNL1        0.0510
     10  C          8.2450   -2.5320   -0.6060 C.2     1  UNL1        0.1660
     11  C          8.3310   -2.6720   -1.9740 C.2     1  UNL1        0.1650
     12  O          8.5700   -3.7460   -0.0380 O.2     1  UNL1       -0.4540
     13  O          8.7140   -3.9820   -2.2190 O.2     1  UNL1       -0.4540
     14  C          8.9640   -4.6720   -1.0180 C.3     1  UNL1        0.4680
@<TRIPOS>BOND
     1     9     7    1
     2     9    11    2
     3     7     6    2
     4    13    11    1
     5    13    14    1
     6    11    10    1
     7    14    12    1
     8     6     5    1
     9     6     8    1
    10    10     8    2
    11    10    12    1
    12     1     5    1
    13     1     2    1
    14     2     4    2
    15     2     3    1
