@<TRIPOS>MOLECULE
/home/cewinharhar/GITHUB/reincatalyze/data/processed/docking_pred/2023-May-22-2206_sub9_nm5_bs15_s42_ex16_mel10_mts10000_k50_ec02_g099_lra9e-4_lrc1e-3/fc1d4194c005f01296b9c57c803e441f6dc40ccd_ligand_9.pdbqt
 14 15 0 0 0
SMALL
GASTEIGER

@<TRIPOS>ATOM
      1  C          5.4010   -0.0770    2.0140 C.3     1  UNL1        0.0800
      2  C          4.5740    1.1370    1.7710 C.2     1  UNL1        0.1300
      3  C          4.9260    2.1240    0.7150 C.3     1  UNL1        0.0870
      4  O          3.5760    1.3590    2.4370 O.2     1  UNL1       -0.3000
      5  C          6.8480    0.1560    1.6270 C.3     1  UNL1        0.0430
      6  C          7.2820   -0.7600    0.5570 C.2     1  UNL1       -0.0440
      7  C          7.1620   -0.4170   -0.7950 C.2     1  UNL1        0.0080
      8  C          7.8210   -1.9840    0.8830 C.2     1  UNL1        0.0540
      9  C          7.5870   -1.3170   -1.7550 C.2     1  UNL1        0.0510
     10  C          8.2490   -2.8900   -0.0910 C.2     1  UNL1        0.1660
     11  C          8.1310   -2.5540   -1.4220 C.2     1  UNL1        0.1650
     12  O          8.8090   -4.1480   -0.0240 O.2     1  UNL1       -0.4540
     13  O          8.6270   -3.6230   -2.1510 O.2     1  UNL1       -0.4540
     14  C          9.1510   -4.6170   -1.3030 C.3     1  UNL1        0.4680
@<TRIPOS>BOND
     1    13    11    1
     2    13    14    1
     3     9    11    2
     4     9     7    1
     5    11    10    1
     6    14    12    1
     7     7     6    2
     8    10    12    1
     9    10     8    2
    10     6     8    1
    11     6     5    1
    12     3     2    1
    13     5     1    1
    14     2     1    1
    15     2     4    2
