@<TRIPOS>MOLECULE
/home/cewinharhar/GITHUB/reincatalyze/data/processed/docking_pred/2023-May-22-2206_sub9_nm5_bs15_s42_ex16_mel10_mts10000_k50_ec02_g099_lra9e-4_lrc1e-3/fc1d4194c005f01296b9c57c803e441f6dc40ccd_ligand_9.pdbqt
 14 15 0 0 0
SMALL
GASTEIGER

@<TRIPOS>ATOM
      1  C          8.3750    0.1960   -2.6190 C.3     1  UNL1        0.0800
      2  C          8.0670   -1.2570   -2.7420 C.2     1  UNL1        0.1300
      3  C          9.1290   -2.2580   -3.0270 C.3     1  UNL1        0.0870
      4  O          6.9250   -1.6680   -2.6130 O.2     1  UNL1       -0.3000
      5  C          8.8910    0.5330   -1.2340 C.3     1  UNL1        0.0430
      6  C          7.8400    0.3970   -0.2100 C.2     1  UNL1       -0.0440
      7  C          7.9180   -0.5720    0.7970 C.2     1  UNL1        0.0080
      8  C          6.7510    1.2390   -0.2340 C.2     1  UNL1        0.0540
      9  C          6.9010   -0.6520    1.7310 C.2     1  UNL1        0.0510
     10  C          5.7270    1.1540    0.7130 C.2     1  UNL1        0.1660
     11  C          5.8020    0.2000    1.7040 C.2     1  UNL1        0.1650
     12  O          4.5590    1.8630    0.9010 O.2     1  UNL1       -0.4540
     13  O          4.6680    0.3460    2.4880 O.2     1  UNL1       -0.4540
     14  C          3.8980    1.4470    2.0680 C.3     1  UNL1        0.4680
@<TRIPOS>BOND
     1     3     2    1
     2     2     1    1
     3     2     4    2
     4     1     5    1
     5     5     6    1
     6     8     6    2
     7     8    10    1
     8     6     7    1
     9    10    12    1
    10    10    11    2
    11     7     9    2
    12    12    14    1
    13    11     9    1
    14    11    13    1
    15    14    13    1
