MODEL 1
REMARK VINA RESULT:      -7.6      0.000      0.000
REMARK SMILES CC(=O)CCc1ccc2c(c1)OCO2
REMARK SMILES IDX 4 1 2 2 1 3 3 4 5 5 6 6 7 7 11 8 8 9 10 10 9 11 12 12 14 13
REMARK SMILES IDX 13 14
REMARK H PARENT
REMARK Flexibility Score: inf
ROOT
ATOM      1  C   UNL     1       5.520   1.915   1.258  1.00  0.00     0.080 C 
ENDROOT
BRANCH   1   2
ATOM      2  C   UNL     1       5.073   0.706   2.004  1.00  0.00     0.130 C 
ATOM      3  C   UNL     1       5.953  -0.483   2.164  1.00  0.00     0.087 C 
ATOM      4  O   UNL     1       3.963   0.655   2.508  1.00  0.00    -0.300 OA
ENDBRANCH   1   2
BRANCH   1   5
ATOM      5  C   UNL     1       5.393   1.717  -0.239  1.00  0.00     0.043 C 
BRANCH   5   6
ATOM      6  C   UNL     1       6.563   1.019  -0.800  1.00  0.00    -0.044 A 
ATOM      7  C   UNL     1       7.868   1.458  -0.550  1.00  0.00     0.008 A 
ATOM      8  C   UNL     1       6.380  -0.095  -1.588  1.00  0.00     0.054 A 
ATOM      9  C   UNL     1       8.928   0.762  -1.102  1.00  0.00     0.051 A 
ATOM     10  C   UNL     1       7.455  -0.795  -2.143  1.00  0.00     0.166 A 
ATOM     11  C   UNL     1       8.740  -0.363  -1.898  1.00  0.00     0.165 A 
ATOM     12  O   UNL     1       7.534  -1.912  -2.948  1.00  0.00    -0.454 OA
ATOM     13  O   UNL     1       9.589  -1.233  -2.564  1.00  0.00    -0.454 OA
ATOM     14  C   UNL     1       8.871  -2.283  -3.167  1.00  0.00     0.468 C 
ENDBRANCH   5   6
ENDBRANCH   1   5
TORSDOF 3
ENDMDL
MODEL 2
REMARK VINA RESULT:      -7.4      1.945      2.397
REMARK SMILES CC(=O)CCc1ccc2c(c1)OCO2
REMARK SMILES IDX 4 1 2 2 1 3 3 4 5 5 6 6 7 7 11 8 8 9 10 10 9 11 12 12 14 13
REMARK SMILES IDX 13 14
REMARK H PARENT
REMARK Flexibility Score: inf
ROOT
ATOM      1  C   UNL     1       5.734   1.342  -0.259  1.00  0.00     0.080 C 
ENDROOT
BRANCH   1   2
ATOM      2  C   UNL     1       5.128   1.253   1.098  1.00  0.00     0.130 C 
ATOM      3  C   UNL     1       5.354   0.076   1.979  1.00  0.00     0.087 C 
ATOM      4  O   UNL     1       4.421   2.150   1.529  1.00  0.00    -0.300 OA
ENDBRANCH   1   2
BRANCH   1   5
ATOM      5  C   UNL     1       7.230   1.100  -0.211  1.00  0.00     0.043 C 
BRANCH   5   6
ATOM      6  C   UNL     1       7.593  -0.195  -0.813  1.00  0.00    -0.044 A 
ATOM      7  C   UNL     1       7.638  -0.371  -2.201  1.00  0.00     0.008 A 
ATOM      8  C   UNL     1       7.901  -1.263  -0.001  1.00  0.00     0.054 A 
ATOM      9  C   UNL     1       7.987  -1.609  -2.709  1.00  0.00     0.051 A 
ATOM     10  C   UNL     1       8.253  -2.512  -0.520  1.00  0.00     0.166 A 
ATOM     11  C   UNL     1       8.296  -2.687  -1.885  1.00  0.00     0.165 A 
ATOM     12  O   UNL     1       8.596  -3.711   0.068  1.00  0.00    -0.454 OA
ATOM     13  O   UNL     1       8.670  -4.003  -2.109  1.00  0.00    -0.454 OA
ATOM     14  C   UNL     1       8.957  -4.663  -0.900  1.00  0.00     0.468 C 
ENDBRANCH   5   6
ENDBRANCH   1   5
TORSDOF 3
ENDMDL
MODEL 3
REMARK VINA RESULT:      -7.2      2.057      2.635
REMARK SMILES CC(=O)CCc1ccc2c(c1)OCO2
REMARK SMILES IDX 4 1 2 2 1 3 3 4 5 5 6 6 7 7 11 8 8 9 10 10 9 11 12 12 14 13
REMARK SMILES IDX 13 14
REMARK H PARENT
REMARK Flexibility Score: inf
ROOT
ATOM      1  C   UNL     1       5.401  -0.077   2.014  1.00  0.00     0.080 C 
ENDROOT
BRANCH   1   2
ATOM      2  C   UNL     1       4.574   1.137   1.771  1.00  0.00     0.130 C 
ATOM      3  C   UNL     1       4.926   2.124   0.715  1.00  0.00     0.087 C 
ATOM      4  O   UNL     1       3.576   1.359   2.437  1.00  0.00    -0.300 OA
ENDBRANCH   1   2
BRANCH   1   5
ATOM      5  C   UNL     1       6.848   0.156   1.627  1.00  0.00     0.043 C 
BRANCH   5   6
ATOM      6  C   UNL     1       7.282  -0.760   0.557  1.00  0.00    -0.044 A 
ATOM      7  C   UNL     1       7.162  -0.417  -0.795  1.00  0.00     0.008 A 
ATOM      8  C   UNL     1       7.821  -1.984   0.883  1.00  0.00     0.054 A 
ATOM      9  C   UNL     1       7.587  -1.317  -1.755  1.00  0.00     0.051 A 
ATOM     10  C   UNL     1       8.249  -2.890  -0.091  1.00  0.00     0.166 A 
ATOM     11  C   UNL     1       8.131  -2.554  -1.422  1.00  0.00     0.165 A 
ATOM     12  O   UNL     1       8.809  -4.148  -0.024  1.00  0.00    -0.454 OA
ATOM     13  O   UNL     1       8.627  -3.623  -2.151  1.00  0.00    -0.454 OA
ATOM     14  C   UNL     1       9.151  -4.617  -1.303  1.00  0.00     0.468 C 
ENDBRANCH   5   6
ENDBRANCH   1   5
TORSDOF 3
ENDMDL
MODEL 4
REMARK VINA RESULT:      -7.1      1.258      1.472
REMARK SMILES CC(=O)CCc1ccc2c(c1)OCO2
REMARK SMILES IDX 4 1 2 2 1 3 3 4 5 5 6 6 7 7 11 8 8 9 10 10 9 11 12 12 14 13
REMARK SMILES IDX 13 14
REMARK H PARENT
REMARK Flexibility Score: inf
ROOT
ATOM      1  C   UNL     1       6.412   1.194   0.938  1.00  0.00     0.080 C 
ENDROOT
BRANCH   1   2
ATOM      2  C   UNL     1       5.678   0.357   1.928  1.00  0.00     0.130 C 
ATOM      3  C   UNL     1       6.272  -0.883   2.495  1.00  0.00     0.087 C 
ATOM      4  O   UNL     1       4.559   0.668   2.304  1.00  0.00    -0.300 OA
ENDBRANCH   1   2
BRANCH   1   5
ATOM      5  C   UNL     1       5.907   0.951  -0.470  1.00  0.00     0.043 C 
BRANCH   5   6
ATOM      6  C   UNL     1       6.837   0.113  -1.247  1.00  0.00    -0.044 A 
ATOM      7  C   UNL     1       7.514   0.612  -2.366  1.00  0.00     0.008 A 
ATOM      8  C   UNL     1       7.055  -1.193  -0.871  1.00  0.00     0.054 A 
ATOM      9  C   UNL     1       8.376  -0.221  -3.056  1.00  0.00     0.051 A 
ATOM     10  C   UNL     1       7.928  -2.031  -1.572  1.00  0.00     0.166 A 
ATOM     11  C   UNL     1       8.593  -1.541  -2.673  1.00  0.00     0.165 A 
ATOM     12  O   UNL     1       8.308  -3.345  -1.402  1.00  0.00    -0.454 OA
ATOM     13  O   UNL     1       9.377  -2.575  -3.161  1.00  0.00    -0.454 OA
ATOM     14  C   UNL     1       9.296  -3.709  -2.331  1.00  0.00     0.468 C 
ENDBRANCH   5   6
ENDBRANCH   1   5
TORSDOF 3
ENDMDL
MODEL 5
REMARK VINA RESULT:      -6.8      1.187      5.182
REMARK SMILES CC(=O)CCc1ccc2c(c1)OCO2
REMARK SMILES IDX 4 1 2 2 1 3 3 4 5 5 6 6 7 7 11 8 8 9 10 10 9 11 12 12 14 13
REMARK SMILES IDX 13 14
REMARK H PARENT
REMARK Flexibility Score: inf
ROOT
ATOM      1  C   UNL     1       8.375   0.196  -2.619  1.00  0.00     0.080 C 
ENDROOT
BRANCH   1   2
ATOM      2  C   UNL     1       8.067  -1.257  -2.742  1.00  0.00     0.130 C 
ATOM      3  C   UNL     1       9.129  -2.258  -3.027  1.00  0.00     0.087 C 
ATOM      4  O   UNL     1       6.925  -1.668  -2.613  1.00  0.00    -0.300 OA
ENDBRANCH   1   2
BRANCH   1   5
ATOM      5  C   UNL     1       8.891   0.533  -1.234  1.00  0.00     0.043 C 
BRANCH   5   6
ATOM      6  C   UNL     1       7.840   0.397  -0.210  1.00  0.00    -0.044 A 
ATOM      7  C   UNL     1       7.918  -0.572   0.797  1.00  0.00     0.008 A 
ATOM      8  C   UNL     1       6.751   1.239  -0.234  1.00  0.00     0.054 A 
ATOM      9  C   UNL     1       6.901  -0.652   1.731  1.00  0.00     0.051 A 
ATOM     10  C   UNL     1       5.727   1.154   0.713  1.00  0.00     0.166 A 
ATOM     11  C   UNL     1       5.802   0.200   1.704  1.00  0.00     0.165 A 
ATOM     12  O   UNL     1       4.559   1.863   0.901  1.00  0.00    -0.454 OA
ATOM     13  O   UNL     1       4.668   0.346   2.488  1.00  0.00    -0.454 OA
ATOM     14  C   UNL     1       3.898   1.447   2.068  1.00  0.00     0.468 C 
ENDBRANCH   5   6
ENDBRANCH   1   5
TORSDOF 3
ENDMDL
