@<TRIPOS>MOLECULE
/home/cewinharhar/GITHUB/reincatalyze/data/processed/docking_pred/2023-May-22-2206_sub9_nm5_bs15_s42_ex16_mel10_mts10000_k50_ec02_g099_lra9e-4_lrc1e-3/ff0363d9ee1910d446632d9597fe578fef33cb13_ligand_9.pdbqt
 14 15 0 0 0
SMALL
GASTEIGER

@<TRIPOS>ATOM
      1  C          5.7160    1.3540   -0.2310 C.3     1  UNL1        0.0800
      2  C          5.0870    1.2490    1.1150 C.2     1  UNL1        0.1300
      3  C          5.3940    0.1200    2.0340 C.3     1  UNL1        0.0870
      4  O          4.2960    2.0920    1.5050 O.2     1  UNL1       -0.3000
      5  C          7.2110    1.1120   -0.1610 C.3     1  UNL1        0.0430
      6  C          7.5880   -0.1650   -0.7930 C.2     1  UNL1       -0.0440
      7  C          7.6620   -0.3000   -2.1840 C.2     1  UNL1        0.0080
      8  C          7.8790   -1.2550   -0.0060 C.2     1  UNL1        0.0540
      9  C          8.0220   -1.5230   -2.7210 C.2     1  UNL1        0.0510
     10  C          8.2430   -2.4890   -0.5530 C.2     1  UNL1        0.1660
     11  C          8.3150   -2.6240   -1.9220 C.2     1  UNL1        0.1650
     12  O          8.5740   -3.7050    0.0070 O.2     1  UNL1       -0.4540
     13  O          8.6940   -3.9330   -2.1760 O.2     1  UNL1       -0.4540
     14  C          8.9570   -4.6280   -0.9800 C.3     1  UNL1        0.4680
@<TRIPOS>BOND
     1     9     7    1
     2     9    11    2
     3     7     6    2
     4    13    11    1
     5    13    14    1
     6    11    10    1
     7    14    12    1
     8     6     5    1
     9     6     8    1
    10    10     8    2
    11    10    12    1
    12     1     5    1
    13     1     2    1
    14     2     4    2
    15     2     3    1
