@<TRIPOS>MOLECULE
/home/cewinharhar/GITHUB/reincatalyze/data/processed/docking_pred/2023-May-22-2206_sub9_nm5_bs15_s42_ex16_mel10_mts10000_k50_ec02_g099_lra9e-4_lrc1e-3/ff0363d9ee1910d446632d9597fe578fef33cb13_ligand_9.pdbqt
 14 15 0 0 0
SMALL
GASTEIGER

@<TRIPOS>ATOM
      1  C          5.4810   -0.0120    2.0030 C.3     1  UNL1        0.0800
      2  C          4.5960    1.1610    1.7540 C.2     1  UNL1        0.1300
      3  C          4.8900    2.1450    0.6790 C.3     1  UNL1        0.0870
      4  O          3.5980    1.3480    2.4310 O.2     1  UNL1       -0.3000
      5  C          6.8960    0.2560    1.5310 C.3     1  UNL1        0.0430
      6  C          7.3110   -0.6930    0.4820 C.2     1  UNL1       -0.0440
      7  C          7.1800   -0.3860   -0.8770 C.2     1  UNL1        0.0080
      8  C          7.8430   -1.9120    0.8370 C.2     1  UNL1        0.0540
      9  C          7.5870   -1.3150   -1.8170 C.2     1  UNL1        0.0510
     10  C          8.2540   -2.8470   -0.1170 C.2     1  UNL1        0.1660
     11  C          8.1250   -2.5470   -1.4550 C.2     1  UNL1        0.1650
     12  O          8.8050   -4.1080   -0.0210 O.2     1  UNL1       -0.4540
     13  O          8.6040   -3.6400   -2.1600 O.2     1  UNL1       -0.4540
     14  C          9.1290   -4.6150   -1.2900 C.3     1  UNL1        0.4680
@<TRIPOS>BOND
     1    13    11    1
     2    13    14    1
     3     9    11    2
     4     9     7    1
     5    11    10    1
     6    14    12    1
     7     7     6    2
     8    10    12    1
     9    10     8    2
    10     6     8    1
    11     6     5    1
    12     3     2    1
    13     5     1    1
    14     2     1    1
    15     2     4    2
