@<TRIPOS>MOLECULE
/home/cewinharhar/GITHUB/reincatalyze/data/processed/docking_pred/2023-Apr-25-2033_maxeplen5_maxtrainstep200_exh16_gamma099_lrac3e-4_lrcr1e-3/00fabcb6e86abbd64330e8a307762c5d347247e8_ligand_2.pdbqt
 12 12 0 0 0
SMALL
GASTEIGER

@<TRIPOS>ATOM
      1  C          4.9770    1.8000    0.6980 C.3     1  UNL1        0.1270
      2  C          4.4580    1.1210    1.9130 C.2     1  UNL1        0.3030
      3  O          5.1440    0.2170    2.4490 O.2     1  UNL1       -0.2520
      4  O          3.2330    1.4490    2.4870 O.3     1  UNL1       -0.4810
      5  H          2.3470    1.3580    1.9680 H       1  UNL1        0.2960
      6  C          6.4780    1.8070    0.7890 C.3     1  UNL1        0.0470
      7  C          7.1170    1.0400   -0.3130 C.2     1  UNL1       -0.0470
      8  C          8.4470    1.2280   -0.6380 C.2     1  UNL1        0.0040
      9  C          6.4210    0.1080   -1.0600 C.2     1  UNL1        0.0040
     10  C          9.0310    0.5100   -1.6640 C.2     1  UNL1        0.0000
     11  C          7.0010   -0.6090   -2.0820 C.2     1  UNL1        0.0000
     12  C          8.3300   -0.4190   -2.4060 C.2     1  UNL1        0.0000
@<TRIPOS>BOND
     1    12    11    2
     2    12    10    1
     3    11     9    1
     4    10     8    2
     5     9     7    2
     6     8     7    1
     7     7     6    1
     8     1     6    1
     9     1     2    1
    10     2     3    2
    11     2     4    1
    12     5     4    1
