@<TRIPOS>MOLECULE
/home/cewinharhar/GITHUB/reincatalyze/data/processed/docking_pred/2023-Apr-25-2033_maxeplen5_maxtrainstep200_exh16_gamma099_lrac3e-4_lrcr1e-3/00fabcb6e86abbd64330e8a307762c5d347247e8_ligand_2.pdbqt
 12 12 0 0 0
SMALL
GASTEIGER

@<TRIPOS>ATOM
      1  C          4.9790    1.8000    0.6970 C.3     1  UNL1        0.1270
      2  C          4.4680    1.1290    1.9200 C.2     1  UNL1        0.3030
      3  O          5.1670    0.2440    2.4700 O.2     1  UNL1       -0.2520
      4  O          3.2360    1.4450    2.4860 O.3     1  UNL1       -0.4810
      5  H          2.4730    1.8620    1.9320 H       1  UNL1        0.2960
      6  C          6.4800    1.8220    0.7860 C.3     1  UNL1        0.0470
      7  C          7.1260    1.0640   -0.3170 C.2     1  UNL1       -0.0470
      8  C          6.4080    0.1660   -1.0840 C.2     1  UNL1        0.0040
      9  C          8.4630    1.2170   -0.6310 C.2     1  UNL1        0.0040
     10  C          7.0180   -0.5340   -2.1080 C.2     1  UNL1        0.0000
     11  C          9.0740    0.5200   -1.6500 C.2     1  UNL1        0.0000
     12  C          8.3540   -0.3760   -2.4140 C.2     1  UNL1        0.0000
@<TRIPOS>BOND
     1    12    10    2
     2    12    11    1
     3    10     8    1
     4    11     9    2
     5     8     7    2
     6     9     7    1
     7     7     6    1
     8     1     6    1
     9     1     2    1
    10     2     3    2
    11     2     4    1
    12     5     4    1
