@<TRIPOS>MOLECULE
/home/cewinharhar/GITHUB/reincatalyze/data/processed/docking_pred/2023-Apr-25-2033_maxeplen5_maxtrainstep200_exh16_gamma099_lrac3e-4_lrcr1e-3/00fabcb6e86abbd64330e8a307762c5d347247e8_ligand_2.pdbqt
 12 12 0 0 0
SMALL
GASTEIGER

@<TRIPOS>ATOM
      1  C          8.4280   -0.6060   -2.1470 C.3     1  UNL1        0.1270
      2  C          8.4150   -1.8920   -2.8900 C.2     1  UNL1        0.3030
      3  O          7.3150   -2.4100   -3.2000 O.2     1  UNL1       -0.2520
      4  O          9.5830   -2.5520   -3.2620 O.3     1  UNL1       -0.4810
      5  H         10.2900   -2.8400   -2.5670 H       1  UNL1        0.2960
      6  C          7.0220   -0.0700   -2.1450 C.3     1  UNL1        0.0470
      7  C          6.4710    0.0700   -0.7720 C.2     1  UNL1       -0.0470
      8  C          6.5860   -0.9490    0.1540 C.2     1  UNL1        0.0040
      9  C          5.8210    1.2170   -0.3540 C.2     1  UNL1        0.0040
     10  C          6.0700   -0.8080    1.4280 C.2     1  UNL1        0.0000
     11  C          5.3050    1.3600    0.9150 C.2     1  UNL1        0.0000
     12  C          5.4220    0.3400    1.8370 C.2     1  UNL1        0.0000
@<TRIPOS>BOND
     1     4     2    1
     2     4     5    1
     3     3     2    2
     4     2     1    1
     5     1     6    1
     6     6     7    1
     7     7     9    2
     8     7     8    1
     9     9    11    1
    10     8    10    2
    11    11    12    2
    12    10    12    1
