MODEL 1
REMARK VINA RESULT:      -7.3      0.000      0.000
REMARK SMILES O=C(O)CCc1ccccc1
REMARK SMILES IDX 4 1 2 2 1 3 3 4 5 6 6 7 7 8 11 9 8 10 10 11 9 12
REMARK H PARENT 3 5
REMARK Flexibility Score: inf
ROOT
ATOM      1  C   UNL     1       8.454  -0.601  -2.171  1.00  0.00     0.127 C 
ENDROOT
BRANCH   1   2
ATOM      2  C   UNL     1       8.459  -1.889  -2.912  1.00  0.00     0.303 C 
ATOM      3  O   UNL     1       9.548  -2.487  -3.094  1.00  0.00    -0.252 OA
BRANCH   2   4
ATOM      4  O   UNL     1       7.297  -2.465  -3.418  1.00  0.00    -0.481 OA
ATOM      5  H   UNL     1       7.162  -3.488  -3.442  1.00  0.00     0.296 HD
ENDBRANCH   2   4
ENDBRANCH   1   2
BRANCH   1   6
ATOM      6  C   UNL     1       7.040  -0.091  -2.161  1.00  0.00     0.047 C 
BRANCH   6   7
ATOM      7  C   UNL     1       6.494   0.042  -0.784  1.00  0.00    -0.047 A 
ATOM      8  C   UNL     1       5.856   1.198  -0.376  1.00  0.00     0.004 A 
ATOM      9  C   UNL     1       6.595  -0.973   0.148  1.00  0.00     0.004 A 
ATOM     10  C   UNL     1       5.353   1.311   0.906  1.00  0.00     0.000 A 
ATOM     11  C   UNL     1       6.094  -0.863   1.426  1.00  0.00     0.000 A 
ATOM     12  C   UNL     1       5.458   0.293   1.831  1.00  0.00     0.000 A 
ENDBRANCH   6   7
ENDBRANCH   1   6
TORSDOF 4
ENDMDL
MODEL 2
REMARK VINA RESULT:      -7.2      0.098      1.717
REMARK SMILES O=C(O)CCc1ccccc1
REMARK SMILES IDX 4 1 2 2 1 3 3 4 5 6 6 7 7 8 11 9 8 10 10 11 9 12
REMARK H PARENT 3 5
REMARK Flexibility Score: inf
ROOT
ATOM      1  C   UNL     1       8.428  -0.606  -2.147  1.00  0.00     0.127 C 
ENDROOT
BRANCH   1   2
ATOM      2  C   UNL     1       8.415  -1.892  -2.890  1.00  0.00     0.303 C 
ATOM      3  O   UNL     1       7.315  -2.410  -3.200  1.00  0.00    -0.252 OA
BRANCH   2   4
ATOM      4  O   UNL     1       9.583  -2.552  -3.262  1.00  0.00    -0.481 OA
ATOM      5  H   UNL     1      10.290  -2.840  -2.567  1.00  0.00     0.296 HD
ENDBRANCH   2   4
ENDBRANCH   1   2
BRANCH   1   6
ATOM      6  C   UNL     1       7.022  -0.070  -2.145  1.00  0.00     0.047 C 
BRANCH   6   7
ATOM      7  C   UNL     1       6.471   0.070  -0.772  1.00  0.00    -0.047 A 
ATOM      8  C   UNL     1       6.586  -0.949   0.154  1.00  0.00     0.004 A 
ATOM      9  C   UNL     1       5.821   1.217  -0.354  1.00  0.00     0.004 A 
ATOM     10  C   UNL     1       6.070  -0.808   1.428  1.00  0.00     0.000 A 
ATOM     11  C   UNL     1       5.305   1.360   0.915  1.00  0.00     0.000 A 
ATOM     12  C   UNL     1       5.422   0.340   1.837  1.00  0.00     0.000 A 
ENDBRANCH   6   7
ENDBRANCH   1   6
TORSDOF 4
ENDMDL
MODEL 3
REMARK VINA RESULT:      -6.8      3.386      5.100
REMARK SMILES O=C(O)CCc1ccccc1
REMARK SMILES IDX 4 1 2 2 1 3 3 4 5 6 6 7 7 8 11 9 8 10 10 11 9 12
REMARK H PARENT 3 5
REMARK Flexibility Score: inf
ROOT
ATOM      1  C   UNL     1       4.979   1.800   0.697  1.00  0.00     0.127 C 
ENDROOT
BRANCH   1   2
ATOM      2  C   UNL     1       4.468   1.129   1.920  1.00  0.00     0.303 C 
ATOM      3  O   UNL     1       5.167   0.244   2.470  1.00  0.00    -0.252 OA
BRANCH   2   4
ATOM      4  O   UNL     1       3.236   1.445   2.486  1.00  0.00    -0.481 OA
ATOM      5  H   UNL     1       2.473   1.862   1.932  1.00  0.00     0.296 HD
ENDBRANCH   2   4
ENDBRANCH   1   2
BRANCH   1   6
ATOM      6  C   UNL     1       6.480   1.822   0.786  1.00  0.00     0.047 C 
BRANCH   6   7
ATOM      7  C   UNL     1       7.126   1.064  -0.317  1.00  0.00    -0.047 A 
ATOM      8  C   UNL     1       6.408   0.166  -1.084  1.00  0.00     0.004 A 
ATOM      9  C   UNL     1       8.463   1.217  -0.631  1.00  0.00     0.004 A 
ATOM     10  C   UNL     1       7.018  -0.534  -2.108  1.00  0.00     0.000 A 
ATOM     11  C   UNL     1       9.074   0.520  -1.650  1.00  0.00     0.000 A 
ATOM     12  C   UNL     1       8.354  -0.376  -2.414  1.00  0.00     0.000 A 
ENDBRANCH   6   7
ENDBRANCH   1   6
TORSDOF 4
ENDMDL
MODEL 4
REMARK VINA RESULT:      -6.8      1.041      1.990
REMARK SMILES O=C(O)CCc1ccccc1
REMARK SMILES IDX 4 1 2 2 1 3 3 4 5 6 6 7 7 8 11 9 8 10 10 11 9 12
REMARK H PARENT 3 5
REMARK Flexibility Score: inf
ROOT
ATOM      1  C   UNL     1       7.339  -1.284  -2.261  1.00  0.00     0.127 C 
ENDROOT
BRANCH   1   2
ATOM      2  C   UNL     1       8.802  -1.338  -2.513  1.00  0.00     0.303 C 
ATOM      3  O   UNL     1       9.276  -2.297  -3.169  1.00  0.00    -0.252 OA
BRANCH   2   4
ATOM      4  O   UNL     1       9.677  -0.359  -2.049  1.00  0.00    -0.481 OA
ATOM      5  H   UNL     1      10.694  -0.417  -2.212  1.00  0.00     0.296 HD
ENDBRANCH   2   4
ENDBRANCH   1   2
BRANCH   1   6
ATOM      6  C   UNL     1       7.128  -1.453  -0.782  1.00  0.00     0.047 C 
BRANCH   6   7
ATOM      7  C   UNL     1       6.396  -0.308  -0.179  1.00  0.00    -0.047 A 
ATOM      8  C   UNL     1       5.971  -0.343   1.135  1.00  0.00     0.004 A 
ATOM      9  C   UNL     1       6.106   0.839  -0.894  1.00  0.00     0.004 A 
ATOM     10  C   UNL     1       5.292   0.727   1.686  1.00  0.00     0.000 A 
ATOM     11  C   UNL     1       5.429   1.906  -0.348  1.00  0.00     0.000 A 
ATOM     12  C   UNL     1       5.006   1.868   0.966  1.00  0.00     0.000 A 
ENDBRANCH   6   7
ENDBRANCH   1   6
TORSDOF 4
ENDMDL
MODEL 5
REMARK VINA RESULT:      -6.8      3.381      5.071
REMARK SMILES O=C(O)CCc1ccccc1
REMARK SMILES IDX 4 1 2 2 1 3 3 4 5 6 6 7 7 8 11 9 8 10 10 11 9 12
REMARK H PARENT 3 5
REMARK Flexibility Score: inf
ROOT
ATOM      1  C   UNL     1       4.977   1.800   0.698  1.00  0.00     0.127 C 
ENDROOT
BRANCH   1   2
ATOM      2  C   UNL     1       4.458   1.121   1.913  1.00  0.00     0.303 C 
ATOM      3  O   UNL     1       5.144   0.217   2.449  1.00  0.00    -0.252 OA
BRANCH   2   4
ATOM      4  O   UNL     1       3.233   1.449   2.487  1.00  0.00    -0.481 OA
ATOM      5  H   UNL     1       2.347   1.358   1.968  1.00  0.00     0.296 HD
ENDBRANCH   2   4
ENDBRANCH   1   2
BRANCH   1   6
ATOM      6  C   UNL     1       6.478   1.807   0.789  1.00  0.00     0.047 C 
BRANCH   6   7
ATOM      7  C   UNL     1       7.117   1.040  -0.313  1.00  0.00    -0.047 A 
ATOM      8  C   UNL     1       8.447   1.228  -0.638  1.00  0.00     0.004 A 
ATOM      9  C   UNL     1       6.421   0.108  -1.060  1.00  0.00     0.004 A 
ATOM     10  C   UNL     1       9.031   0.510  -1.664  1.00  0.00     0.000 A 
ATOM     11  C   UNL     1       7.001  -0.609  -2.082  1.00  0.00     0.000 A 
ATOM     12  C   UNL     1       8.330  -0.419  -2.406  1.00  0.00     0.000 A 
ENDBRANCH   6   7
ENDBRANCH   1   6
TORSDOF 4
ENDMDL
