@<TRIPOS>MOLECULE
/home/cewinharhar/GITHUB/reincatalyze/data/processed/docking_pred/2023-Apr-25-2033_maxeplen5_maxtrainstep200_exh16_gamma099_lrac3e-4_lrcr1e-3/00fabcb6e86abbd64330e8a307762c5d347247e8_ligand_2.pdbqt
 12 12 0 0 0
SMALL
GASTEIGER

@<TRIPOS>ATOM
      1  C          7.3390   -1.2840   -2.2610 C.3     1  UNL1        0.1270
      2  C          8.8020   -1.3380   -2.5130 C.2     1  UNL1        0.3030
      3  O          9.2760   -2.2970   -3.1690 O.2     1  UNL1       -0.2520
      4  O          9.6770   -0.3590   -2.0490 O.3     1  UNL1       -0.4810
      5  H         10.6940   -0.4170   -2.2120 H       1  UNL1        0.2960
      6  C          7.1280   -1.4530   -0.7820 C.3     1  UNL1        0.0470
      7  C          6.3960   -0.3080   -0.1790 C.2     1  UNL1       -0.0470
      8  C          5.9710   -0.3430    1.1350 C.2     1  UNL1        0.0040
      9  C          6.1060    0.8390   -0.8940 C.2     1  UNL1        0.0040
     10  C          5.2920    0.7270    1.6860 C.2     1  UNL1        0.0000
     11  C          5.4290    1.9060   -0.3480 C.2     1  UNL1        0.0000
     12  C          5.0060    1.8680    0.9660 C.2     1  UNL1        0.0000
@<TRIPOS>BOND
     1     3     2    2
     2     2     1    1
     3     2     4    1
     4     1     6    1
     5     5     4    1
     6     9    11    1
     7     9     7    2
     8     6     7    1
     9    11    12    2
    10     7     8    1
    11    12    10    1
    12     8    10    2
