@<TRIPOS>MOLECULE
/home/cewinharhar/GITHUB/reincatalyze/data/processed/docking_pred/2023-Apr-25-2033_maxeplen5_maxtrainstep200_exh16_gamma099_lrac3e-4_lrcr1e-3/00fabcb6e86abbd64330e8a307762c5d347247e8_ligand_2.pdbqt
 12 12 0 0 0
SMALL
GASTEIGER

@<TRIPOS>ATOM
      1  C          8.4540   -0.6010   -2.1710 C.3     1  UNL1        0.1270
      2  C          8.4590   -1.8890   -2.9120 C.2     1  UNL1        0.3030
      3  O          9.5480   -2.4870   -3.0940 O.2     1  UNL1       -0.2520
      4  O          7.2970   -2.4650   -3.4180 O.3     1  UNL1       -0.4810
      5  H          7.1620   -3.4880   -3.4420 H       1  UNL1        0.2960
      6  C          7.0400   -0.0910   -2.1610 C.3     1  UNL1        0.0470
      7  C          6.4940    0.0420   -0.7840 C.2     1  UNL1       -0.0470
      8  C          5.8560    1.1980   -0.3760 C.2     1  UNL1        0.0040
      9  C          6.5950   -0.9730    0.1480 C.2     1  UNL1        0.0040
     10  C          5.3530    1.3110    0.9060 C.2     1  UNL1        0.0000
     11  C          6.0940   -0.8630    1.4260 C.2     1  UNL1        0.0000
     12  C          5.4580    0.2930    1.8310 C.2     1  UNL1        0.0000
@<TRIPOS>BOND
     1     5     4    1
     2     4     2    1
     3     3     2    2
     4     2     1    1
     5     1     6    1
     6     6     7    1
     7     7     8    2
     8     7     9    1
     9     8    10    1
    10     9    11    2
    11    10    12    2
    12    11    12    1
