@<TRIPOS>MOLECULE
/home/cewinharhar/GITHUB/reincatalyze/data/processed/docking_pred/2023-Apr-25-2033_maxeplen5_maxtrainstep200_exh16_gamma099_lrac3e-4_lrcr1e-3/01f25cbd7413d58f388abe94d9cfceb48e05f66f_ligand_2.pdbqt
 12 12 0 0 0
SMALL
GASTEIGER

@<TRIPOS>ATOM
      1  C          8.8000   -0.8180   -1.9360 C.3     1  UNL1        0.1270
      2  C          8.7180   -1.9810   -2.8580 C.2     1  UNL1        0.3030
      3  O          9.7760   -2.5460   -3.2270 O.2     1  UNL1       -0.2520
      4  O          7.5060   -2.4740   -3.3320 O.3     1  UNL1       -0.4810
      5  H          7.0490   -3.2960   -2.9080 H       1  UNL1        0.2960
      6  C          7.5050   -0.0610   -2.0450 C.3     1  UNL1        0.0470
      7  C          6.7950    0.0380   -0.7430 C.2     1  UNL1       -0.0470
      8  C          6.0300    1.1450   -0.4290 C.2     1  UNL1        0.0040
      9  C          6.8620   -0.9610    0.2090 C.2     1  UNL1        0.0040
     10  C          5.3730    1.2270    0.7840 C.2     1  UNL1        0.0000
     11  C          6.2080   -0.8810    1.4190 C.2     1  UNL1        0.0000
     12  C          5.4450    0.2260    1.7310 C.2     1  UNL1        0.0000
@<TRIPOS>BOND
     1     4     5    1
     2     4     2    1
     3     3     2    2
     4     2     1    1
     5     6     1    1
     6     6     7    1
     7     7     8    2
     8     7     9    1
     9     8    10    1
    10     9    11    2
    11    10    12    2
    12    11    12    1
