@<TRIPOS>MOLECULE
/home/cewinharhar/GITHUB/reincatalyze/data/processed/docking_pred/2023-Apr-25-2033_maxeplen5_maxtrainstep200_exh16_gamma099_lrac3e-4_lrcr1e-3/01f25cbd7413d58f388abe94d9cfceb48e05f66f_ligand_2.pdbqt
 12 12 0 0 0
SMALL
GASTEIGER

@<TRIPOS>ATOM
      1  C          5.7360    1.5300   -0.3240 C.3     1  UNL1        0.1270
      2  C          5.2520    2.2170    0.9020 C.2     1  UNL1        0.3030
      3  O          4.3930    1.6520    1.6210 O.2     1  UNL1       -0.2520
      4  O          5.7160    3.4710    1.2890 O.3     1  UNL1       -0.4810
      5  H          6.6810    3.7780    1.0940 H       1  UNL1        0.2960
      6  C          6.2410    0.1750    0.0860 C.3     1  UNL1        0.0470
      7  C          7.7120    0.0410   -0.0820 C.2     1  UNL1       -0.0470
      8  C          8.4160    0.8880   -0.9160 C.2     1  UNL1        0.0040
      9  C          8.4430   -0.9260    0.5810 C.2     1  UNL1        0.0040
     10  C          9.7830    0.7560   -1.0660 C.2     1  UNL1        0.0000
     11  C          9.8060   -1.0600    0.4340 C.2     1  UNL1        0.0000
     12  C         10.5070   -0.2130   -0.4000 C.2     1  UNL1        0.0000
@<TRIPOS>BOND
     1    10     8    1
     2    10    12    2
     3     8     7    2
     4    12    11    1
     5     1     6    1
     6     1     2    1
     7     7     6    1
     8     7     9    1
     9    11     9    2
    10     2     4    1
    11     2     3    2
    12     5     4    1
