@<TRIPOS>MOLECULE
/home/cewinharhar/GITHUB/reincatalyze/data/processed/docking_pred/2023-Apr-25-2033_maxeplen5_maxtrainstep200_exh16_gamma099_lrac3e-4_lrcr1e-3/01f25cbd7413d58f388abe94d9cfceb48e05f66f_ligand_2.pdbqt
 12 12 0 0 0
SMALL
GASTEIGER

@<TRIPOS>ATOM
      1  C          9.4730   -1.0570    0.4460 C.3     1  UNL1        0.1270
      2  C         10.2190   -0.5960   -0.7530 C.2     1  UNL1        0.3030
      3  O         10.1670   -1.2770   -1.8060 O.2     1  UNL1       -0.2520
      4  O         10.9810    0.5700   -0.7570 O.3     1  UNL1       -0.4810
      5  H         11.9170    0.6070   -1.1880 H       1  UNL1        0.2960
      6  C          8.1040   -1.4820   -0.0080 C.3     1  UNL1        0.0470
      7  C          7.0590   -0.4770    0.3220 C.2     1  UNL1       -0.0470
      8  C          6.7030    0.5080   -0.5790 C.2     1  UNL1        0.0040
      9  C          6.3950   -0.4780    1.5350 C.2     1  UNL1        0.0040
     10  C          5.7300    1.4360   -0.2610 C.2     1  UNL1        0.0000
     11  C          5.4250    0.4460    1.8530 C.2     1  UNL1        0.0000
     12  C          5.0720    1.4300    0.9510 C.2     1  UNL1        0.0000
@<TRIPOS>BOND
     1     3     2    2
     2     5     4    1
     3     4     2    1
     4     2     1    1
     5     8    10    1
     6     8     7    2
     7    10    12    2
     8     6     7    1
     9     6     1    1
    10     7     9    1
    11    12    11    1
    12     9    11    2
