@<TRIPOS>MOLECULE
/home/cewinharhar/GITHUB/reincatalyze/data/processed/docking_pred/2023-Apr-25-2033_maxeplen5_maxtrainstep200_exh16_gamma099_lrac3e-4_lrcr1e-3/01f25cbd7413d58f388abe94d9cfceb48e05f66f_ligand_2.pdbqt
 12 12 0 0 0
SMALL
GASTEIGER

@<TRIPOS>ATOM
      1  C          8.5130   -0.7610   -1.9790 C.3     1  UNL1        0.1270
      2  C          8.4580   -1.9750   -2.8340 C.2     1  UNL1        0.3030
      3  O          7.3410   -2.4300   -3.1800 O.2     1  UNL1       -0.2520
      4  O          9.6040   -2.6340   -3.2710 O.3     1  UNL1       -0.4810
      5  H         10.0270   -3.4050   -2.7330 H       1  UNL1        0.2960
      6  C          7.1720   -0.0860   -2.0640 C.3     1  UNL1        0.0470
      7  C          6.5400    0.0910   -0.7300 C.2     1  UNL1       -0.0470
      8  C          6.6160   -0.8960    0.2340 C.2     1  UNL1        0.0040
      9  C          5.8530    1.2400   -0.3880 C.2     1  UNL1        0.0040
     10  C          6.0250   -0.7210    1.4710 C.2     1  UNL1        0.0000
     11  C          5.2630    1.4170    0.8440 C.2     1  UNL1        0.0000
     12  C          5.3400    0.4290    1.8050 C.2     1  UNL1        0.0000
@<TRIPOS>BOND
     1     4     2    1
     2     4     5    1
     3     3     2    2
     4     2     1    1
     5     6     1    1
     6     6     7    1
     7     7     9    2
     8     7     8    1
     9     9    11    1
    10     8    10    2
    11    11    12    2
    12    10    12    1
