MODEL 1
REMARK VINA RESULT:      -6.9      0.000      0.000
REMARK SMILES O=C(O)CCc1ccccc1
REMARK SMILES IDX 4 1 2 2 1 3 3 4 5 6 6 7 7 8 11 9 8 10 10 11 9 12
REMARK H PARENT 3 5
REMARK Flexibility Score: inf
ROOT
ATOM      1  C   UNL     1       8.800  -0.818  -1.936  1.00  0.00     0.127 C 
ENDROOT
BRANCH   1   2
ATOM      2  C   UNL     1       8.718  -1.981  -2.858  1.00  0.00     0.303 C 
ATOM      3  O   UNL     1       9.776  -2.546  -3.227  1.00  0.00    -0.252 OA
BRANCH   2   4
ATOM      4  O   UNL     1       7.506  -2.474  -3.332  1.00  0.00    -0.481 OA
ATOM      5  H   UNL     1       7.049  -3.296  -2.908  1.00  0.00     0.296 HD
ENDBRANCH   2   4
ENDBRANCH   1   2
BRANCH   1   6
ATOM      6  C   UNL     1       7.505  -0.061  -2.045  1.00  0.00     0.047 C 
BRANCH   6   7
ATOM      7  C   UNL     1       6.795   0.038  -0.743  1.00  0.00    -0.047 A 
ATOM      8  C   UNL     1       6.030   1.145  -0.429  1.00  0.00     0.004 A 
ATOM      9  C   UNL     1       6.862  -0.961   0.209  1.00  0.00     0.004 A 
ATOM     10  C   UNL     1       5.373   1.227   0.784  1.00  0.00     0.000 A 
ATOM     11  C   UNL     1       6.208  -0.881   1.419  1.00  0.00     0.000 A 
ATOM     12  C   UNL     1       5.445   0.226   1.731  1.00  0.00     0.000 A 
ENDBRANCH   6   7
ENDBRANCH   1   6
TORSDOF 4
ENDMDL
MODEL 2
REMARK VINA RESULT:      -6.9      0.253      1.736
REMARK SMILES O=C(O)CCc1ccccc1
REMARK SMILES IDX 4 1 2 2 1 3 3 4 5 6 6 7 7 8 11 9 8 10 10 11 9 12
REMARK H PARENT 3 5
REMARK Flexibility Score: inf
ROOT
ATOM      1  C   UNL     1       8.513  -0.761  -1.979  1.00  0.00     0.127 C 
ENDROOT
BRANCH   1   2
ATOM      2  C   UNL     1       8.458  -1.975  -2.834  1.00  0.00     0.303 C 
ATOM      3  O   UNL     1       7.341  -2.430  -3.180  1.00  0.00    -0.252 OA
BRANCH   2   4
ATOM      4  O   UNL     1       9.604  -2.634  -3.271  1.00  0.00    -0.481 OA
ATOM      5  H   UNL     1      10.027  -3.405  -2.733  1.00  0.00     0.296 HD
ENDBRANCH   2   4
ENDBRANCH   1   2
BRANCH   1   6
ATOM      6  C   UNL     1       7.172  -0.086  -2.064  1.00  0.00     0.047 C 
BRANCH   6   7
ATOM      7  C   UNL     1       6.540   0.091  -0.730  1.00  0.00    -0.047 A 
ATOM      8  C   UNL     1       6.616  -0.896   0.234  1.00  0.00     0.004 A 
ATOM      9  C   UNL     1       5.853   1.240  -0.388  1.00  0.00     0.004 A 
ATOM     10  C   UNL     1       6.025  -0.721   1.471  1.00  0.00     0.000 A 
ATOM     11  C   UNL     1       5.263   1.417   0.844  1.00  0.00     0.000 A 
ATOM     12  C   UNL     1       5.340   0.429   1.805  1.00  0.00     0.000 A 
ENDBRANCH   6   7
ENDBRANCH   1   6
TORSDOF 4
ENDMDL
MODEL 3
REMARK VINA RESULT:      -6.6      3.393      5.145
REMARK SMILES O=C(O)CCc1ccccc1
REMARK SMILES IDX 4 1 2 2 1 3 3 4 5 6 6 7 7 8 11 9 8 10 10 11 9 12
REMARK H PARENT 3 5
REMARK Flexibility Score: inf
ROOT
ATOM      1  C   UNL     1       4.966   1.812   0.691  1.00  0.00     0.127 C 
ENDROOT
BRANCH   1   2
ATOM      2  C   UNL     1       4.462   1.135   1.914  1.00  0.00     0.303 C 
ATOM      3  O   UNL     1       5.166   0.249   2.457  1.00  0.00    -0.252 OA
BRANCH   2   4
ATOM      4  O   UNL     1       3.233   1.447   2.489  1.00  0.00    -0.481 OA
ATOM      5  H   UNL     1       3.097   2.298   3.056  1.00  0.00     0.296 HD
ENDBRANCH   2   4
ENDBRANCH   1   2
BRANCH   1   6
ATOM      6  C   UNL     1       6.467   1.844   0.776  1.00  0.00     0.047 C 
BRANCH   6   7
ATOM      7  C   UNL     1       7.115   1.090  -0.329  1.00  0.00    -0.047 A 
ATOM      8  C   UNL     1       6.391   0.221  -1.122  1.00  0.00     0.004 A 
ATOM      9  C   UNL     1       8.460   1.220  -0.617  1.00  0.00     0.004 A 
ATOM     10  C   UNL     1       7.004  -0.475  -2.147  1.00  0.00     0.000 A 
ATOM     11  C   UNL     1       9.073   0.528  -1.638  1.00  0.00     0.000 A 
ATOM     12  C   UNL     1       8.348  -0.341  -2.428  1.00  0.00     0.000 A 
ENDBRANCH   6   7
ENDBRANCH   1   6
TORSDOF 4
ENDMDL
MODEL 4
REMARK VINA RESULT:      -6.5      3.698      4.998
REMARK SMILES O=C(O)CCc1ccccc1
REMARK SMILES IDX 4 1 2 2 1 3 3 4 5 6 6 7 7 8 11 9 8 10 10 11 9 12
REMARK H PARENT 3 5
REMARK Flexibility Score: inf
ROOT
ATOM      1  C   UNL     1       5.736   1.530  -0.324  1.00  0.00     0.127 C 
ENDROOT
BRANCH   1   2
ATOM      2  C   UNL     1       5.252   2.217   0.902  1.00  0.00     0.303 C 
ATOM      3  O   UNL     1       4.393   1.652   1.621  1.00  0.00    -0.252 OA
BRANCH   2   4
ATOM      4  O   UNL     1       5.716   3.471   1.289  1.00  0.00    -0.481 OA
ATOM      5  H   UNL     1       6.681   3.778   1.094  1.00  0.00     0.296 HD
ENDBRANCH   2   4
ENDBRANCH   1   2
BRANCH   1   6
ATOM      6  C   UNL     1       6.241   0.175   0.086  1.00  0.00     0.047 C 
BRANCH   6   7
ATOM      7  C   UNL     1       7.712   0.041  -0.082  1.00  0.00    -0.047 A 
ATOM      8  C   UNL     1       8.416   0.888  -0.916  1.00  0.00     0.004 A 
ATOM      9  C   UNL     1       8.443  -0.926   0.581  1.00  0.00     0.004 A 
ATOM     10  C   UNL     1       9.783   0.756  -1.066  1.00  0.00     0.000 A 
ATOM     11  C   UNL     1       9.806  -1.060   0.434  1.00  0.00     0.000 A 
ATOM     12  C   UNL     1      10.507  -0.213  -0.400  1.00  0.00     0.000 A 
ENDBRANCH   6   7
ENDBRANCH   1   6
TORSDOF 4
ENDMDL
MODEL 5
REMARK VINA RESULT:      -6.4      1.751      2.406
REMARK SMILES O=C(O)CCc1ccccc1
REMARK SMILES IDX 4 1 2 2 1 3 3 4 5 6 6 7 7 8 11 9 8 10 10 11 9 12
REMARK H PARENT 3 5
REMARK Flexibility Score: inf
ROOT
ATOM      1  C   UNL     1       9.473  -1.057   0.446  1.00  0.00     0.127 C 
ENDROOT
BRANCH   1   2
ATOM      2  C   UNL     1      10.219  -0.596  -0.753  1.00  0.00     0.303 C 
ATOM      3  O   UNL     1      10.167  -1.277  -1.806  1.00  0.00    -0.252 OA
BRANCH   2   4
ATOM      4  O   UNL     1      10.981   0.570  -0.757  1.00  0.00    -0.481 OA
ATOM      5  H   UNL     1      11.917   0.607  -1.188  1.00  0.00     0.296 HD
ENDBRANCH   2   4
ENDBRANCH   1   2
BRANCH   1   6
ATOM      6  C   UNL     1       8.104  -1.482  -0.008  1.00  0.00     0.047 C 
BRANCH   6   7
ATOM      7  C   UNL     1       7.059  -0.477   0.322  1.00  0.00    -0.047 A 
ATOM      8  C   UNL     1       6.703   0.508  -0.579  1.00  0.00     0.004 A 
ATOM      9  C   UNL     1       6.395  -0.478   1.535  1.00  0.00     0.004 A 
ATOM     10  C   UNL     1       5.730   1.436  -0.261  1.00  0.00     0.000 A 
ATOM     11  C   UNL     1       5.425   0.446   1.853  1.00  0.00     0.000 A 
ATOM     12  C   UNL     1       5.072   1.430   0.951  1.00  0.00     0.000 A 
ENDBRANCH   6   7
ENDBRANCH   1   6
TORSDOF 4
ENDMDL
