@<TRIPOS>MOLECULE
/home/cewinharhar/GITHUB/reincatalyze/data/processed/docking_pred/2023-Apr-25-2033_maxeplen5_maxtrainstep200_exh16_gamma099_lrac3e-4_lrcr1e-3/034cecc51265c6b10d0b2cc1c9f67b1ec6b5e3be_ligand_2.pdbqt
 12 12 0 0 0
SMALL
GASTEIGER

@<TRIPOS>ATOM
      1  C          5.0380    1.7420    0.7310 C.3     1  UNL1        0.1270
      2  C          4.4650    1.0920    1.9390 C.2     1  UNL1        0.3030
      3  O          5.1100    0.1780    2.5060 O.2     1  UNL1       -0.2520
      4  O          3.2320    1.4600    2.4710 O.3     1  UNL1       -0.4810
      5  H          2.7620    2.3370    2.2000 H       1  UNL1        0.2960
      6  C          6.5350    1.6580    0.8390 C.3     1  UNL1        0.0470
      7  C          7.1460    0.9150   -0.2940 C.2     1  UNL1       -0.0470
      8  C          8.4240    1.2020   -0.7320 C.2     1  UNL1        0.0040
      9  C          6.4720   -0.0910   -0.9620 C.2     1  UNL1        0.0040
     10  C          8.9820    0.5050   -1.7870 C.2     1  UNL1        0.0000
     11  C          7.0260   -0.7870   -2.0130 C.2     1  UNL1        0.0000
     12  C          8.3030   -0.4980   -2.4490 C.2     1  UNL1        0.0000
@<TRIPOS>BOND
     1    12    11    2
     2    12    10    1
     3    11     9    1
     4    10     8    2
     5     9     7    2
     6     8     7    1
     7     7     6    1
     8     1     6    1
     9     1     2    1
    10     2     4    1
    11     2     3    2
    12     5     4    1
