@<TRIPOS>MOLECULE
/home/cewinharhar/GITHUB/reincatalyze/data/processed/docking_pred/2023-Apr-25-2033_maxeplen5_maxtrainstep200_exh16_gamma099_lrac3e-4_lrcr1e-3/034cecc51265c6b10d0b2cc1c9f67b1ec6b5e3be_ligand_2.pdbqt
 12 12 0 0 0
SMALL
GASTEIGER

@<TRIPOS>ATOM
      1  C          8.0340   -0.7790   -2.1100 C.3     1  UNL1        0.1270
      2  C          8.2520   -1.9520   -2.9960 C.2     1  UNL1        0.3030
      3  O          9.4150   -2.3990   -3.1450 O.2     1  UNL1       -0.2520
      4  O          7.2110   -2.5810   -3.6720 O.3     1  UNL1       -0.4810
      5  H          7.0330   -2.4130   -4.6740 H       1  UNL1        0.2960
      6  C          7.4020   -1.2810   -0.8410 C.3     1  UNL1        0.0470
      7  C          6.5640   -0.2480   -0.1770 C.2     1  UNL1       -0.0470
      8  C          6.1950    0.9070   -0.8380 C.2     1  UNL1        0.0040
      9  C          6.1140   -0.3900    1.1220 C.2     1  UNL1        0.0040
     10  C          5.4150    1.8610   -0.2120 C.2     1  UNL1        0.0000
     11  C          5.3370    0.5580    1.7490 C.2     1  UNL1        0.0000
     12  C          4.9700    1.7120    1.0860 C.2     1  UNL1        0.0000
@<TRIPOS>BOND
     1     5     4    1
     2     4     2    1
     3     3     2    2
     4     2     1    1
     5     1     6    1
     6     6     7    1
     7     8    10    1
     8     8     7    2
     9    10    12    2
    10     7     9    1
    11    12    11    1
    12     9    11    2
