@<TRIPOS>MOLECULE
/home/cewinharhar/GITHUB/reincatalyze/data/processed/docking_pred/2023-Apr-25-2033_maxeplen5_maxtrainstep200_exh16_gamma099_lrac3e-4_lrcr1e-3/034cecc51265c6b10d0b2cc1c9f67b1ec6b5e3be_ligand_2.pdbqt
 12 12 0 0 0
SMALL
GASTEIGER

@<TRIPOS>ATOM
      1  C          8.4380   -0.6420   -2.1100 C.3     1  UNL1        0.1270
      2  C          8.4060   -1.9100   -2.8850 C.2     1  UNL1        0.3030
      3  O          7.2980   -2.3920   -3.2230 O.2     1  UNL1       -0.2520
      4  O          9.5630   -2.5900   -3.2540 O.3     1  UNL1       -0.4810
      5  H          9.5530   -3.3340   -3.9680 H       1  UNL1        0.2960
      6  C          7.0500   -0.0640   -2.1290 C.3     1  UNL1        0.0470
      7  C          6.4800    0.0880   -0.7650 C.2     1  UNL1       -0.0470
      8  C          5.8130    1.2390   -0.3930 C.2     1  UNL1        0.0040
      9  C          6.5870   -0.9040    0.1920 C.2     1  UNL1        0.0040
     10  C          5.2870    1.3700    0.8780 C.2     1  UNL1        0.0000
     11  C          6.0630   -0.7750    1.4590 C.2     1  UNL1        0.0000
     12  C          5.3970    0.3760    1.8280 C.2     1  UNL1        0.0000
@<TRIPOS>BOND
     1     5     4    1
     2     4     2    1
     3     3     2    2
     4     2     1    1
     5     6     1    1
     6     6     7    1
     7     7     8    2
     8     7     9    1
     9     8    10    1
    10     9    11    2
    11    10    12    2
    12    11    12    1
