@<TRIPOS>MOLECULE
/home/cewinharhar/GITHUB/reincatalyze/data/processed/docking_pred/2023-Apr-25-2033_maxeplen5_maxtrainstep200_exh16_gamma099_lrac3e-4_lrcr1e-3/034cecc51265c6b10d0b2cc1c9f67b1ec6b5e3be_ligand_2.pdbqt
 12 12 0 0 0
SMALL
GASTEIGER

@<TRIPOS>ATOM
      1  C          8.2300   -0.6980   -2.0230 C.3     1  UNL1        0.1270
      2  C          8.3180   -1.9000   -2.8920 C.2     1  UNL1        0.3030
      3  O          7.2620   -2.4240   -3.3210 O.2     1  UNL1       -0.2520
      4  O          9.5340   -2.4740   -3.2520 O.3     1  UNL1       -0.4810
      5  H          9.9570   -2.3160   -4.1800 H       1  UNL1        0.2960
      6  C          7.6740   -1.1370   -0.6970 C.3     1  UNL1        0.0470
      7  C          6.7150   -0.1530   -0.1290 C.2     1  UNL1       -0.0470
      8  C          6.1810   -0.3210    1.1340 C.2     1  UNL1        0.0040
      9  C          6.3130    0.9690   -0.8290 C.2     1  UNL1        0.0040
     10  C          5.2900    0.5990    1.6520 C.2     1  UNL1        0.0000
     11  C          5.4250    1.8880   -0.3150 C.2     1  UNL1        0.0000
     12  C          4.8930    1.7180    0.9480 C.2     1  UNL1        0.0000
@<TRIPOS>BOND
     1     5     4    1
     2     3     2    2
     3     4     2    1
     4     2     1    1
     5     1     6    1
     6     9    11    1
     7     9     7    2
     8     6     7    1
     9    11    12    2
    10     7     8    1
    11    12    10    1
    12     8    10    2
