MODEL 1
REMARK VINA RESULT:      -7.3      0.000      0.000
REMARK SMILES O=C(O)CCc1ccccc1
REMARK SMILES IDX 4 1 2 2 1 3 3 4 5 6 6 7 7 8 11 9 8 10 10 11 9 12
REMARK H PARENT 3 5
REMARK Flexibility Score: inf
ROOT
ATOM      1  C   UNL     1       8.438  -0.642  -2.110  1.00  0.00     0.127 C 
ENDROOT
BRANCH   1   2
ATOM      2  C   UNL     1       8.406  -1.910  -2.885  1.00  0.00     0.303 C 
ATOM      3  O   UNL     1       7.298  -2.392  -3.223  1.00  0.00    -0.252 OA
BRANCH   2   4
ATOM      4  O   UNL     1       9.563  -2.590  -3.254  1.00  0.00    -0.481 OA
ATOM      5  H   UNL     1       9.553  -3.334  -3.968  1.00  0.00     0.296 HD
ENDBRANCH   2   4
ENDBRANCH   1   2
BRANCH   1   6
ATOM      6  C   UNL     1       7.050  -0.064  -2.129  1.00  0.00     0.047 C 
BRANCH   6   7
ATOM      7  C   UNL     1       6.480   0.088  -0.765  1.00  0.00    -0.047 A 
ATOM      8  C   UNL     1       5.813   1.239  -0.393  1.00  0.00     0.004 A 
ATOM      9  C   UNL     1       6.587  -0.904   0.192  1.00  0.00     0.004 A 
ATOM     10  C   UNL     1       5.287   1.370   0.878  1.00  0.00     0.000 A 
ATOM     11  C   UNL     1       6.063  -0.775   1.459  1.00  0.00     0.000 A 
ATOM     12  C   UNL     1       5.397   0.376   1.828  1.00  0.00     0.000 A 
ENDBRANCH   6   7
ENDBRANCH   1   6
TORSDOF 4
ENDMDL
MODEL 2
REMARK VINA RESULT:      -7.3      0.077      1.421
REMARK SMILES O=C(O)CCc1ccccc1
REMARK SMILES IDX 4 1 2 2 1 3 3 4 5 6 6 7 7 8 11 9 8 10 10 11 9 12
REMARK H PARENT 3 5
REMARK Flexibility Score: inf
ROOT
ATOM      1  C   UNL     1       8.445  -0.714  -2.005  1.00  0.00     0.127 C 
ENDROOT
BRANCH   1   2
ATOM      2  C   UNL     1       8.411  -1.933  -2.854  1.00  0.00     0.303 C 
ATOM      3  O   UNL     1       7.302  -2.400  -3.210  1.00  0.00    -0.252 OA
BRANCH   2   4
ATOM      4  O   UNL     1       9.567  -2.583  -3.275  1.00  0.00    -0.481 OA
ATOM      5  H   UNL     1      10.244  -2.133  -3.911  1.00  0.00     0.296 HD
ENDBRANCH   2   4
ENDBRANCH   1   2
BRANCH   1   6
ATOM      6  C   UNL     1       7.086  -0.075  -2.074  1.00  0.00     0.047 C 
BRANCH   6   7
ATOM      7  C   UNL     1       6.476   0.109  -0.731  1.00  0.00    -0.047 A 
ATOM      8  C   UNL     1       6.566  -0.872   0.237  1.00  0.00     0.004 A 
ATOM      9  C   UNL     1       5.795   1.261  -0.384  1.00  0.00     0.004 A 
ATOM     10  C   UNL     1       5.996  -0.690   1.482  1.00  0.00     0.000 A 
ATOM     11  C   UNL     1       5.226   1.445   0.856  1.00  0.00     0.000 A 
ATOM     12  C   UNL     1       5.317   0.462   1.821  1.00  0.00     0.000 A 
ENDBRANCH   6   7
ENDBRANCH   1   6
TORSDOF 4
ENDMDL
MODEL 3
REMARK VINA RESULT:      -7.1      0.638      1.424
REMARK SMILES O=C(O)CCc1ccccc1
REMARK SMILES IDX 4 1 2 2 1 3 3 4 5 6 6 7 7 8 11 9 8 10 10 11 9 12
REMARK H PARENT 3 5
REMARK Flexibility Score: inf
ROOT
ATOM      1  C   UNL     1       8.034  -0.779  -2.110  1.00  0.00     0.127 C 
ENDROOT
BRANCH   1   2
ATOM      2  C   UNL     1       8.252  -1.952  -2.996  1.00  0.00     0.303 C 
ATOM      3  O   UNL     1       9.415  -2.399  -3.145  1.00  0.00    -0.252 OA
BRANCH   2   4
ATOM      4  O   UNL     1       7.211  -2.581  -3.672  1.00  0.00    -0.481 OA
ATOM      5  H   UNL     1       7.033  -2.413  -4.674  1.00  0.00     0.296 HD
ENDBRANCH   2   4
ENDBRANCH   1   2
BRANCH   1   6
ATOM      6  C   UNL     1       7.402  -1.281  -0.841  1.00  0.00     0.047 C 
BRANCH   6   7
ATOM      7  C   UNL     1       6.564  -0.248  -0.177  1.00  0.00    -0.047 A 
ATOM      8  C   UNL     1       6.195   0.907  -0.838  1.00  0.00     0.004 A 
ATOM      9  C   UNL     1       6.114  -0.390   1.122  1.00  0.00     0.004 A 
ATOM     10  C   UNL     1       5.415   1.861  -0.212  1.00  0.00     0.000 A 
ATOM     11  C   UNL     1       5.337   0.558   1.749  1.00  0.00     0.000 A 
ATOM     12  C   UNL     1       4.970   1.712   1.086  1.00  0.00     0.000 A 
ENDBRANCH   6   7
ENDBRANCH   1   6
TORSDOF 4
ENDMDL
MODEL 4
REMARK VINA RESULT:      -7.0      0.634      1.607
REMARK SMILES O=C(O)CCc1ccccc1
REMARK SMILES IDX 4 1 2 2 1 3 3 4 5 6 6 7 7 8 11 9 8 10 10 11 9 12
REMARK H PARENT 3 5
REMARK Flexibility Score: inf
ROOT
ATOM      1  C   UNL     1       8.230  -0.698  -2.023  1.00  0.00     0.127 C 
ENDROOT
BRANCH   1   2
ATOM      2  C   UNL     1       8.318  -1.900  -2.892  1.00  0.00     0.303 C 
ATOM      3  O   UNL     1       7.262  -2.424  -3.321  1.00  0.00    -0.252 OA
BRANCH   2   4
ATOM      4  O   UNL     1       9.534  -2.474  -3.252  1.00  0.00    -0.481 OA
ATOM      5  H   UNL     1       9.957  -2.316  -4.180  1.00  0.00     0.296 HD
ENDBRANCH   2   4
ENDBRANCH   1   2
BRANCH   1   6
ATOM      6  C   UNL     1       7.674  -1.137  -0.697  1.00  0.00     0.047 C 
BRANCH   6   7
ATOM      7  C   UNL     1       6.715  -0.153  -0.129  1.00  0.00    -0.047 A 
ATOM      8  C   UNL     1       6.181  -0.321   1.134  1.00  0.00     0.004 A 
ATOM      9  C   UNL     1       6.313   0.969  -0.829  1.00  0.00     0.004 A 
ATOM     10  C   UNL     1       5.290   0.599   1.652  1.00  0.00     0.000 A 
ATOM     11  C   UNL     1       5.425   1.888  -0.315  1.00  0.00     0.000 A 
ATOM     12  C   UNL     1       4.893   1.718   0.948  1.00  0.00     0.000 A 
ENDBRANCH   6   7
ENDBRANCH   1   6
TORSDOF 4
ENDMDL
MODEL 5
REMARK VINA RESULT:      -6.8      3.304      5.143
REMARK SMILES O=C(O)CCc1ccccc1
REMARK SMILES IDX 4 1 2 2 1 3 3 4 5 6 6 7 7 8 11 9 8 10 10 11 9 12
REMARK H PARENT 3 5
REMARK Flexibility Score: inf
ROOT
ATOM      1  C   UNL     1       5.038   1.742   0.731  1.00  0.00     0.127 C 
ENDROOT
BRANCH   1   2
ATOM      2  C   UNL     1       4.465   1.092   1.939  1.00  0.00     0.303 C 
ATOM      3  O   UNL     1       5.110   0.178   2.506  1.00  0.00    -0.252 OA
BRANCH   2   4
ATOM      4  O   UNL     1       3.232   1.460   2.471  1.00  0.00    -0.481 OA
ATOM      5  H   UNL     1       2.762   2.337   2.200  1.00  0.00     0.296 HD
ENDBRANCH   2   4
ENDBRANCH   1   2
BRANCH   1   6
ATOM      6  C   UNL     1       6.535   1.658   0.839  1.00  0.00     0.047 C 
BRANCH   6   7
ATOM      7  C   UNL     1       7.146   0.915  -0.294  1.00  0.00    -0.047 A 
ATOM      8  C   UNL     1       8.424   1.202  -0.732  1.00  0.00     0.004 A 
ATOM      9  C   UNL     1       6.472  -0.091  -0.962  1.00  0.00     0.004 A 
ATOM     10  C   UNL     1       8.982   0.505  -1.787  1.00  0.00     0.000 A 
ATOM     11  C   UNL     1       7.026  -0.787  -2.013  1.00  0.00     0.000 A 
ATOM     12  C   UNL     1       8.303  -0.498  -2.449  1.00  0.00     0.000 A 
ENDBRANCH   6   7
ENDBRANCH   1   6
TORSDOF 4
ENDMDL
