@<TRIPOS>MOLECULE
/home/cewinharhar/GITHUB/reincatalyze/data/processed/docking_pred/2023-Apr-25-2033_maxeplen5_maxtrainstep200_exh16_gamma099_lrac3e-4_lrcr1e-3/035d1107efb5fe3e99d2a33353f0da4e413613a6_ligand_2.pdbqt
 12 12 0 0 0
SMALL
GASTEIGER

@<TRIPOS>ATOM
      1  C          8.2920   -0.7240   -2.1130 C.3     1  UNL1        0.1270
      2  C          8.4160   -1.9710   -2.9120 C.2     1  UNL1        0.3030
      3  O          9.5500   -2.4860   -3.0710 O.2     1  UNL1       -0.2520
      4  O          7.3190   -2.5980   -3.4960 O.3     1  UNL1       -0.4810
      5  H          6.9940   -3.5260   -3.1870 H       1  UNL1        0.2960
      6  C          6.8420   -0.5660   -1.7440 C.3     1  UNL1        0.0470
      7  C          6.6160   -0.6650   -0.2790 C.2     1  UNL1       -0.0470
      8  C          5.8360    0.2600    0.3890 C.2     1  UNL1        0.0040
      9  C          7.1660   -1.6780    0.4840 C.2     1  UNL1        0.0040
     10  C          5.6320    0.1590    1.7520 C.2     1  UNL1        0.0000
     11  C          6.9640   -1.7810    1.8420 C.2     1  UNL1        0.0000
     12  C          6.1850   -0.8550    2.5070 C.2     1  UNL1        0.0000
@<TRIPOS>BOND
     1     4     5    1
     2     4     2    1
     3     3     2    2
     4     2     1    1
     5     1     6    1
     6     6     7    1
     7     7     8    2
     8     7     9    1
     9     8    10    1
    10     9    11    2
    11    10    12    2
    12    11    12    1
