@<TRIPOS>MOLECULE
/home/cewinharhar/GITHUB/reincatalyze/data/processed/docking_pred/2023-Apr-25-2033_maxeplen5_maxtrainstep200_exh16_gamma099_lrac3e-4_lrcr1e-3/035d1107efb5fe3e99d2a33353f0da4e413613a6_ligand_2.pdbqt
 12 12 0 0 0
SMALL
GASTEIGER

@<TRIPOS>ATOM
      1  C          8.2490   -1.2980   -2.0980 C.3     1  UNL1        0.1270
      2  C          8.9040    0.0360   -2.0650 C.2     1  UNL1        0.3030
      3  O          8.3850    0.9880   -2.6950 O.2     1  UNL1       -0.2520
      4  O         10.0790    0.2740   -1.3570 O.3     1  UNL1       -0.4810
      5  H         10.9930   -0.0720   -1.6870 H       1  UNL1        0.2960
      6  C          6.8020   -1.1000   -1.7420 C.3     1  UNL1        0.0470
      7  C          6.5940   -0.9410   -0.2780 C.2     1  UNL1       -0.0470
      8  C          5.8720    0.1210    0.2310 C.2     1  UNL1        0.0040
      9  C          7.1060   -1.8400    0.6390 C.2     1  UNL1        0.0040
     10  C          5.6850    0.2590    1.5930 C.2     1  UNL1        0.0000
     11  C          6.9210   -1.7050    1.9970 C.2     1  UNL1        0.0000
     12  C          6.2000   -0.6420    2.5030 C.2     1  UNL1        0.0000
@<TRIPOS>BOND
     1     3     2    2
     2     1     2    1
     3     1     6    1
     4     2     4    1
     5     6     7    1
     6     5     4    1
     7     7     8    2
     8     7     9    1
     9     8    10    1
    10     9    11    2
    11    10    12    2
    12    11    12    1
