@<TRIPOS>MOLECULE
/home/cewinharhar/GITHUB/reincatalyze/data/processed/docking_pred/2023-Apr-25-2033_maxeplen5_maxtrainstep200_exh16_gamma099_lrac3e-4_lrcr1e-3/035d1107efb5fe3e99d2a33353f0da4e413613a6_ligand_2.pdbqt
 12 12 0 0 0
SMALL
GASTEIGER

@<TRIPOS>ATOM
      1  C          5.8580   -0.8250    1.7710 C.3     1  UNL1        0.1270
      2  C          5.3020    0.5290    2.0280 C.2     1  UNL1        0.3030
      3  O          6.0140    1.5370    1.8010 O.2     1  UNL1       -0.2520
      4  O          4.0120    0.7280    2.5130 O.3     1  UNL1       -0.4810
      5  H          3.8070    1.4250    3.2450 H       1  UNL1        0.2960
      6  C          7.3330   -0.6690    1.5240 C.3     1  UNL1        0.0470
      7  C          7.6640   -0.6280    0.0750 C.2     1  UNL1       -0.0470
      8  C          6.8420   -1.2210   -0.8640 C.2     1  UNL1        0.0040
      9  C          8.7990    0.0000   -0.4030 C.2     1  UNL1        0.0040
     10  C          7.1590   -1.1770   -2.2080 C.2     1  UNL1        0.0000
     11  C          9.1170    0.0450   -1.7420 C.2     1  UNL1        0.0000
     12  C          8.2940   -0.5490   -2.6770 C.2     1  UNL1        0.0000
@<TRIPOS>BOND
     1    12    10    2
     2    12    11    1
     3    10     8    1
     4    11     9    2
     5     8     7    2
     6     9     7    1
     7     7     6    1
     8     6     1    1
     9     1     2    1
    10     3     2    2
    11     2     4    1
    12     4     5    1
