@<TRIPOS>MOLECULE
/home/cewinharhar/GITHUB/reincatalyze/data/processed/docking_pred/2023-Apr-25-2033_maxeplen5_maxtrainstep200_exh16_gamma099_lrac3e-4_lrcr1e-3/035d1107efb5fe3e99d2a33353f0da4e413613a6_ligand_2.pdbqt
 12 12 0 0 0
SMALL
GASTEIGER

@<TRIPOS>ATOM
      1  C          8.3220   -0.6950   -2.1640 C.3     1  UNL1        0.1270
      2  C          8.4180   -1.9570   -2.9410 C.2     1  UNL1        0.3030
      3  O          9.5400   -2.4970   -3.0980 O.2     1  UNL1       -0.2520
      4  O          7.3040   -2.5720   -3.5080 O.3     1  UNL1       -0.4810
      5  H          7.3120   -2.9240   -4.4780 H       1  UNL1        0.2960
      6  C          6.8810   -0.5080   -1.7790 C.3     1  UNL1        0.0470
      7  C          6.6590   -0.6590   -0.3170 C.2     1  UNL1       -0.0470
      8  C          7.2560   -1.6810    0.3950 C.2     1  UNL1        0.0040
      9  C          5.8540    0.2070    0.3980 C.2     1  UNL1        0.0040
     10  C          7.0440   -1.8130    1.7540 C.2     1  UNL1        0.0000
     11  C          5.6410    0.0790    1.7530 C.2     1  UNL1        0.0000
     12  C          6.2380   -0.9440    2.4620 C.2     1  UNL1        0.0000
@<TRIPOS>BOND
     1     5     4    1
     2     4     2    1
     3     3     2    2
     4     2     1    1
     5     1     6    1
     6     6     7    1
     7     7     8    2
     8     7     9    1
     9     8    10    1
    10     9    11    2
    11    11    12    1
    12    10    12    2
