@<TRIPOS>MOLECULE
/home/cewinharhar/GITHUB/reincatalyze/data/processed/docking_pred/2023-Apr-25-2033_maxeplen5_maxtrainstep200_exh16_gamma099_lrac3e-4_lrcr1e-3/035d1107efb5fe3e99d2a33353f0da4e413613a6_ligand_2.pdbqt
 12 12 0 0 0
SMALL
GASTEIGER

@<TRIPOS>ATOM
      1  C          5.9720   -0.9260    1.8290 C.3     1  UNL1        0.1270
      2  C          5.4140    0.4310    2.0610 C.2     1  UNL1        0.3030
      3  O          4.2300    0.5460    2.4610 O.2     1  UNL1       -0.2520
      4  O          6.1560    1.5910    1.8530 O.3     1  UNL1       -0.4810
      5  H          7.0950    1.7170    2.2600 H       1  UNL1        0.2960
      6  C          7.4370   -0.7670    1.5300 C.3     1  UNL1        0.0470
      7  C          7.7120   -0.6740    0.0720 C.2     1  UNL1       -0.0470
      8  C          8.8310   -0.0190   -0.4050 C.2     1  UNL1        0.0040
      9  C          6.8710   -1.2330   -0.8720 C.2     1  UNL1        0.0040
     10  C          9.0770    0.0620   -1.7620 C.2     1  UNL1        0.0000
     11  C          7.1140   -1.1540   -2.2250 C.2     1  UNL1        0.0000
     12  C          8.2330   -0.4980   -2.6990 C.2     1  UNL1        0.0000
@<TRIPOS>BOND
     1    12    11    2
     2    12    10    1
     3    11     9    1
     4    10     8    2
     5     9     7    2
     6     8     7    1
     7     7     6    1
     8     6     1    1
     9     1     2    1
    10     4     2    1
    11     4     5    1
    12     2     3    2
