@<TRIPOS>MOLECULE
/home/cewinharhar/GITHUB/reincatalyze/data/processed/docking_pred/2023-Apr-25-2033_maxeplen5_maxtrainstep200_exh16_gamma099_lrac3e-4_lrcr1e-3/0493ae4577fb245076a56c9e7bbbfc493763ce5a_ligand_2.pdbqt
 12 12 0 0 0
SMALL
GASTEIGER

@<TRIPOS>ATOM
      1  C          4.9830    1.8040    0.6920 C.3     1  UNL1        0.1270
      2  C          4.4620    1.1310    1.9100 C.2     1  UNL1        0.3030
      3  O          5.1510    0.2350    2.4560 O.2     1  UNL1       -0.2520
      4  O          3.2320    1.4560    2.4760 O.3     1  UNL1       -0.4810
      5  H          2.4980    1.9410    1.9390 H       1  UNL1        0.2960
      6  C          6.4830    1.8110    0.7840 C.3     1  UNL1        0.0470
      7  C          7.1230    1.0550   -0.3250 C.2     1  UNL1       -0.0470
      8  C          6.4000    0.1650   -1.0950 C.2     1  UNL1        0.0040
      9  C          8.4610    1.2030   -0.6390 C.2     1  UNL1        0.0040
     10  C          7.0050   -0.5330   -2.1230 C.2     1  UNL1        0.0000
     11  C          9.0660    0.5090   -1.6630 C.2     1  UNL1        0.0000
     12  C          8.3410   -0.3800   -2.4310 C.2     1  UNL1        0.0000
@<TRIPOS>BOND
     1    12    10    2
     2    12    11    1
     3    10     8    1
     4    11     9    2
     5     8     7    2
     6     9     7    1
     7     7     6    1
     8     1     6    1
     9     1     2    1
    10     2     3    2
    11     2     4    1
    12     5     4    1
