@<TRIPOS>MOLECULE
/home/cewinharhar/GITHUB/reincatalyze/data/processed/docking_pred/2023-Apr-25-2033_maxeplen5_maxtrainstep200_exh16_gamma099_lrac3e-4_lrcr1e-3/0493ae4577fb245076a56c9e7bbbfc493763ce5a_ligand_2.pdbqt
 12 12 0 0 0
SMALL
GASTEIGER

@<TRIPOS>ATOM
      1  C          8.4610   -0.6510   -2.1340 C.3     1  UNL1        0.1270
      2  C          8.4260   -1.9330   -2.8840 C.2     1  UNL1        0.3030
      3  O          7.3190   -2.4030   -3.2420 O.2     1  UNL1       -0.2520
      4  O          9.5800   -2.6400   -3.2100 O.3     1  UNL1       -0.4810
      5  H         10.4320   -2.5880   -2.6300 H       1  UNL1        0.2960
      6  C          7.0730   -0.0720   -2.1610 C.3     1  UNL1        0.0470
      7  C          6.4960    0.0840   -0.8000 C.2     1  UNL1       -0.0470
      8  C          5.7930    1.2190   -0.4460 C.2     1  UNL1        0.0040
      9  C          6.6310   -0.8900    0.1720 C.2     1  UNL1        0.0040
     10  C          5.2610    1.3540    0.8220 C.2     1  UNL1        0.0000
     11  C          6.1020   -0.7580    1.4370 C.2     1  UNL1        0.0000
     12  C          5.4000    0.3780    1.7870 C.2     1  UNL1        0.0000
@<TRIPOS>BOND
     1     3     2    2
     2     4     2    1
     3     4     5    1
     4     2     1    1
     5     6     1    1
     6     6     7    1
     7     7     8    2
     8     7     9    1
     9     8    10    1
    10     9    11    2
    11    10    12    2
    12    11    12    1
