@<TRIPOS>MOLECULE
/home/cewinharhar/GITHUB/reincatalyze/data/processed/docking_pred/2023-Apr-25-2033_maxeplen5_maxtrainstep200_exh16_gamma099_lrac3e-4_lrcr1e-3/0493ae4577fb245076a56c9e7bbbfc493763ce5a_ligand_2.pdbqt
 12 12 0 0 0
SMALL
GASTEIGER

@<TRIPOS>ATOM
      1  C          8.3520   -0.8950   -1.8550 C.3     1  UNL1        0.1270
      2  C          8.4390   -1.9990   -2.8450 C.2     1  UNL1        0.3030
      3  O          9.5610   -2.4910   -3.1160 O.2     1  UNL1       -0.2520
      4  O          7.3180   -2.5150   -3.4900 O.3     1  UNL1       -0.4810
      5  H          7.3470   -2.8140   -4.4770 H       1  UNL1        0.2960
      6  C          7.5080   -1.3800   -0.7090 C.3     1  UNL1        0.0470
      7  C          6.6360   -0.3120   -0.1530 C.2     1  UNL1       -0.0470
      8  C          6.2550    0.7710   -0.9210 C.2     1  UNL1        0.0040
      9  C          6.1650   -0.3490    1.1460 C.2     1  UNL1        0.0040
     10  C          5.4430    1.7580   -0.3950 C.2     1  UNL1        0.0000
     11  C          5.3560    0.6330    1.6720 C.2     1  UNL1        0.0000
     12  C          4.9780    1.7150    0.9030 C.2     1  UNL1        0.0000
@<TRIPOS>BOND
     1     5     4    1
     2     4     2    1
     3     3     2    2
     4     2     1    1
     5     1     6    1
     6     8    10    1
     7     8     7    2
     8     6     7    1
     9    10    12    2
    10     7     9    1
    11    12    11    1
    12     9    11    2
