@<TRIPOS>MOLECULE
/home/cewinharhar/GITHUB/reincatalyze/data/processed/docking_pred/2023-Apr-25-2033_maxeplen5_maxtrainstep200_exh16_gamma099_lrac3e-4_lrcr1e-3/0493ae4577fb245076a56c9e7bbbfc493763ce5a_ligand_2.pdbqt
 12 12 0 0 0
SMALL
GASTEIGER

@<TRIPOS>ATOM
      1  C          8.4640   -0.6580   -2.0770 C.3     1  UNL1        0.1270
      2  C          8.4300   -1.9120   -2.8740 C.2     1  UNL1        0.3030
      3  O          7.3220   -2.3940   -3.2110 O.2     1  UNL1       -0.2520
      4  O          9.5880   -2.5790   -3.2660 O.3     1  UNL1       -0.4810
      5  H         10.4480   -2.5570   -2.6970 H       1  UNL1        0.2960
      6  C          7.0870   -0.0550   -2.1250 C.3     1  UNL1        0.0470
      7  C          6.4910    0.1070   -0.7720 C.2     1  UNL1       -0.0470
      8  C          6.5940   -0.8910    0.1780 C.2     1  UNL1        0.0040
      9  C          5.8120    1.2520   -0.4000 C.2     1  UNL1        0.0040
     10  C          6.0360   -0.7300    1.4320 C.2     1  UNL1        0.0000
     11  C          5.2560    1.4140    0.8500 C.2     1  UNL1        0.0000
     12  C          5.3590    0.4160    1.7970 C.2     1  UNL1        0.0000
@<TRIPOS>BOND
     1     4     2    1
     2     4     5    1
     3     3     2    2
     4     2     1    1
     5     6     1    1
     6     6     7    1
     7     7     9    2
     8     7     8    1
     9     9    11    1
    10     8    10    2
    11    11    12    2
    12    10    12    1
