@<TRIPOS>MOLECULE
/home/cewinharhar/GITHUB/reincatalyze/data/processed/docking_pred/2023-Apr-25-2033_maxeplen5_maxtrainstep200_exh16_gamma099_lrac3e-4_lrcr1e-3/0493ae4577fb245076a56c9e7bbbfc493763ce5a_ligand_2.pdbqt
 12 12 0 0 0
SMALL
GASTEIGER

@<TRIPOS>ATOM
      1  C          8.2890   -0.8520   -1.9350 C.3     1  UNL1        0.1270
      2  C          8.3880   -2.0030   -2.8700 C.2     1  UNL1        0.3030
      3  O          9.5100   -2.5210   -3.0870 O.2     1  UNL1       -0.2520
      4  O          7.2780   -2.5350   -3.5210 O.3     1  UNL1       -0.4810
      5  H          6.3710   -2.0440   -3.5390 H       1  UNL1        0.2960
      6  C          7.5940   -1.3370   -0.6930 C.3     1  UNL1        0.0470
      7  C          6.6860   -0.3130   -0.1140 C.2     1  UNL1       -0.0470
      8  C          6.1820   -0.4450    1.1660 C.2     1  UNL1        0.0040
      9  C          6.3030    0.8130   -0.8180 C.2     1  UNL1        0.0040
     10  C          5.3380    0.5140    1.6940 C.2     1  UNL1        0.0000
     11  C          5.4630    1.7700   -0.2940 C.2     1  UNL1        0.0000
     12  C          4.9600    1.6350    0.9850 C.2     1  UNL1        0.0000
@<TRIPOS>BOND
     1     5     4    1
     2     4     2    1
     3     3     2    2
     4     2     1    1
     5     1     6    1
     6     9    11    1
     7     9     7    2
     8     6     7    1
     9    11    12    2
    10     7     8    1
    11    12    10    1
    12     8    10    2
