MODEL 1
REMARK VINA RESULT:      -7.2      0.000      0.000
REMARK SMILES O=C(O)CCc1ccccc1
REMARK SMILES IDX 4 1 2 2 1 3 3 4 5 6 6 7 7 8 11 9 8 10 10 11 9 12
REMARK H PARENT 3 5
REMARK Flexibility Score: inf
ROOT
ATOM      1  C   UNL     1       8.464  -0.658  -2.077  1.00  0.00     0.127 C 
ENDROOT
BRANCH   1   2
ATOM      2  C   UNL     1       8.430  -1.912  -2.874  1.00  0.00     0.303 C 
ATOM      3  O   UNL     1       7.322  -2.394  -3.211  1.00  0.00    -0.252 OA
BRANCH   2   4
ATOM      4  O   UNL     1       9.588  -2.579  -3.266  1.00  0.00    -0.481 OA
ATOM      5  H   UNL     1      10.448  -2.557  -2.697  1.00  0.00     0.296 HD
ENDBRANCH   2   4
ENDBRANCH   1   2
BRANCH   1   6
ATOM      6  C   UNL     1       7.087  -0.055  -2.125  1.00  0.00     0.047 C 
BRANCH   6   7
ATOM      7  C   UNL     1       6.491   0.107  -0.772  1.00  0.00    -0.047 A 
ATOM      8  C   UNL     1       6.594  -0.891   0.178  1.00  0.00     0.004 A 
ATOM      9  C   UNL     1       5.812   1.252  -0.400  1.00  0.00     0.004 A 
ATOM     10  C   UNL     1       6.036  -0.730   1.432  1.00  0.00     0.000 A 
ATOM     11  C   UNL     1       5.256   1.414   0.850  1.00  0.00     0.000 A 
ATOM     12  C   UNL     1       5.359   0.416   1.797  1.00  0.00     0.000 A 
ENDBRANCH   6   7
ENDBRANCH   1   6
TORSDOF 4
ENDMDL
MODEL 2
REMARK VINA RESULT:      -7.2      0.054      1.420
REMARK SMILES O=C(O)CCc1ccccc1
REMARK SMILES IDX 4 1 2 2 1 3 3 4 5 6 6 7 7 8 11 9 8 10 10 11 9 12
REMARK H PARENT 3 5
REMARK Flexibility Score: inf
ROOT
ATOM      1  C   UNL     1       8.461  -0.651  -2.134  1.00  0.00     0.127 C 
ENDROOT
BRANCH   1   2
ATOM      2  C   UNL     1       8.426  -1.933  -2.884  1.00  0.00     0.303 C 
ATOM      3  O   UNL     1       7.319  -2.403  -3.242  1.00  0.00    -0.252 OA
BRANCH   2   4
ATOM      4  O   UNL     1       9.580  -2.640  -3.210  1.00  0.00    -0.481 OA
ATOM      5  H   UNL     1      10.432  -2.588  -2.630  1.00  0.00     0.296 HD
ENDBRANCH   2   4
ENDBRANCH   1   2
BRANCH   1   6
ATOM      6  C   UNL     1       7.073  -0.072  -2.161  1.00  0.00     0.047 C 
BRANCH   6   7
ATOM      7  C   UNL     1       6.496   0.084  -0.800  1.00  0.00    -0.047 A 
ATOM      8  C   UNL     1       5.793   1.219  -0.446  1.00  0.00     0.004 A 
ATOM      9  C   UNL     1       6.631  -0.890   0.172  1.00  0.00     0.004 A 
ATOM     10  C   UNL     1       5.261   1.354   0.822  1.00  0.00     0.000 A 
ATOM     11  C   UNL     1       6.102  -0.758   1.437  1.00  0.00     0.000 A 
ATOM     12  C   UNL     1       5.400   0.378   1.787  1.00  0.00     0.000 A 
ENDBRANCH   6   7
ENDBRANCH   1   6
TORSDOF 4
ENDMDL
MODEL 3
REMARK VINA RESULT:      -7.2      0.637      1.855
REMARK SMILES O=C(O)CCc1ccccc1
REMARK SMILES IDX 4 1 2 2 1 3 3 4 5 6 6 7 7 8 11 9 8 10 10 11 9 12
REMARK H PARENT 3 5
REMARK Flexibility Score: inf
ROOT
ATOM      1  C   UNL     1       8.352  -0.895  -1.855  1.00  0.00     0.127 C 
ENDROOT
BRANCH   1   2
ATOM      2  C   UNL     1       8.439  -1.999  -2.845  1.00  0.00     0.303 C 
ATOM      3  O   UNL     1       9.561  -2.491  -3.116  1.00  0.00    -0.252 OA
BRANCH   2   4
ATOM      4  O   UNL     1       7.318  -2.515  -3.490  1.00  0.00    -0.481 OA
ATOM      5  H   UNL     1       7.347  -2.814  -4.477  1.00  0.00     0.296 HD
ENDBRANCH   2   4
ENDBRANCH   1   2
BRANCH   1   6
ATOM      6  C   UNL     1       7.508  -1.380  -0.709  1.00  0.00     0.047 C 
BRANCH   6   7
ATOM      7  C   UNL     1       6.636  -0.312  -0.153  1.00  0.00    -0.047 A 
ATOM      8  C   UNL     1       6.255   0.771  -0.921  1.00  0.00     0.004 A 
ATOM      9  C   UNL     1       6.165  -0.349   1.146  1.00  0.00     0.004 A 
ATOM     10  C   UNL     1       5.443   1.758  -0.395  1.00  0.00     0.000 A 
ATOM     11  C   UNL     1       5.356   0.633   1.672  1.00  0.00     0.000 A 
ATOM     12  C   UNL     1       4.978   1.715   0.903  1.00  0.00     0.000 A 
ENDBRANCH   6   7
ENDBRANCH   1   6
TORSDOF 4
ENDMDL
MODEL 4
REMARK VINA RESULT:      -7.2      0.610      1.438
REMARK SMILES O=C(O)CCc1ccccc1
REMARK SMILES IDX 4 1 2 2 1 3 3 4 5 6 6 7 7 8 11 9 8 10 10 11 9 12
REMARK H PARENT 3 5
REMARK Flexibility Score: inf
ROOT
ATOM      1  C   UNL     1       8.289  -0.852  -1.935  1.00  0.00     0.127 C 
ENDROOT
BRANCH   1   2
ATOM      2  C   UNL     1       8.388  -2.003  -2.870  1.00  0.00     0.303 C 
ATOM      3  O   UNL     1       9.510  -2.521  -3.087  1.00  0.00    -0.252 OA
BRANCH   2   4
ATOM      4  O   UNL     1       7.278  -2.535  -3.521  1.00  0.00    -0.481 OA
ATOM      5  H   UNL     1       6.371  -2.044  -3.539  1.00  0.00     0.296 HD
ENDBRANCH   2   4
ENDBRANCH   1   2
BRANCH   1   6
ATOM      6  C   UNL     1       7.594  -1.337  -0.693  1.00  0.00     0.047 C 
BRANCH   6   7
ATOM      7  C   UNL     1       6.686  -0.313  -0.114  1.00  0.00    -0.047 A 
ATOM      8  C   UNL     1       6.182  -0.445   1.166  1.00  0.00     0.004 A 
ATOM      9  C   UNL     1       6.303   0.813  -0.818  1.00  0.00     0.004 A 
ATOM     10  C   UNL     1       5.338   0.514   1.694  1.00  0.00     0.000 A 
ATOM     11  C   UNL     1       5.463   1.770  -0.294  1.00  0.00     0.000 A 
ATOM     12  C   UNL     1       4.960   1.635   0.985  1.00  0.00     0.000 A 
ENDBRANCH   6   7
ENDBRANCH   1   6
TORSDOF 4
ENDMDL
MODEL 5
REMARK VINA RESULT:      -6.8      3.302      5.165
REMARK SMILES O=C(O)CCc1ccccc1
REMARK SMILES IDX 4 1 2 2 1 3 3 4 5 6 6 7 7 8 11 9 8 10 10 11 9 12
REMARK H PARENT 3 5
REMARK Flexibility Score: inf
ROOT
ATOM      1  C   UNL     1       4.983   1.804   0.692  1.00  0.00     0.127 C 
ENDROOT
BRANCH   1   2
ATOM      2  C   UNL     1       4.462   1.131   1.910  1.00  0.00     0.303 C 
ATOM      3  O   UNL     1       5.151   0.235   2.456  1.00  0.00    -0.252 OA
BRANCH   2   4
ATOM      4  O   UNL     1       3.232   1.456   2.476  1.00  0.00    -0.481 OA
ATOM      5  H   UNL     1       2.498   1.941   1.939  1.00  0.00     0.296 HD
ENDBRANCH   2   4
ENDBRANCH   1   2
BRANCH   1   6
ATOM      6  C   UNL     1       6.483   1.811   0.784  1.00  0.00     0.047 C 
BRANCH   6   7
ATOM      7  C   UNL     1       7.123   1.055  -0.325  1.00  0.00    -0.047 A 
ATOM      8  C   UNL     1       6.400   0.165  -1.095  1.00  0.00     0.004 A 
ATOM      9  C   UNL     1       8.461   1.203  -0.639  1.00  0.00     0.004 A 
ATOM     10  C   UNL     1       7.005  -0.533  -2.123  1.00  0.00     0.000 A 
ATOM     11  C   UNL     1       9.066   0.509  -1.663  1.00  0.00     0.000 A 
ATOM     12  C   UNL     1       8.341  -0.380  -2.431  1.00  0.00     0.000 A 
ENDBRANCH   6   7
ENDBRANCH   1   6
TORSDOF 4
ENDMDL
