@<TRIPOS>MOLECULE
/home/cewinharhar/GITHUB/reincatalyze/data/processed/docking_pred/2023-Apr-25-2033_maxeplen5_maxtrainstep200_exh16_gamma099_lrac3e-4_lrcr1e-3/074f71e156faecc69724e62cc987f5104d3c940c_ligand_2.pdbqt
 12 12 0 0 0
SMALL
GASTEIGER

@<TRIPOS>ATOM
      1  C          4.9820    1.7860    0.6970 C.3     1  UNL1        0.1270
      2  C          4.4590    1.1230    1.9200 C.2     1  UNL1        0.3030
      3  O          5.1440    0.2290    2.4730 O.2     1  UNL1       -0.2520
      4  O          3.2300    1.4560    2.4820 O.3     1  UNL1       -0.4810
      5  H          3.0830    2.3460    2.9830 H       1  UNL1        0.2960
      6  C          6.4830    1.7860    0.7900 C.3     1  UNL1        0.0470
      7  C          7.1210    1.0280   -0.3190 C.2     1  UNL1       -0.0470
      8  C          8.4470    1.2260   -0.6500 C.2     1  UNL1        0.0040
      9  C          6.4260    0.0960   -1.0670 C.2     1  UNL1        0.0040
     10  C          9.0300    0.5160   -1.6830 C.2     1  UNL1        0.0000
     11  C          7.0040   -0.6120   -2.0970 C.2     1  UNL1        0.0000
     12  C          8.3300   -0.4130   -2.4260 C.2     1  UNL1        0.0000
@<TRIPOS>BOND
     1    12    11    2
     2    12    10    1
     3    11     9    1
     4    10     8    2
     5     9     7    2
     6     8     7    1
     7     7     6    1
     8     1     6    1
     9     1     2    1
    10     2     3    2
    11     2     4    1
    12     4     5    1
