@<TRIPOS>MOLECULE
/home/cewinharhar/GITHUB/reincatalyze/data/processed/docking_pred/2023-Apr-25-2033_maxeplen5_maxtrainstep200_exh16_gamma099_lrac3e-4_lrcr1e-3/074f71e156faecc69724e62cc987f5104d3c940c_ligand_2.pdbqt
 12 12 0 0 0
SMALL
GASTEIGER

@<TRIPOS>ATOM
      1  C          8.3350   -1.0130   -1.7330 C.3     1  UNL1        0.1270
      2  C          8.4370   -2.0170   -2.8240 C.2     1  UNL1        0.3030
      3  O          9.5670   -2.4550   -3.1490 O.2     1  UNL1       -0.2520
      4  O          7.3210   -2.4960   -3.5050 O.3     1  UNL1       -0.4810
      5  H          6.8420   -1.9360   -4.2270 H       1  UNL1        0.2960
      6  C          7.2760   -1.4890   -0.7770 C.3     1  UNL1        0.0470
      7  C          6.4990   -0.3680   -0.1860 C.2     1  UNL1       -0.0470
      8  C          6.1820    0.7530   -0.9290 C.2     1  UNL1        0.0040
      9  C          6.0580   -0.3890    1.1240 C.2     1  UNL1        0.0040
     10  C          5.4590    1.7890   -0.3700 C.2     1  UNL1        0.0000
     11  C          5.3380    0.6430    1.6830 C.2     1  UNL1        0.0000
     12  C          5.0230    1.7620    0.9390 C.2     1  UNL1        0.0000
@<TRIPOS>BOND
     1     5     4    1
     2     4     2    1
     3     3     2    2
     4     2     1    1
     5     1     6    1
     6     8    10    1
     7     8     7    2
     8     6     7    1
     9    10    12    2
    10     7     9    1
    11    12    11    1
    12     9    11    2
