@<TRIPOS>MOLECULE
/home/cewinharhar/GITHUB/reincatalyze/data/processed/docking_pred/2023-Apr-25-2033_maxeplen5_maxtrainstep200_exh16_gamma099_lrac3e-4_lrcr1e-3/074f71e156faecc69724e62cc987f5104d3c940c_ligand_2.pdbqt
 12 12 0 0 0
SMALL
GASTEIGER

@<TRIPOS>ATOM
      1  C          8.4310   -0.6270   -2.1240 C.3     1  UNL1        0.1270
      2  C          8.4080   -1.9060   -2.8800 C.2     1  UNL1        0.3030
      3  O          7.3030   -2.4000   -3.2120 O.2     1  UNL1       -0.2520
      4  O          9.5700   -2.5830   -3.2390 O.3     1  UNL1       -0.4810
      5  H          9.6530   -3.0840   -4.1380 H       1  UNL1        0.2960
      6  C          7.0340   -0.0730   -2.1280 C.3     1  UNL1        0.0470
      7  C          6.4730    0.0660   -0.7590 C.2     1  UNL1       -0.0470
      8  C          5.8250    1.2200   -0.3640 C.2     1  UNL1        0.0040
      9  C          6.5700   -0.9440    0.1810 C.2     1  UNL1        0.0040
     10  C          5.3080    1.3380    0.9120 C.2     1  UNL1        0.0000
     11  C          6.0550   -0.8290    1.4530 C.2     1  UNL1        0.0000
     12  C          5.4080    0.3260    1.8450 C.2     1  UNL1        0.0000
@<TRIPOS>BOND
     1     5     4    1
     2     4     2    1
     3     3     2    2
     4     2     1    1
     5     6     1    1
     6     6     7    1
     7     7     8    2
     8     7     9    1
     9     8    10    1
    10     9    11    2
    11    10    12    2
    12    11    12    1
