@<TRIPOS>MOLECULE
/home/cewinharhar/GITHUB/reincatalyze/data/processed/docking_pred/2023-Apr-25-2033_maxeplen5_maxtrainstep200_exh16_gamma099_lrac3e-4_lrcr1e-3/074f71e156faecc69724e62cc987f5104d3c940c_ligand_2.pdbqt
 12 12 0 0 0
SMALL
GASTEIGER

@<TRIPOS>ATOM
      1  C          8.2300    0.2520   -2.2450 C.3     1  UNL1        0.1270
      2  C          9.3570    0.3670   -1.2830 C.2     1  UNL1        0.3030
      3  O          9.4150   -0.4240   -0.3100 O.2     1  UNL1       -0.2520
      4  O         10.3600    1.3230   -1.4170 O.3     1  UNL1       -0.4810
      5  H         10.4730    1.8760   -2.2800 H       1  UNL1        0.2960
      6  C          7.1430   -0.5430   -1.5760 C.3     1  UNL1        0.0470
      7  C          6.3500    0.2730   -0.6200 C.2     1  UNL1       -0.0470
      8  C          6.1110   -0.1650    0.6690 C.2     1  UNL1        0.0040
      9  C          5.8160    1.5000   -0.9670 C.2     1  UNL1        0.0040
     10  C          5.3720    0.6010    1.5490 C.2     1  UNL1        0.0000
     11  C          5.0790    2.2660   -0.0910 C.2     1  UNL1        0.0000
     12  C          4.8420    1.8250    1.1960 C.2     1  UNL1        0.0000
@<TRIPOS>BOND
     1     5     4    1
     2     1     6    1
     3     1     2    1
     4     6     7    1
     5     4     2    1
     6     2     3    2
     7     9     7    2
     8     9    11    1
     9     7     8    1
    10    11    12    2
    11     8    10    2
    12    12    10    1
