@<TRIPOS>MOLECULE
/home/cewinharhar/GITHUB/reincatalyze/data/processed/docking_pred/2023-Apr-25-2033_maxeplen5_maxtrainstep200_exh16_gamma099_lrac3e-4_lrcr1e-3/074f71e156faecc69724e62cc987f5104d3c940c_ligand_2.pdbqt
 12 12 0 0 0
SMALL
GASTEIGER

@<TRIPOS>ATOM
      1  C          8.4520   -0.6370   -2.1160 C.3     1  UNL1        0.1270
      2  C          8.4230   -1.9090   -2.8850 C.2     1  UNL1        0.3030
      3  O          7.3170   -2.4050   -3.2060 O.2     1  UNL1       -0.2520
      4  O          9.5830   -2.5780   -3.2660 O.3     1  UNL1       -0.4810
      5  H         10.2400   -2.1790   -3.9550 H       1  UNL1        0.2960
      6  C          7.0630   -0.0620   -2.1410 C.3     1  UNL1        0.0470
      7  C          6.4880    0.0930   -0.7790 C.2     1  UNL1       -0.0470
      8  C          6.6010   -0.9100    0.1630 C.2     1  UNL1        0.0040
      9  C          5.8180    1.2380   -0.3900 C.2     1  UNL1        0.0040
     10  C          6.0630   -0.7560    1.4270 C.2     1  UNL1        0.0000
     11  C          5.2810    1.3950    0.8690 C.2     1  UNL1        0.0000
     12  C          5.3950    0.3900    1.8090 C.2     1  UNL1        0.0000
@<TRIPOS>BOND
     1     5     4    1
     2     4     2    1
     3     3     2    2
     4     2     1    1
     5     6     1    1
     6     6     7    1
     7     7     9    2
     8     7     8    1
     9     9    11    1
    10     8    10    2
    11    11    12    2
    12    10    12    1
