@<TRIPOS>MOLECULE
/home/cewinharhar/GITHUB/reincatalyze/data/processed/docking_pred/2023-Apr-25-2033_maxeplen5_maxtrainstep200_exh16_gamma099_lrac3e-4_lrcr1e-3/08e84468c81f1cd513554bb3b422d21af10d92b8_ligand_2.pdbqt
 12 12 0 0 0
SMALL
GASTEIGER

@<TRIPOS>ATOM
      1  C          5.5620    2.9280   -0.1310 C.3     1  UNL1        0.1270
      2  C          6.2790    3.8960    0.7390 C.2     1  UNL1        0.3030
      3  O          7.0090    4.7690    0.2120 O.2     1  UNL1       -0.2520
      4  O          6.1720    3.8740    2.1270 O.3     1  UNL1       -0.4810
      5  H          6.9710    3.6230    2.7300 H       1  UNL1        0.2960
      6  C          4.8980    1.9190    0.7640 C.3     1  UNL1        0.0470
      7  C          5.6670    0.6510    0.8590 C.2     1  UNL1       -0.0470
      8  C          6.2930    0.1090   -0.2470 C.2     1  UNL1        0.0040
      9  C          5.7940   -0.0450    2.0470 C.2     1  UNL1        0.0040
     10  C          7.0050   -1.0710   -0.1480 C.2     1  UNL1        0.0000
     11  C          6.5030   -1.2210    2.1480 C.2     1  UNL1        0.0000
     12  C          7.1280   -1.7600    1.0410 C.2     1  UNL1        0.0000
@<TRIPOS>BOND
     1     8    10    1
     2     8     7    2
     3    10    12    2
     4     1     2    1
     5     1     6    1
     6     3     2    2
     7     2     4    1
     8     6     7    1
     9     7     9    1
    10    12    11    1
    11     9    11    2
    12     4     5    1
