@<TRIPOS>MOLECULE
/home/cewinharhar/GITHUB/reincatalyze/data/processed/docking_pred/2023-Apr-25-2033_maxeplen5_maxtrainstep200_exh16_gamma099_lrac3e-4_lrcr1e-3/08e84468c81f1cd513554bb3b422d21af10d92b8_ligand_2.pdbqt
 12 12 0 0 0
SMALL
GASTEIGER

@<TRIPOS>ATOM
      1  C          4.9890    1.8020    0.6910 C.3     1  UNL1        0.1270
      2  C          4.4690    1.1280    1.9090 C.2     1  UNL1        0.3030
      3  O          5.1580    0.2310    2.4530 O.2     1  UNL1       -0.2520
      4  O          3.2390    1.4520    2.4750 O.3     1  UNL1       -0.4810
      5  H          2.3740    1.4830    1.9160 H       1  UNL1        0.2960
      6  C          6.4900    1.8060    0.7810 C.3     1  UNL1        0.0470
      7  C          7.1270    1.0400   -0.3220 C.2     1  UNL1       -0.0470
      8  C          8.4570    1.2260   -0.6470 C.2     1  UNL1        0.0040
      9  C          6.4290    0.1100   -1.0700 C.2     1  UNL1        0.0040
     10  C          9.0390    0.5080   -1.6750 C.2     1  UNL1        0.0000
     11  C          7.0080   -0.6070   -2.0940 C.2     1  UNL1        0.0000
     12  C          8.3360   -0.4180   -2.4170 C.2     1  UNL1        0.0000
@<TRIPOS>BOND
     1    12    11    2
     2    12    10    1
     3    11     9    1
     4    10     8    2
     5     9     7    2
     6     8     7    1
     7     7     6    1
     8     1     6    1
     9     1     2    1
    10     2     3    2
    11     2     4    1
    12     5     4    1
