@<TRIPOS>MOLECULE
/home/cewinharhar/GITHUB/reincatalyze/data/processed/docking_pred/2023-Apr-25-2033_maxeplen5_maxtrainstep200_exh16_gamma099_lrac3e-4_lrcr1e-3/08e84468c81f1cd513554bb3b422d21af10d92b8_ligand_2.pdbqt
 12 12 0 0 0
SMALL
GASTEIGER

@<TRIPOS>ATOM
      1  C          8.4500   -0.5850   -2.2010 C.3     1  UNL1        0.1270
      2  C          8.4590   -1.8840   -2.9240 C.2     1  UNL1        0.3030
      3  O          9.5480   -2.4850   -3.0880 O.2     1  UNL1       -0.2520
      4  O          7.3000   -2.4670   -3.4290 O.3     1  UNL1       -0.4810
      5  H          6.4880   -2.6750   -2.8270 H       1  UNL1        0.2960
      6  C          7.0320   -0.0860   -2.1860 C.3     1  UNL1        0.0470
      7  C          6.4930    0.0520   -0.8070 C.2     1  UNL1       -0.0470
      8  C          6.6150   -0.9710    0.1140 C.2     1  UNL1        0.0040
      9  C          5.8510    1.1990   -0.3800 C.2     1  UNL1        0.0040
     10  C          6.1110   -0.8320    1.3930 C.2     1  UNL1        0.0000
     11  C          5.3480    1.3390    0.8940 C.2     1  UNL1        0.0000
     12  C          5.4700    0.3160    1.8120 C.2     1  UNL1        0.0000
@<TRIPOS>BOND
     1     4     2    1
     2     4     5    1
     3     3     2    2
     4     2     1    1
     5     1     6    1
     6     6     7    1
     7     7     9    2
     8     7     8    1
     9     9    11    1
    10     8    10    2
    11    11    12    2
    12    10    12    1
