@<TRIPOS>MOLECULE
/home/cewinharhar/GITHUB/reincatalyze/data/processed/docking_pred/2023-Apr-25-2033_maxeplen5_maxtrainstep200_exh16_gamma099_lrac3e-4_lrcr1e-3/08e84468c81f1cd513554bb3b422d21af10d92b8_ligand_2.pdbqt
 12 12 0 0 0
SMALL
GASTEIGER

@<TRIPOS>ATOM
      1  C          8.2930    0.2530   -2.1720 C.3     1  UNL1        0.1270
      2  C          9.4230    0.3780   -1.2150 C.2     1  UNL1        0.3030
      3  O          9.4750   -0.3900   -0.2240 O.2     1  UNL1       -0.2520
      4  O         10.4350    1.3210   -1.3730 O.3     1  UNL1       -0.4810
      5  H         10.6730    1.7140   -2.2970 H       1  UNL1        0.2960
      6  C          7.2290   -0.5770   -1.5080 C.3     1  UNL1        0.0470
      7  C          6.4060    0.2130   -0.5550 C.2     1  UNL1       -0.0470
      8  C          5.8560    1.4260   -0.9190 C.2     1  UNL1        0.0040
      9  C          6.1510   -0.2230    0.7320 C.2     1  UNL1        0.0040
     10  C          5.0920    2.1520   -0.0240 C.2     1  UNL1        0.0000
     11  C          5.3900    0.4980    1.6250 C.2     1  UNL1        0.0000
     12  C          4.8420    1.7110    1.2590 C.2     1  UNL1        0.0000
@<TRIPOS>BOND
     1     5     4    1
     2     1     6    1
     3     1     2    1
     4     6     7    1
     5     4     2    1
     6     2     3    2
     7     8     7    2
     8     8    10    1
     9     7     9    1
    10    10    12    2
    11     9    11    2
    12    12    11    1
