@<TRIPOS>MOLECULE
/home/cewinharhar/GITHUB/reincatalyze/data/processed/docking_pred/2023-Apr-25-2033_maxeplen5_maxtrainstep200_exh16_gamma099_lrac3e-4_lrcr1e-3/08e84468c81f1cd513554bb3b422d21af10d92b8_ligand_2.pdbqt
 12 12 0 0 0
SMALL
GASTEIGER

@<TRIPOS>ATOM
      1  C          8.4330   -0.6370   -2.1070 C.3     1  UNL1        0.1270
      2  C          8.4120   -1.9080   -2.8770 C.2     1  UNL1        0.3030
      3  O          7.3090   -2.4070   -3.2040 O.2     1  UNL1       -0.2520
      4  O          9.5760   -2.5720   -3.2540 O.3     1  UNL1       -0.4810
      5  H         10.2490   -2.9300   -2.5590 H       1  UNL1        0.2960
      6  C          7.0370   -0.0770   -2.1190 C.3     1  UNL1        0.0470
      7  C          6.4710    0.0640   -0.7520 C.2     1  UNL1       -0.0470
      8  C          5.8180    1.2180   -0.3640 C.2     1  UNL1        0.0040
      9  C          6.5660   -0.9430    0.1910 C.2     1  UNL1        0.0040
     10  C          5.2950    1.3380    0.9100 C.2     1  UNL1        0.0000
     11  C          6.0450   -0.8250    1.4600 C.2     1  UNL1        0.0000
     12  C          5.3940    0.3290    1.8460 C.2     1  UNL1        0.0000
@<TRIPOS>BOND
     1     4     2    1
     2     4     5    1
     3     3     2    2
     4     2     1    1
     5     6     1    1
     6     6     7    1
     7     7     8    2
     8     7     9    1
     9     8    10    1
    10     9    11    2
    11    10    12    2
    12    11    12    1
