MODEL 1
REMARK VINA RESULT:      -7.3      0.000      0.000
REMARK SMILES O=C(O)CCc1ccccc1
REMARK SMILES IDX 4 1 2 2 1 3 3 4 5 6 6 7 7 8 11 9 8 10 10 11 9 12
REMARK H PARENT 3 5
REMARK Flexibility Score: inf
ROOT
ATOM      1  C   UNL     1       8.450  -0.585  -2.201  1.00  0.00     0.127 C 
ENDROOT
BRANCH   1   2
ATOM      2  C   UNL     1       8.459  -1.884  -2.924  1.00  0.00     0.303 C 
ATOM      3  O   UNL     1       9.548  -2.485  -3.088  1.00  0.00    -0.252 OA
BRANCH   2   4
ATOM      4  O   UNL     1       7.300  -2.467  -3.429  1.00  0.00    -0.481 OA
ATOM      5  H   UNL     1       6.488  -2.675  -2.827  1.00  0.00     0.296 HD
ENDBRANCH   2   4
ENDBRANCH   1   2
BRANCH   1   6
ATOM      6  C   UNL     1       7.032  -0.086  -2.186  1.00  0.00     0.047 C 
BRANCH   6   7
ATOM      7  C   UNL     1       6.493   0.052  -0.807  1.00  0.00    -0.047 A 
ATOM      8  C   UNL     1       6.615  -0.971   0.114  1.00  0.00     0.004 A 
ATOM      9  C   UNL     1       5.851   1.199  -0.380  1.00  0.00     0.004 A 
ATOM     10  C   UNL     1       6.111  -0.832   1.393  1.00  0.00     0.000 A 
ATOM     11  C   UNL     1       5.348   1.339   0.894  1.00  0.00     0.000 A 
ATOM     12  C   UNL     1       5.470   0.316   1.812  1.00  0.00     0.000 A 
ENDBRANCH   6   7
ENDBRANCH   1   6
TORSDOF 4
ENDMDL
MODEL 2
REMARK VINA RESULT:      -7.3      0.115      1.718
REMARK SMILES O=C(O)CCc1ccccc1
REMARK SMILES IDX 4 1 2 2 1 3 3 4 5 6 6 7 7 8 11 9 8 10 10 11 9 12
REMARK H PARENT 3 5
REMARK Flexibility Score: inf
ROOT
ATOM      1  C   UNL     1       8.433  -0.637  -2.107  1.00  0.00     0.127 C 
ENDROOT
BRANCH   1   2
ATOM      2  C   UNL     1       8.412  -1.908  -2.877  1.00  0.00     0.303 C 
ATOM      3  O   UNL     1       7.309  -2.407  -3.204  1.00  0.00    -0.252 OA
BRANCH   2   4
ATOM      4  O   UNL     1       9.576  -2.572  -3.254  1.00  0.00    -0.481 OA
ATOM      5  H   UNL     1      10.249  -2.930  -2.559  1.00  0.00     0.296 HD
ENDBRANCH   2   4
ENDBRANCH   1   2
BRANCH   1   6
ATOM      6  C   UNL     1       7.037  -0.077  -2.119  1.00  0.00     0.047 C 
BRANCH   6   7
ATOM      7  C   UNL     1       6.471   0.064  -0.752  1.00  0.00    -0.047 A 
ATOM      8  C   UNL     1       5.818   1.218  -0.364  1.00  0.00     0.004 A 
ATOM      9  C   UNL     1       6.566  -0.943   0.191  1.00  0.00     0.004 A 
ATOM     10  C   UNL     1       5.295   1.338   0.910  1.00  0.00     0.000 A 
ATOM     11  C   UNL     1       6.045  -0.825   1.460  1.00  0.00     0.000 A 
ATOM     12  C   UNL     1       5.394   0.329   1.846  1.00  0.00     0.000 A 
ENDBRANCH   6   7
ENDBRANCH   1   6
TORSDOF 4
ENDMDL
MODEL 3
REMARK VINA RESULT:      -6.8      3.383      5.094
REMARK SMILES O=C(O)CCc1ccccc1
REMARK SMILES IDX 4 1 2 2 1 3 3 4 5 6 6 7 7 8 11 9 8 10 10 11 9 12
REMARK H PARENT 3 5
REMARK Flexibility Score: inf
ROOT
ATOM      1  C   UNL     1       4.989   1.802   0.691  1.00  0.00     0.127 C 
ENDROOT
BRANCH   1   2
ATOM      2  C   UNL     1       4.469   1.128   1.909  1.00  0.00     0.303 C 
ATOM      3  O   UNL     1       5.158   0.231   2.453  1.00  0.00    -0.252 OA
BRANCH   2   4
ATOM      4  O   UNL     1       3.239   1.452   2.475  1.00  0.00    -0.481 OA
ATOM      5  H   UNL     1       2.374   1.483   1.916  1.00  0.00     0.296 HD
ENDBRANCH   2   4
ENDBRANCH   1   2
BRANCH   1   6
ATOM      6  C   UNL     1       6.490   1.806   0.781  1.00  0.00     0.047 C 
BRANCH   6   7
ATOM      7  C   UNL     1       7.127   1.040  -0.322  1.00  0.00    -0.047 A 
ATOM      8  C   UNL     1       8.457   1.226  -0.647  1.00  0.00     0.004 A 
ATOM      9  C   UNL     1       6.429   0.110  -1.070  1.00  0.00     0.004 A 
ATOM     10  C   UNL     1       9.039   0.508  -1.675  1.00  0.00     0.000 A 
ATOM     11  C   UNL     1       7.008  -0.607  -2.094  1.00  0.00     0.000 A 
ATOM     12  C   UNL     1       8.336  -0.418  -2.417  1.00  0.00     0.000 A 
ENDBRANCH   6   7
ENDBRANCH   1   6
TORSDOF 4
ENDMDL
MODEL 4
REMARK VINA RESULT:      -6.7      3.823      4.946
REMARK SMILES O=C(O)CCc1ccccc1
REMARK SMILES IDX 4 1 2 2 1 3 3 4 5 6 6 7 7 8 11 9 8 10 10 11 9 12
REMARK H PARENT 3 5
REMARK Flexibility Score: inf
ROOT
ATOM      1  C   UNL     1       5.562   2.928  -0.131  1.00  0.00     0.127 C 
ENDROOT
BRANCH   1   2
ATOM      2  C   UNL     1       6.279   3.896   0.739  1.00  0.00     0.303 C 
ATOM      3  O   UNL     1       7.009   4.769   0.212  1.00  0.00    -0.252 OA
BRANCH   2   4
ATOM      4  O   UNL     1       6.172   3.874   2.127  1.00  0.00    -0.481 OA
ATOM      5  H   UNL     1       6.971   3.623   2.730  1.00  0.00     0.296 HD
ENDBRANCH   2   4
ENDBRANCH   1   2
BRANCH   1   6
ATOM      6  C   UNL     1       4.898   1.919   0.764  1.00  0.00     0.047 C 
BRANCH   6   7
ATOM      7  C   UNL     1       5.667   0.651   0.859  1.00  0.00    -0.047 A 
ATOM      8  C   UNL     1       6.293   0.109  -0.247  1.00  0.00     0.004 A 
ATOM      9  C   UNL     1       5.794  -0.045   2.047  1.00  0.00     0.004 A 
ATOM     10  C   UNL     1       7.005  -1.071  -0.148  1.00  0.00     0.000 A 
ATOM     11  C   UNL     1       6.503  -1.221   2.148  1.00  0.00     0.000 A 
ATOM     12  C   UNL     1       7.128  -1.760   1.041  1.00  0.00     0.000 A 
ENDBRANCH   6   7
ENDBRANCH   1   6
TORSDOF 4
ENDMDL
MODEL 5
REMARK VINA RESULT:      -6.6      1.943      2.665
REMARK SMILES O=C(O)CCc1ccccc1
REMARK SMILES IDX 4 1 2 2 1 3 3 4 5 6 6 7 7 8 11 9 8 10 10 11 9 12
REMARK H PARENT 3 5
REMARK Flexibility Score: inf
ROOT
ATOM      1  C   UNL     1       8.293   0.253  -2.172  1.00  0.00     0.127 C 
ENDROOT
BRANCH   1   2
ATOM      2  C   UNL     1       9.423   0.378  -1.215  1.00  0.00     0.303 C 
ATOM      3  O   UNL     1       9.475  -0.390  -0.224  1.00  0.00    -0.252 OA
BRANCH   2   4
ATOM      4  O   UNL     1      10.435   1.321  -1.373  1.00  0.00    -0.481 OA
ATOM      5  H   UNL     1      10.673   1.714  -2.297  1.00  0.00     0.296 HD
ENDBRANCH   2   4
ENDBRANCH   1   2
BRANCH   1   6
ATOM      6  C   UNL     1       7.229  -0.577  -1.508  1.00  0.00     0.047 C 
BRANCH   6   7
ATOM      7  C   UNL     1       6.406   0.213  -0.555  1.00  0.00    -0.047 A 
ATOM      8  C   UNL     1       5.856   1.426  -0.919  1.00  0.00     0.004 A 
ATOM      9  C   UNL     1       6.151  -0.223   0.732  1.00  0.00     0.004 A 
ATOM     10  C   UNL     1       5.092   2.152  -0.024  1.00  0.00     0.000 A 
ATOM     11  C   UNL     1       5.390   0.498   1.625  1.00  0.00     0.000 A 
ATOM     12  C   UNL     1       4.842   1.711   1.259  1.00  0.00     0.000 A 
ENDBRANCH   6   7
ENDBRANCH   1   6
TORSDOF 4
ENDMDL
