MODEL 1
REMARK VINA RESULT:      -7.1      0.000      0.000
REMARK SMILES O=C(O)CCc1ccccc1
REMARK SMILES IDX 4 1 2 2 1 3 3 4 5 6 6 7 7 8 11 9 8 10 10 11 9 12
REMARK H PARENT 3 5
REMARK Flexibility Score: inf
ROOT
ATOM      1  C   UNL     1       8.447  -0.638  -2.127  1.00  0.00     0.127 C 
ENDROOT
BRANCH   1   2
ATOM      2  C   UNL     1       8.456  -1.901  -2.909  1.00  0.00     0.303 C 
ATOM      3  O   UNL     1       9.543  -2.501  -3.091  1.00  0.00    -0.252 OA
BRANCH   2   4
ATOM      4  O   UNL     1       7.298  -2.453  -3.452  1.00  0.00    -0.481 OA
ATOM      5  H   UNL     1       6.644  -3.012  -2.885  1.00  0.00     0.296 HD
ENDBRANCH   2   4
ENDBRANCH   1   2
BRANCH   1   6
ATOM      6  C   UNL     1       7.040  -0.107  -2.141  1.00  0.00     0.047 C 
BRANCH   6   7
ATOM      7  C   UNL     1       6.476   0.043  -0.773  1.00  0.00    -0.047 A 
ATOM      8  C   UNL     1       5.825   1.199  -0.391  1.00  0.00     0.004 A 
ATOM      9  C   UNL     1       6.573  -0.958   0.175  1.00  0.00     0.004 A 
ATOM     10  C   UNL     1       5.305   1.328   0.883  1.00  0.00     0.000 A 
ATOM     11  C   UNL     1       6.055  -0.832   1.445  1.00  0.00     0.000 A 
ATOM     12  C   UNL     1       5.405   0.325   1.825  1.00  0.00     0.000 A 
ENDBRANCH   6   7
ENDBRANCH   1   6
TORSDOF 4
ENDMDL
MODEL 2
REMARK VINA RESULT:      -7.0      0.105      1.717
REMARK SMILES O=C(O)CCc1ccccc1
REMARK SMILES IDX 4 1 2 2 1 3 3 4 5 6 6 7 7 8 11 9 8 10 10 11 9 12
REMARK H PARENT 3 5
REMARK Flexibility Score: inf
ROOT
ATOM      1  C   UNL     1       8.431  -0.631  -2.119  1.00  0.00     0.127 C 
ENDROOT
BRANCH   1   2
ATOM      2  C   UNL     1       8.409  -1.907  -2.880  1.00  0.00     0.303 C 
ATOM      3  O   UNL     1       7.305  -2.404  -3.210  1.00  0.00    -0.252 OA
BRANCH   2   4
ATOM      4  O   UNL     1       9.572  -2.580  -3.245  1.00  0.00    -0.481 OA
ATOM      5  H   UNL     1       9.585  -3.600  -3.400  1.00  0.00     0.296 HD
ENDBRANCH   2   4
ENDBRANCH   1   2
BRANCH   1   6
ATOM      6  C   UNL     1       7.038  -0.066  -2.142  1.00  0.00     0.047 C 
BRANCH   6   7
ATOM      7  C   UNL     1       6.466   0.091  -0.779  1.00  0.00    -0.047 A 
ATOM      8  C   UNL     1       6.579  -0.913   0.164  1.00  0.00     0.004 A 
ATOM      9  C   UNL     1       5.800   1.237  -0.388  1.00  0.00     0.004 A 
ATOM     10  C   UNL     1       6.044  -0.756   1.429  1.00  0.00     0.000 A 
ATOM     11  C   UNL     1       5.266   1.395   0.871  1.00  0.00     0.000 A 
ATOM     12  C   UNL     1       5.380   0.391   1.812  1.00  0.00     0.000 A 
ENDBRANCH   6   7
ENDBRANCH   1   6
TORSDOF 4
ENDMDL
MODEL 3
REMARK VINA RESULT:      -6.7      1.429      2.040
REMARK SMILES O=C(O)CCc1ccccc1
REMARK SMILES IDX 4 1 2 2 1 3 3 4 5 6 6 7 7 8 11 9 8 10 10 11 9 12
REMARK H PARENT 3 5
REMARK Flexibility Score: inf
ROOT
ATOM      1  C   UNL     1       8.059  -0.314  -2.417  1.00  0.00     0.127 C 
ENDROOT
BRANCH   1   2
ATOM      2  C   UNL     1       8.321  -1.685  -2.925  1.00  0.00     0.303 C 
ATOM      3  O   UNL     1       9.492  -2.135  -2.898  1.00  0.00    -0.252 OA
BRANCH   2   4
ATOM      4  O   UNL     1       7.312  -2.499  -3.434  1.00  0.00    -0.481 OA
ATOM      5  H   UNL     1       7.292  -3.515  -3.259  1.00  0.00     0.296 HD
ENDBRANCH   2   4
ENDBRANCH   1   2
BRANCH   1   6
ATOM      6  C   UNL     1       6.921  -0.403  -1.439  1.00  0.00     0.047 C 
BRANCH   6   7
ATOM      7  C   UNL     1       6.720   0.862  -0.684  1.00  0.00    -0.047 A 
ATOM      8  C   UNL     1       7.769   1.482  -0.034  1.00  0.00     0.004 A 
ATOM      9  C   UNL     1       5.485   1.478  -0.597  1.00  0.00     0.004 A 
ATOM     10  C   UNL     1       7.571   2.658   0.664  1.00  0.00     0.000 A 
ATOM     11  C   UNL     1       5.285   2.649   0.098  1.00  0.00     0.000 A 
ATOM     12  C   UNL     1       6.335   3.266   0.748  1.00  0.00     0.000 A 
ENDBRANCH   6   7
ENDBRANCH   1   6
TORSDOF 4
ENDMDL
MODEL 4
REMARK VINA RESULT:      -6.7      1.475      1.815
REMARK SMILES O=C(O)CCc1ccccc1
REMARK SMILES IDX 4 1 2 2 1 3 3 4 5 6 6 7 7 8 11 9 8 10 10 11 9 12
REMARK H PARENT 3 5
REMARK Flexibility Score: inf
ROOT
ATOM      1  C   UNL     1       8.037  -0.287  -2.534  1.00  0.00     0.127 C 
ENDROOT
BRANCH   1   2
ATOM      2  C   UNL     1       8.317  -1.682  -2.962  1.00  0.00     0.303 C 
ATOM      3  O   UNL     1       9.495  -2.112  -2.916  1.00  0.00    -0.252 OA
BRANCH   2   4
ATOM      4  O   UNL     1       7.318  -2.540  -3.416  1.00  0.00    -0.481 OA
ATOM      5  H   UNL     1       7.146  -2.690  -4.422  1.00  0.00     0.296 HD
ENDBRANCH   2   4
ENDBRANCH   1   2
BRANCH   1   6
ATOM      6  C   UNL     1       6.815  -0.319  -1.658  1.00  0.00     0.047 C 
BRANCH   6   7
ATOM      7  C   UNL     1       6.706   0.883  -0.791  1.00  0.00    -0.047 A 
ATOM      8  C   UNL     1       5.499   1.531  -0.615  1.00  0.00     0.004 A 
ATOM      9  C   UNL     1       7.796   1.408  -0.121  1.00  0.00     0.004 A 
ATOM     10  C   UNL     1       5.409   2.648   0.193  1.00  0.00     0.000 A 
ATOM     11  C   UNL     1       7.709   2.520   0.685  1.00  0.00     0.000 A 
ATOM     12  C   UNL     1       6.502   3.167   0.858  1.00  0.00     0.000 A 
ENDBRANCH   6   7
ENDBRANCH   1   6
TORSDOF 4
ENDMDL
MODEL 5
REMARK VINA RESULT:      -6.5      4.705      5.398
REMARK SMILES O=C(O)CCc1ccccc1
REMARK SMILES IDX 4 1 2 2 1 3 3 4 5 6 6 7 7 8 11 9 8 10 10 11 9 12
REMARK H PARENT 3 5
REMARK Flexibility Score: inf
ROOT
ATOM      1  C   UNL     1       7.634  -0.358   1.059  1.00  0.00     0.127 C 
ENDROOT
BRANCH   1   2
ATOM      2  C   UNL     1       6.613  -1.119   1.825  1.00  0.00     0.303 C 
ATOM      3  O   UNL     1       5.836  -0.500   2.591  1.00  0.00    -0.252 OA
BRANCH   2   4
ATOM      4  O   UNL     1       6.482  -2.502   1.726  1.00  0.00    -0.481 OA
ATOM      5  H   UNL     1       6.256  -2.964   0.832  1.00  0.00     0.296 HD
ENDBRANCH   2   4
ENDBRANCH   1   2
BRANCH   1   6
ATOM      6  C   UNL     1       7.981   0.866   1.860  1.00  0.00     0.047 C 
BRANCH   6   7
ATOM      7  C   UNL     1       9.429   0.937   2.191  1.00  0.00    -0.047 A 
ATOM      8  C   UNL     1       9.908   1.846   3.113  1.00  0.00     0.004 A 
ATOM      9  C   UNL     1      10.359   0.103   1.599  1.00  0.00     0.004 A 
ATOM     10  C   UNL     1      11.256   1.903   3.413  1.00  0.00     0.000 A 
ATOM     11  C   UNL     1      11.703   0.158   1.897  1.00  0.00     0.000 A 
ATOM     12  C   UNL     1      12.180   1.068   2.819  1.00  0.00     0.000 A 
ENDBRANCH   6   7
ENDBRANCH   1   6
TORSDOF 4
ENDMDL
