@<TRIPOS>MOLECULE
/home/cewinharhar/GITHUB/reincatalyze/data/processed/docking_pred/2023-Apr-25-2033_maxeplen5_maxtrainstep200_exh16_gamma099_lrac3e-4_lrcr1e-3/090474ec6ad34f6c7e6271970b3dfdf762d08d64_ligand_2.pdbqt
 12 12 0 0 0
SMALL
GASTEIGER

@<TRIPOS>ATOM
      1  C          8.0370   -0.2870   -2.5340 C.3     1  UNL1        0.1270
      2  C          8.3170   -1.6820   -2.9620 C.2     1  UNL1        0.3030
      3  O          9.4950   -2.1120   -2.9160 O.2     1  UNL1       -0.2520
      4  O          7.3180   -2.5400   -3.4160 O.3     1  UNL1       -0.4810
      5  H          7.1460   -2.6900   -4.4220 H       1  UNL1        0.2960
      6  C          6.8150   -0.3190   -1.6580 C.3     1  UNL1        0.0470
      7  C          6.7060    0.8830   -0.7910 C.2     1  UNL1       -0.0470
      8  C          5.4990    1.5310   -0.6150 C.2     1  UNL1        0.0040
      9  C          7.7960    1.4080   -0.1210 C.2     1  UNL1        0.0040
     10  C          5.4090    2.6480    0.1930 C.2     1  UNL1        0.0000
     11  C          7.7090    2.5200    0.6850 C.2     1  UNL1        0.0000
     12  C          6.5020    3.1670    0.8580 C.2     1  UNL1        0.0000
@<TRIPOS>BOND
     1     5     4    1
     2     4     2    1
     3     2     3    2
     4     2     1    1
     5     1     6    1
     6     6     7    1
     7     7     8    2
     8     7     9    1
     9     8    10    1
    10     9    11    2
    11    10    12    2
    12    11    12    1
