@<TRIPOS>MOLECULE
/home/cewinharhar/GITHUB/reincatalyze/data/processed/docking_pred/2023-Apr-25-2033_maxeplen5_maxtrainstep200_exh16_gamma099_lrac3e-4_lrcr1e-3/090474ec6ad34f6c7e6271970b3dfdf762d08d64_ligand_2.pdbqt
 12 12 0 0 0
SMALL
GASTEIGER

@<TRIPOS>ATOM
      1  C          8.4310   -0.6310   -2.1190 C.3     1  UNL1        0.1270
      2  C          8.4090   -1.9070   -2.8800 C.2     1  UNL1        0.3030
      3  O          7.3050   -2.4040   -3.2100 O.2     1  UNL1       -0.2520
      4  O          9.5720   -2.5800   -3.2450 O.3     1  UNL1       -0.4810
      5  H          9.5850   -3.6000   -3.4000 H       1  UNL1        0.2960
      6  C          7.0380   -0.0660   -2.1420 C.3     1  UNL1        0.0470
      7  C          6.4660    0.0910   -0.7790 C.2     1  UNL1       -0.0470
      8  C          6.5790   -0.9130    0.1640 C.2     1  UNL1        0.0040
      9  C          5.8000    1.2370   -0.3880 C.2     1  UNL1        0.0040
     10  C          6.0440   -0.7560    1.4290 C.2     1  UNL1        0.0000
     11  C          5.2660    1.3950    0.8710 C.2     1  UNL1        0.0000
     12  C          5.3800    0.3910    1.8120 C.2     1  UNL1        0.0000
@<TRIPOS>BOND
     1     5     4    1
     2     4     2    1
     3     3     2    2
     4     2     1    1
     5     6     1    1
     6     6     7    1
     7     7     9    2
     8     7     8    1
     9     9    11    1
    10     8    10    2
    11    11    12    2
    12    10    12    1
