@<TRIPOS>MOLECULE
/home/cewinharhar/GITHUB/reincatalyze/data/processed/docking_pred/2023-Apr-25-2033_maxeplen5_maxtrainstep200_exh16_gamma099_lrac3e-4_lrcr1e-3/090474ec6ad34f6c7e6271970b3dfdf762d08d64_ligand_2.pdbqt
 12 12 0 0 0
SMALL
GASTEIGER

@<TRIPOS>ATOM
      1  C          7.6340   -0.3580    1.0590 C.3     1  UNL1        0.1270
      2  C          6.6130   -1.1190    1.8250 C.2     1  UNL1        0.3030
      3  O          5.8360   -0.5000    2.5910 O.2     1  UNL1       -0.2520
      4  O          6.4820   -2.5020    1.7260 O.3     1  UNL1       -0.4810
      5  H          6.2560   -2.9640    0.8320 H       1  UNL1        0.2960
      6  C          7.9810    0.8660    1.8600 C.3     1  UNL1        0.0470
      7  C          9.4290    0.9370    2.1910 C.2     1  UNL1       -0.0470
      8  C          9.9080    1.8460    3.1130 C.2     1  UNL1        0.0040
      9  C         10.3590    0.1030    1.5990 C.2     1  UNL1        0.0040
     10  C         11.2560    1.9030    3.4130 C.2     1  UNL1        0.0000
     11  C         11.7030    0.1580    1.8970 C.2     1  UNL1        0.0000
     12  C         12.1800    1.0680    2.8190 C.2     1  UNL1        0.0000
@<TRIPOS>BOND
     1     5     4    1
     2     1     2    1
     3     1     6    1
     4     9    11    1
     5     9     7    2
     6     4     2    1
     7     2     3    2
     8     6     7    1
     9    11    12    2
    10     7     8    1
    11    12    10    1
    12     8    10    2
