@<TRIPOS>MOLECULE
/home/cewinharhar/GITHUB/reincatalyze/data/processed/docking_pred/2023-Apr-25-2033_maxeplen5_maxtrainstep200_exh16_gamma099_lrac3e-4_lrcr1e-3/090474ec6ad34f6c7e6271970b3dfdf762d08d64_ligand_2.pdbqt
 12 12 0 0 0
SMALL
GASTEIGER

@<TRIPOS>ATOM
      1  C          8.4470   -0.6380   -2.1270 C.3     1  UNL1        0.1270
      2  C          8.4560   -1.9010   -2.9090 C.2     1  UNL1        0.3030
      3  O          9.5430   -2.5010   -3.0910 O.2     1  UNL1       -0.2520
      4  O          7.2980   -2.4530   -3.4520 O.3     1  UNL1       -0.4810
      5  H          6.6440   -3.0120   -2.8850 H       1  UNL1        0.2960
      6  C          7.0400   -0.1070   -2.1410 C.3     1  UNL1        0.0470
      7  C          6.4760    0.0430   -0.7730 C.2     1  UNL1       -0.0470
      8  C          5.8250    1.1990   -0.3910 C.2     1  UNL1        0.0040
      9  C          6.5730   -0.9580    0.1750 C.2     1  UNL1        0.0040
     10  C          5.3050    1.3280    0.8830 C.2     1  UNL1        0.0000
     11  C          6.0550   -0.8320    1.4450 C.2     1  UNL1        0.0000
     12  C          5.4050    0.3250    1.8250 C.2     1  UNL1        0.0000
@<TRIPOS>BOND
     1     4     2    1
     2     4     5    1
     3     3     2    2
     4     2     1    1
     5     6     1    1
     6     6     7    1
     7     7     8    2
     8     7     9    1
     9     8    10    1
    10     9    11    2
    11    10    12    2
    12    11    12    1
