@<TRIPOS>MOLECULE
/home/cewinharhar/GITHUB/reincatalyze/data/processed/docking_pred/2023-Apr-25-2033_maxeplen5_maxtrainstep200_exh16_gamma099_lrac3e-4_lrcr1e-3/090474ec6ad34f6c7e6271970b3dfdf762d08d64_ligand_2.pdbqt
 12 12 0 0 0
SMALL
GASTEIGER

@<TRIPOS>ATOM
      1  C          8.0590   -0.3140   -2.4170 C.3     1  UNL1        0.1270
      2  C          8.3210   -1.6850   -2.9250 C.2     1  UNL1        0.3030
      3  O          9.4920   -2.1350   -2.8980 O.2     1  UNL1       -0.2520
      4  O          7.3120   -2.4990   -3.4340 O.3     1  UNL1       -0.4810
      5  H          7.2920   -3.5150   -3.2590 H       1  UNL1        0.2960
      6  C          6.9210   -0.4030   -1.4390 C.3     1  UNL1        0.0470
      7  C          6.7200    0.8620   -0.6840 C.2     1  UNL1       -0.0470
      8  C          7.7690    1.4820   -0.0340 C.2     1  UNL1        0.0040
      9  C          5.4850    1.4780   -0.5970 C.2     1  UNL1        0.0040
     10  C          7.5710    2.6580    0.6640 C.2     1  UNL1        0.0000
     11  C          5.2850    2.6490    0.0980 C.2     1  UNL1        0.0000
     12  C          6.3350    3.2660    0.7480 C.2     1  UNL1        0.0000
@<TRIPOS>BOND
     1     4     5    1
     2     4     2    1
     3     2     3    2
     4     2     1    1
     5     1     6    1
     6     6     7    1
     7     7     9    2
     8     7     8    1
     9     9    11    1
    10     8    10    2
    11    11    12    2
    12    10    12    1
