@<TRIPOS>MOLECULE
/home/cewinharhar/GITHUB/reincatalyze/data/processed/docking_pred/2023-Apr-25-2033_maxeplen5_maxtrainstep200_exh16_gamma099_lrac3e-4_lrcr1e-3/09c0e00cbaa22f287e1ef7d21129eabb08ea3244_ligand_2.pdbqt
 12 12 0 0 0
SMALL
GASTEIGER

@<TRIPOS>ATOM
      1  C          5.7770    1.5230   -0.3280 C.3     1  UNL1        0.1270
      2  C          5.3090    2.2090    0.9040 C.2     1  UNL1        0.3030
      3  O          4.3950    1.6860    1.5870 O.2     1  UNL1       -0.2520
      4  O          5.8480    3.4180    1.3370 O.3     1  UNL1       -0.4810
      5  H          6.0640    3.5930    2.3300 H       1  UNL1        0.2960
      6  C          6.2860    0.1670    0.0750 C.3     1  UNL1        0.0470
      7  C          7.7580    0.0410   -0.0920 C.2     1  UNL1       -0.0470
      8  C          8.4590    0.8930   -0.9230 C.2     1  UNL1        0.0040
      9  C          8.4930   -0.9240    0.5700 C.2     1  UNL1        0.0040
     10  C          9.8270    0.7670   -1.0710 C.2     1  UNL1        0.0000
     11  C          9.8570   -1.0520    0.4250 C.2     1  UNL1        0.0000
     12  C         10.5550   -0.1990   -0.4070 C.2     1  UNL1        0.0000
@<TRIPOS>BOND
     1    10     8    1
     2    10    12    2
     3     8     7    2
     4    12    11    1
     5     1     6    1
     6     1     2    1
     7     7     6    1
     8     7     9    1
     9    11     9    2
    10     2     4    1
    11     2     3    2
    12     4     5    1
