@<TRIPOS>MOLECULE
/home/cewinharhar/GITHUB/reincatalyze/data/processed/docking_pred/2023-Apr-25-2033_maxeplen5_maxtrainstep200_exh16_gamma099_lrac3e-4_lrcr1e-3/09c0e00cbaa22f287e1ef7d21129eabb08ea3244_ligand_2.pdbqt
 12 12 0 0 0
SMALL
GASTEIGER

@<TRIPOS>ATOM
      1  C          8.3410    0.2820   -2.1310 C.3     1  UNL1        0.1270
      2  C          9.5890   -0.0150   -1.3820 C.2     1  UNL1        0.3030
      3  O          9.8050   -1.1880   -0.9920 O.2     1  UNL1       -0.2520
      4  O         10.5370    0.9630   -1.0920 O.3     1  UNL1       -0.4810
      5  H         11.4820    0.9440   -1.5040 H       1  UNL1        0.2960
      6  C          7.2900   -0.6860   -1.6620 C.3     1  UNL1        0.0470
      7  C          6.5450   -0.1840   -0.4770 C.2     1  UNL1       -0.0470
      8  C          6.4310   -0.9440    0.6710 C.2     1  UNL1        0.0040
      9  C          5.9340    1.0560   -0.4640 C.2     1  UNL1        0.0040
     10  C          5.7360   -0.4680    1.7660 C.2     1  UNL1        0.0000
     11  C          5.2410    1.5330    0.6270 C.2     1  UNL1        0.0000
     12  C          5.1290    0.7710    1.7720 C.2     1  UNL1        0.0000
@<TRIPOS>BOND
     1     1     6    1
     2     1     2    1
     3     6     7    1
     4     5     4    1
     5     2     4    1
     6     2     3    2
     7     7     9    2
     8     7     8    1
     9     9    11    1
    10    11    12    2
    11     8    10    2
    12    10    12    1
