MODEL 1
REMARK VINA RESULT:      -7.0      0.000      0.000
REMARK SMILES O=C(O)CCc1ccccc1
REMARK SMILES IDX 4 1 2 2 1 3 3 4 5 6 6 7 7 8 11 9 8 10 10 11 9 12
REMARK H PARENT 3 5
REMARK Flexibility Score: inf
ROOT
ATOM      1  C   UNL     1       8.527  -0.649  -2.084  1.00  0.00     0.127 C 
ENDROOT
BRANCH   1   2
ATOM      2  C   UNL     1       8.525  -1.924  -2.848  1.00  0.00     0.303 C 
ATOM      3  O   UNL     1       9.611  -2.523  -3.041  1.00  0.00    -0.252 OA
BRANCH   2   4
ATOM      4  O   UNL     1       7.359  -2.487  -3.360  1.00  0.00    -0.481 OA
ATOM      5  H   UNL     1       6.832  -3.209  -2.846  1.00  0.00     0.296 HD
ENDBRANCH   2   4
ENDBRANCH   1   2
BRANCH   1   6
ATOM      6  C   UNL     1       7.131  -0.092  -2.131  1.00  0.00     0.047 C 
BRANCH   6   7
ATOM      7  C   UNL     1       6.532   0.052  -0.778  1.00  0.00    -0.047 A 
ATOM      8  C   UNL     1       5.874   1.209  -0.407  1.00  0.00     0.004 A 
ATOM      9  C   UNL     1       6.601  -0.954   0.167  1.00  0.00     0.004 A 
ATOM     10  C   UNL     1       5.321   1.332   0.853  1.00  0.00     0.000 A 
ATOM     11  C   UNL     1       6.050  -0.833   1.424  1.00  0.00     0.000 A 
ATOM     12  C   UNL     1       5.394   0.324   1.793  1.00  0.00     0.000 A 
ENDBRANCH   6   7
ENDBRANCH   1   6
TORSDOF 4
ENDMDL
MODEL 2
REMARK VINA RESULT:      -7.0      0.141      1.425
REMARK SMILES O=C(O)CCc1ccccc1
REMARK SMILES IDX 4 1 2 2 1 3 3 4 5 6 6 7 7 8 11 9 8 10 10 11 9 12
REMARK H PARENT 3 5
REMARK Flexibility Score: inf
ROOT
ATOM      1  C   UNL     1       8.497  -0.836  -1.899  1.00  0.00     0.127 C 
ENDROOT
BRANCH   1   2
ATOM      2  C   UNL     1       8.497  -2.000  -2.822  1.00  0.00     0.303 C 
ATOM      3  O   UNL     1       9.583  -2.568  -3.092  1.00  0.00    -0.252 OA
BRANCH   2   4
ATOM      4  O   UNL     1       7.332  -2.492  -3.406  1.00  0.00    -0.481 OA
ATOM      5  H   UNL     1       6.411  -2.063  -3.228  1.00  0.00     0.296 HD
ENDBRANCH   2   4
ENDBRANCH   1   2
BRANCH   1   6
ATOM      6  C   UNL     1       7.158  -0.162  -2.021  1.00  0.00     0.047 C 
BRANCH   6   7
ATOM      7  C   UNL     1       6.509   0.054  -0.701  1.00  0.00    -0.047 A 
ATOM      8  C   UNL     1       6.558  -0.911   0.287  1.00  0.00     0.004 A 
ATOM      9  C   UNL     1       5.832   1.220  -0.397  1.00  0.00     0.004 A 
ATOM     10  C   UNL     1       5.951  -0.699   1.510  1.00  0.00     0.000 A 
ATOM     11  C   UNL     1       5.227   1.433   0.822  1.00  0.00     0.000 A 
ATOM     12  C   UNL     1       5.276   0.467   1.807  1.00  0.00     0.000 A 
ENDBRANCH   6   7
ENDBRANCH   1   6
TORSDOF 4
ENDMDL
MODEL 3
REMARK VINA RESULT:      -6.5      1.582      2.415
REMARK SMILES O=C(O)CCc1ccccc1
REMARK SMILES IDX 4 1 2 2 1 3 3 4 5 6 6 7 7 8 11 9 8 10 10 11 9 12
REMARK H PARENT 3 5
REMARK Flexibility Score: inf
ROOT
ATOM      1  C   UNL     1       8.341   0.282  -2.131  1.00  0.00     0.127 C 
ENDROOT
BRANCH   1   2
ATOM      2  C   UNL     1       9.589  -0.015  -1.382  1.00  0.00     0.303 C 
ATOM      3  O   UNL     1       9.805  -1.188  -0.992  1.00  0.00    -0.252 OA
BRANCH   2   4
ATOM      4  O   UNL     1      10.537   0.963  -1.092  1.00  0.00    -0.481 OA
ATOM      5  H   UNL     1      11.482   0.944  -1.504  1.00  0.00     0.296 HD
ENDBRANCH   2   4
ENDBRANCH   1   2
BRANCH   1   6
ATOM      6  C   UNL     1       7.290  -0.686  -1.662  1.00  0.00     0.047 C 
BRANCH   6   7
ATOM      7  C   UNL     1       6.545  -0.184  -0.477  1.00  0.00    -0.047 A 
ATOM      8  C   UNL     1       6.431  -0.944   0.671  1.00  0.00     0.004 A 
ATOM      9  C   UNL     1       5.934   1.056  -0.464  1.00  0.00     0.004 A 
ATOM     10  C   UNL     1       5.736  -0.468   1.766  1.00  0.00     0.000 A 
ATOM     11  C   UNL     1       5.241   1.533   0.627  1.00  0.00     0.000 A 
ATOM     12  C   UNL     1       5.129   0.771   1.772  1.00  0.00     0.000 A 
ENDBRANCH   6   7
ENDBRANCH   1   6
TORSDOF 4
ENDMDL
MODEL 4
REMARK VINA RESULT:      -6.5      3.500      5.128
REMARK SMILES O=C(O)CCc1ccccc1
REMARK SMILES IDX 4 1 2 2 1 3 3 4 5 6 6 7 7 8 11 9 8 10 10 11 9 12
REMARK H PARENT 3 5
REMARK Flexibility Score: inf
ROOT
ATOM      1  C   UNL     1       5.975   1.023   0.037  1.00  0.00     0.127 C 
ENDROOT
BRANCH   1   2
ATOM      2  C   UNL     1       5.124   1.243   1.235  1.00  0.00     0.303 C 
ATOM      3  O   UNL     1       4.341   2.224   1.258  1.00  0.00    -0.252 OA
BRANCH   2   4
ATOM      4  O   UNL     1       5.158   0.399   2.342  1.00  0.00    -0.481 OA
ATOM      5  H   UNL     1       4.382  -0.245   2.559  1.00  0.00     0.296 HD
ENDBRANCH   2   4
ENDBRANCH   1   2
BRANCH   1   6
ATOM      6  C   UNL     1       6.608  -0.334   0.175  1.00  0.00     0.047 C 
BRANCH   6   7
ATOM      7  C   UNL     1       8.084  -0.292   0.001  1.00  0.00    -0.047 A 
ATOM      8  C   UNL     1       8.908  -1.177   0.668  1.00  0.00     0.004 A 
ATOM      9  C   UNL     1       8.700   0.624  -0.831  1.00  0.00     0.004 A 
ATOM     10  C   UNL     1      10.279  -1.129   0.498  1.00  0.00     0.000 A 
ATOM     11  C   UNL     1      10.066   0.674  -1.002  1.00  0.00     0.000 A 
ATOM     12  C   UNL     1      10.887  -0.211  -0.333  1.00  0.00     0.000 A 
ENDBRANCH   6   7
ENDBRANCH   1   6
TORSDOF 4
ENDMDL
MODEL 5
REMARK VINA RESULT:      -6.5      3.647      4.977
REMARK SMILES O=C(O)CCc1ccccc1
REMARK SMILES IDX 4 1 2 2 1 3 3 4 5 6 6 7 7 8 11 9 8 10 10 11 9 12
REMARK H PARENT 3 5
REMARK Flexibility Score: inf
ROOT
ATOM      1  C   UNL     1       5.777   1.523  -0.328  1.00  0.00     0.127 C 
ENDROOT
BRANCH   1   2
ATOM      2  C   UNL     1       5.309   2.209   0.904  1.00  0.00     0.303 C 
ATOM      3  O   UNL     1       4.395   1.686   1.587  1.00  0.00    -0.252 OA
BRANCH   2   4
ATOM      4  O   UNL     1       5.848   3.418   1.337  1.00  0.00    -0.481 OA
ATOM      5  H   UNL     1       6.064   3.593   2.330  1.00  0.00     0.296 HD
ENDBRANCH   2   4
ENDBRANCH   1   2
BRANCH   1   6
ATOM      6  C   UNL     1       6.286   0.167   0.075  1.00  0.00     0.047 C 
BRANCH   6   7
ATOM      7  C   UNL     1       7.758   0.041  -0.092  1.00  0.00    -0.047 A 
ATOM      8  C   UNL     1       8.459   0.893  -0.923  1.00  0.00     0.004 A 
ATOM      9  C   UNL     1       8.493  -0.924   0.570  1.00  0.00     0.004 A 
ATOM     10  C   UNL     1       9.827   0.767  -1.071  1.00  0.00     0.000 A 
ATOM     11  C   UNL     1       9.857  -1.052   0.425  1.00  0.00     0.000 A 
ATOM     12  C   UNL     1      10.555  -0.199  -0.407  1.00  0.00     0.000 A 
ENDBRANCH   6   7
ENDBRANCH   1   6
TORSDOF 4
ENDMDL
