@<TRIPOS>MOLECULE
/home/cewinharhar/GITHUB/reincatalyze/data/processed/docking_pred/2023-Apr-25-2033_maxeplen5_maxtrainstep200_exh16_gamma099_lrac3e-4_lrcr1e-3/09c0e00cbaa22f287e1ef7d21129eabb08ea3244_ligand_2.pdbqt
 12 12 0 0 0
SMALL
GASTEIGER

@<TRIPOS>ATOM
      1  C          5.9750    1.0230    0.0370 C.3     1  UNL1        0.1270
      2  C          5.1240    1.2430    1.2350 C.2     1  UNL1        0.3030
      3  O          4.3410    2.2240    1.2580 O.2     1  UNL1       -0.2520
      4  O          5.1580    0.3990    2.3420 O.3     1  UNL1       -0.4810
      5  H          4.3820   -0.2450    2.5590 H       1  UNL1        0.2960
      6  C          6.6080   -0.3340    0.1750 C.3     1  UNL1        0.0470
      7  C          8.0840   -0.2920    0.0010 C.2     1  UNL1       -0.0470
      8  C          8.9080   -1.1770    0.6680 C.2     1  UNL1        0.0040
      9  C          8.7000    0.6240   -0.8310 C.2     1  UNL1        0.0040
     10  C         10.2790   -1.1290    0.4980 C.2     1  UNL1        0.0000
     11  C         10.0660    0.6740   -1.0020 C.2     1  UNL1        0.0000
     12  C         10.8870   -0.2110   -0.3330 C.2     1  UNL1        0.0000
@<TRIPOS>BOND
     1    11     9    1
     2    11    12    2
     3     9     7    2
     4    12    10    1
     5     7     6    1
     6     7     8    1
     7     1     6    1
     8     1     2    1
     9    10     8    2
    10     2     3    2
    11     2     4    1
    12     4     5    1
