@<TRIPOS>MOLECULE
/home/cewinharhar/GITHUB/reincatalyze/data/processed/docking_pred/2023-Apr-25-2033_maxeplen5_maxtrainstep200_exh16_gamma099_lrac3e-4_lrcr1e-3/09c0e00cbaa22f287e1ef7d21129eabb08ea3244_ligand_2.pdbqt
 12 12 0 0 0
SMALL
GASTEIGER

@<TRIPOS>ATOM
      1  C          8.4970   -0.8360   -1.8990 C.3     1  UNL1        0.1270
      2  C          8.4970   -2.0000   -2.8220 C.2     1  UNL1        0.3030
      3  O          9.5830   -2.5680   -3.0920 O.2     1  UNL1       -0.2520
      4  O          7.3320   -2.4920   -3.4060 O.3     1  UNL1       -0.4810
      5  H          6.4110   -2.0630   -3.2280 H       1  UNL1        0.2960
      6  C          7.1580   -0.1620   -2.0210 C.3     1  UNL1        0.0470
      7  C          6.5090    0.0540   -0.7010 C.2     1  UNL1       -0.0470
      8  C          6.5580   -0.9110    0.2870 C.2     1  UNL1        0.0040
      9  C          5.8320    1.2200   -0.3970 C.2     1  UNL1        0.0040
     10  C          5.9510   -0.6990    1.5100 C.2     1  UNL1        0.0000
     11  C          5.2270    1.4330    0.8220 C.2     1  UNL1        0.0000
     12  C          5.2760    0.4670    1.8070 C.2     1  UNL1        0.0000
@<TRIPOS>BOND
     1     4     5    1
     2     4     2    1
     3     3     2    2
     4     2     1    1
     5     6     1    1
     6     6     7    1
     7     7     9    2
     8     7     8    1
     9     9    11    1
    10     8    10    2
    11    11    12    2
    12    10    12    1
