@<TRIPOS>MOLECULE
/home/cewinharhar/GITHUB/reincatalyze/data/processed/docking_pred/2023-Apr-25-2033_maxeplen5_maxtrainstep200_exh16_gamma099_lrac3e-4_lrcr1e-3/09c0e00cbaa22f287e1ef7d21129eabb08ea3244_ligand_2.pdbqt
 12 12 0 0 0
SMALL
GASTEIGER

@<TRIPOS>ATOM
      1  C          8.5270   -0.6490   -2.0840 C.3     1  UNL1        0.1270
      2  C          8.5250   -1.9240   -2.8480 C.2     1  UNL1        0.3030
      3  O          9.6110   -2.5230   -3.0410 O.2     1  UNL1       -0.2520
      4  O          7.3590   -2.4870   -3.3600 O.3     1  UNL1       -0.4810
      5  H          6.8320   -3.2090   -2.8460 H       1  UNL1        0.2960
      6  C          7.1310   -0.0920   -2.1310 C.3     1  UNL1        0.0470
      7  C          6.5320    0.0520   -0.7780 C.2     1  UNL1       -0.0470
      8  C          5.8740    1.2090   -0.4070 C.2     1  UNL1        0.0040
      9  C          6.6010   -0.9540    0.1670 C.2     1  UNL1        0.0040
     10  C          5.3210    1.3320    0.8530 C.2     1  UNL1        0.0000
     11  C          6.0500   -0.8330    1.4240 C.2     1  UNL1        0.0000
     12  C          5.3940    0.3240    1.7930 C.2     1  UNL1        0.0000
@<TRIPOS>BOND
     1     4     2    1
     2     4     5    1
     3     3     2    2
     4     2     1    1
     5     6     1    1
     6     6     7    1
     7     7     8    2
     8     7     9    1
     9     8    10    1
    10     9    11    2
    11    10    12    2
    12    11    12    1
