@<TRIPOS>MOLECULE
/home/cewinharhar/GITHUB/reincatalyze/data/processed/docking_pred/2023-Apr-25-2033_maxeplen5_maxtrainstep200_exh16_gamma099_lrac3e-4_lrcr1e-3/0bc78f1071f374665515956646110ea4a2a90639_ligand_2.pdbqt
 12 12 0 0 0
SMALL
GASTEIGER

@<TRIPOS>ATOM
      1  C          4.9880    1.7970    0.6870 C.3     1  UNL1        0.1270
      2  C          4.4710    1.1290    1.9100 C.2     1  UNL1        0.3030
      3  O          5.1630    0.2400    2.4620 O.2     1  UNL1       -0.2520
      4  O          3.2390    1.4530    2.4730 O.3     1  UNL1       -0.4810
      5  H          2.7380    0.8010    3.0960 H       1  UNL1        0.2960
      6  C          6.4890    1.8110    0.7800 C.3     1  UNL1        0.0470
      7  C          7.1330    1.0520   -0.3240 C.2     1  UNL1       -0.0470
      8  C          6.4130    0.1580   -1.0930 C.2     1  UNL1        0.0040
      9  C          8.4720    1.2020   -0.6360 C.2     1  UNL1        0.0040
     10  C          7.0220   -0.5420   -2.1170 C.2     1  UNL1        0.0000
     11  C          9.0810    0.5060   -1.6560 C.2     1  UNL1        0.0000
     12  C          8.3590   -0.3880   -2.4220 C.2     1  UNL1        0.0000
@<TRIPOS>BOND
     1    12    10    2
     2    12    11    1
     3    10     8    1
     4    11     9    2
     5     8     7    2
     6     9     7    1
     7     7     6    1
     8     1     6    1
     9     1     2    1
    10     2     3    2
    11     2     4    1
    12     4     5    1
