@<TRIPOS>MOLECULE
/home/cewinharhar/GITHUB/reincatalyze/data/processed/docking_pred/2023-Apr-25-2033_maxeplen5_maxtrainstep200_exh16_gamma099_lrac3e-4_lrcr1e-3/0bc78f1071f374665515956646110ea4a2a90639_ligand_2.pdbqt
 12 12 0 0 0
SMALL
GASTEIGER

@<TRIPOS>ATOM
      1  C          5.4440    2.8850   -0.0120 C.3     1  UNL1        0.1270
      2  C          6.2340    3.8390    0.8090 C.2     1  UNL1        0.3030
      3  O          6.8470    4.7740    0.2410 O.2     1  UNL1       -0.2520
      4  O          6.3200    3.7370    2.1950 O.3     1  UNL1       -0.4810
      5  H          7.1700    4.0150    2.7090 H       1  UNL1        0.2960
      6  C          4.8820    1.8450    0.9170 C.3     1  UNL1        0.0470
      7  C          5.7010    0.6050    0.9430 C.2     1  UNL1       -0.0470
      8  C          5.7440   -0.2000    2.0650 C.2     1  UNL1        0.0040
      9  C          6.4530    0.1970   -0.1420 C.2     1  UNL1        0.0040
     10  C          6.5090   -1.3510    2.0790 C.2     1  UNL1        0.0000
     11  C          7.2160   -0.9500   -0.1310 C.2     1  UNL1        0.0000
     12  C          7.2580   -1.7520    0.9920 C.2     1  UNL1        0.0000
@<TRIPOS>BOND
     1     9    11    1
     2     9     7    2
     3    11    12    2
     4     1     2    1
     5     1     6    1
     6     3     2    2
     7     2     4    1
     8     6     7    1
     9     7     8    1
    10    12    10    1
    11     8    10    2
    12     4     5    1
