@<TRIPOS>MOLECULE
/home/cewinharhar/GITHUB/reincatalyze/data/processed/docking_pred/2023-Apr-25-2033_maxeplen5_maxtrainstep200_exh16_gamma099_lrac3e-4_lrcr1e-3/0bc78f1071f374665515956646110ea4a2a90639_ligand_2.pdbqt
 12 12 0 0 0
SMALL
GASTEIGER

@<TRIPOS>ATOM
      1  C          8.4490   -0.5770   -2.1740 C.3     1  UNL1        0.1270
      2  C          8.4430   -1.8750   -2.8970 C.2     1  UNL1        0.3030
      3  O          7.3450   -2.4010   -3.2010 O.2     1  UNL1       -0.2520
      4  O          9.6140   -2.5360   -3.2550 O.3     1  UNL1       -0.4810
      5  H          9.6750   -3.5660   -3.2700 H       1  UNL1        0.2960
      6  C          7.0360   -0.0620   -2.1550 C.3     1  UNL1        0.0470
      7  C          6.4930    0.0570   -0.7760 C.2     1  UNL1       -0.0470
      8  C          5.8620    1.2100   -0.3530 C.2     1  UNL1        0.0040
      9  C          6.5900   -0.9710    0.1430 C.2     1  UNL1        0.0040
     10  C          5.3620    1.3100    0.9320 C.2     1  UNL1        0.0000
     11  C          6.0920   -0.8740    1.4240 C.2     1  UNL1        0.0000
     12  C          5.4620    0.2800    1.8440 C.2     1  UNL1        0.0000
@<TRIPOS>BOND
     1     5     4    1
     2     4     2    1
     3     3     2    2
     4     2     1    1
     5     1     6    1
     6     6     7    1
     7     7     8    2
     8     7     9    1
     9     8    10    1
    10     9    11    2
    11    10    12    2
    12    11    12    1
