@<TRIPOS>MOLECULE
/home/cewinharhar/GITHUB/reincatalyze/data/processed/docking_pred/2023-Apr-25-2033_maxeplen5_maxtrainstep200_exh16_gamma099_lrac3e-4_lrcr1e-3/0bc78f1071f374665515956646110ea4a2a90639_ligand_2.pdbqt
 12 12 0 0 0
SMALL
GASTEIGER

@<TRIPOS>ATOM
      1  C          8.1190   -0.7390   -2.0920 C.3     1  UNL1        0.1270
      2  C          8.3000   -1.9440   -2.9440 C.2     1  UNL1        0.3030
      3  O          9.4480   -2.4320   -3.0780 O.2     1  UNL1       -0.2520
      4  O          7.2390   -2.5590   -3.6030 O.3     1  UNL1       -0.4810
      5  H          6.8760   -3.4790   -3.3100 H       1  UNL1        0.2960
      6  C          7.6240   -1.2040   -0.7500 C.3     1  UNL1        0.0470
      7  C          6.6850   -0.2360   -0.1250 C.2     1  UNL1       -0.0470
      8  C          6.2000   -0.4340    1.1530 C.2     1  UNL1        0.0040
      9  C          6.2550    0.9010   -0.7830 C.2     1  UNL1        0.0040
     10  C          5.3270    0.4730    1.7240 C.2     1  UNL1        0.0000
     11  C          5.3860    1.8060   -0.2160 C.2     1  UNL1        0.0000
     12  C          4.9020    1.6050    1.0610 C.2     1  UNL1        0.0000
@<TRIPOS>BOND
     1     4     5    1
     2     4     2    1
     3     3     2    2
     4     2     1    1
     5     1     6    1
     6     9    11    1
     7     9     7    2
     8     6     7    1
     9    11    12    2
    10     7     8    1
    11    12    10    1
    12     8    10    2
