@<TRIPOS>MOLECULE
/home/cewinharhar/GITHUB/reincatalyze/data/processed/docking_pred/2023-Apr-25-2033_maxeplen5_maxtrainstep200_exh16_gamma099_lrac3e-4_lrcr1e-3/0bc78f1071f374665515956646110ea4a2a90639_ligand_2.pdbqt
 12 12 0 0 0
SMALL
GASTEIGER

@<TRIPOS>ATOM
      1  C          8.4480   -0.5810   -2.2100 C.3     1  UNL1        0.1270
      2  C          8.4680   -1.8810   -2.9280 C.2     1  UNL1        0.3030
      3  O          9.5620   -2.4720   -3.0950 O.2     1  UNL1       -0.2520
      4  O          7.3120   -2.4780   -3.4260 O.3     1  UNL1       -0.4810
      5  H          7.3480   -3.2140   -4.1470 H       1  UNL1        0.2960
      6  C          7.0250   -0.0970   -2.1890 C.3     1  UNL1        0.0470
      7  C          6.4890    0.0320   -0.8080 C.2     1  UNL1       -0.0470
      8  C          6.6270   -0.9900    0.1110 C.2     1  UNL1        0.0040
      9  C          5.8330    1.1700   -0.3770 C.2     1  UNL1        0.0040
     10  C          6.1260   -0.8600    1.3920 C.2     1  UNL1        0.0000
     11  C          5.3320    1.3020    0.8990 C.2     1  UNL1        0.0000
     12  C          5.4710    0.2780    1.8150 C.2     1  UNL1        0.0000
@<TRIPOS>BOND
     1     5     4    1
     2     4     2    1
     3     3     2    2
     4     2     1    1
     5     1     6    1
     6     6     7    1
     7     7     9    2
     8     7     8    1
     9     9    11    1
    10     8    10    2
    11    11    12    2
    12    10    12    1
