MODEL 1
REMARK VINA RESULT:      -7.3      0.000      0.000
REMARK SMILES O=C(O)CCc1ccccc1
REMARK SMILES IDX 4 1 2 2 1 3 3 4 5 6 6 7 7 8 11 9 8 10 10 11 9 12
REMARK H PARENT 3 5
REMARK Flexibility Score: inf
ROOT
ATOM      1  C   UNL     1       8.448  -0.581  -2.210  1.00  0.00     0.127 C 
ENDROOT
BRANCH   1   2
ATOM      2  C   UNL     1       8.468  -1.881  -2.928  1.00  0.00     0.303 C 
ATOM      3  O   UNL     1       9.562  -2.472  -3.095  1.00  0.00    -0.252 OA
BRANCH   2   4
ATOM      4  O   UNL     1       7.312  -2.478  -3.426  1.00  0.00    -0.481 OA
ATOM      5  H   UNL     1       7.348  -3.214  -4.147  1.00  0.00     0.296 HD
ENDBRANCH   2   4
ENDBRANCH   1   2
BRANCH   1   6
ATOM      6  C   UNL     1       7.025  -0.097  -2.189  1.00  0.00     0.047 C 
BRANCH   6   7
ATOM      7  C   UNL     1       6.489   0.032  -0.808  1.00  0.00    -0.047 A 
ATOM      8  C   UNL     1       6.627  -0.990   0.111  1.00  0.00     0.004 A 
ATOM      9  C   UNL     1       5.833   1.170  -0.377  1.00  0.00     0.004 A 
ATOM     10  C   UNL     1       6.126  -0.860   1.392  1.00  0.00     0.000 A 
ATOM     11  C   UNL     1       5.332   1.302   0.899  1.00  0.00     0.000 A 
ATOM     12  C   UNL     1       5.471   0.278   1.815  1.00  0.00     0.000 A 
ENDBRANCH   6   7
ENDBRANCH   1   6
TORSDOF 4
ENDMDL
MODEL 2
REMARK VINA RESULT:      -7.2      0.099      1.717
REMARK SMILES O=C(O)CCc1ccccc1
REMARK SMILES IDX 4 1 2 2 1 3 3 4 5 6 6 7 7 8 11 9 8 10 10 11 9 12
REMARK H PARENT 3 5
REMARK Flexibility Score: inf
ROOT
ATOM      1  C   UNL     1       8.449  -0.577  -2.174  1.00  0.00     0.127 C 
ENDROOT
BRANCH   1   2
ATOM      2  C   UNL     1       8.443  -1.875  -2.897  1.00  0.00     0.303 C 
ATOM      3  O   UNL     1       7.345  -2.401  -3.201  1.00  0.00    -0.252 OA
BRANCH   2   4
ATOM      4  O   UNL     1       9.614  -2.536  -3.255  1.00  0.00    -0.481 OA
ATOM      5  H   UNL     1       9.675  -3.566  -3.270  1.00  0.00     0.296 HD
ENDBRANCH   2   4
ENDBRANCH   1   2
BRANCH   1   6
ATOM      6  C   UNL     1       7.036  -0.062  -2.155  1.00  0.00     0.047 C 
BRANCH   6   7
ATOM      7  C   UNL     1       6.493   0.057  -0.776  1.00  0.00    -0.047 A 
ATOM      8  C   UNL     1       5.862   1.210  -0.353  1.00  0.00     0.004 A 
ATOM      9  C   UNL     1       6.590  -0.971   0.143  1.00  0.00     0.004 A 
ATOM     10  C   UNL     1       5.362   1.310   0.932  1.00  0.00     0.000 A 
ATOM     11  C   UNL     1       6.092  -0.874   1.424  1.00  0.00     0.000 A 
ATOM     12  C   UNL     1       5.462   0.280   1.844  1.00  0.00     0.000 A 
ENDBRANCH   6   7
ENDBRANCH   1   6
TORSDOF 4
ENDMDL
MODEL 3
REMARK VINA RESULT:      -7.1      0.622      1.093
REMARK SMILES O=C(O)CCc1ccccc1
REMARK SMILES IDX 4 1 2 2 1 3 3 4 5 6 6 7 7 8 11 9 8 10 10 11 9 12
REMARK H PARENT 3 5
REMARK Flexibility Score: inf
ROOT
ATOM      1  C   UNL     1       8.119  -0.739  -2.092  1.00  0.00     0.127 C 
ENDROOT
BRANCH   1   2
ATOM      2  C   UNL     1       8.300  -1.944  -2.944  1.00  0.00     0.303 C 
ATOM      3  O   UNL     1       9.448  -2.432  -3.078  1.00  0.00    -0.252 OA
BRANCH   2   4
ATOM      4  O   UNL     1       7.239  -2.559  -3.603  1.00  0.00    -0.481 OA
ATOM      5  H   UNL     1       6.876  -3.479  -3.310  1.00  0.00     0.296 HD
ENDBRANCH   2   4
ENDBRANCH   1   2
BRANCH   1   6
ATOM      6  C   UNL     1       7.624  -1.204  -0.750  1.00  0.00     0.047 C 
BRANCH   6   7
ATOM      7  C   UNL     1       6.685  -0.236  -0.125  1.00  0.00    -0.047 A 
ATOM      8  C   UNL     1       6.200  -0.434   1.153  1.00  0.00     0.004 A 
ATOM      9  C   UNL     1       6.255   0.901  -0.783  1.00  0.00     0.004 A 
ATOM     10  C   UNL     1       5.327   0.473   1.724  1.00  0.00     0.000 A 
ATOM     11  C   UNL     1       5.386   1.806  -0.216  1.00  0.00     0.000 A 
ATOM     12  C   UNL     1       4.902   1.605   1.061  1.00  0.00     0.000 A 
ENDBRANCH   6   7
ENDBRANCH   1   6
TORSDOF 4
ENDMDL
MODEL 4
REMARK VINA RESULT:      -6.7      3.392      5.084
REMARK SMILES O=C(O)CCc1ccccc1
REMARK SMILES IDX 4 1 2 2 1 3 3 4 5 6 6 7 7 8 11 9 8 10 10 11 9 12
REMARK H PARENT 3 5
REMARK Flexibility Score: inf
ROOT
ATOM      1  C   UNL     1       4.988   1.797   0.687  1.00  0.00     0.127 C 
ENDROOT
BRANCH   1   2
ATOM      2  C   UNL     1       4.471   1.129   1.910  1.00  0.00     0.303 C 
ATOM      3  O   UNL     1       5.163   0.240   2.462  1.00  0.00    -0.252 OA
BRANCH   2   4
ATOM      4  O   UNL     1       3.239   1.453   2.473  1.00  0.00    -0.481 OA
ATOM      5  H   UNL     1       2.738   0.801   3.096  1.00  0.00     0.296 HD
ENDBRANCH   2   4
ENDBRANCH   1   2
BRANCH   1   6
ATOM      6  C   UNL     1       6.489   1.811   0.780  1.00  0.00     0.047 C 
BRANCH   6   7
ATOM      7  C   UNL     1       7.133   1.052  -0.324  1.00  0.00    -0.047 A 
ATOM      8  C   UNL     1       6.413   0.158  -1.093  1.00  0.00     0.004 A 
ATOM      9  C   UNL     1       8.472   1.202  -0.636  1.00  0.00     0.004 A 
ATOM     10  C   UNL     1       7.022  -0.542  -2.117  1.00  0.00     0.000 A 
ATOM     11  C   UNL     1       9.081   0.506  -1.656  1.00  0.00     0.000 A 
ATOM     12  C   UNL     1       8.359  -0.388  -2.422  1.00  0.00     0.000 A 
ENDBRANCH   6   7
ENDBRANCH   1   6
TORSDOF 4
ENDMDL
MODEL 5
REMARK VINA RESULT:      -6.6      3.839      4.926
REMARK SMILES O=C(O)CCc1ccccc1
REMARK SMILES IDX 4 1 2 2 1 3 3 4 5 6 6 7 7 8 11 9 8 10 10 11 9 12
REMARK H PARENT 3 5
REMARK Flexibility Score: inf
ROOT
ATOM      1  C   UNL     1       5.444   2.885  -0.012  1.00  0.00     0.127 C 
ENDROOT
BRANCH   1   2
ATOM      2  C   UNL     1       6.234   3.839   0.809  1.00  0.00     0.303 C 
ATOM      3  O   UNL     1       6.847   4.774   0.241  1.00  0.00    -0.252 OA
BRANCH   2   4
ATOM      4  O   UNL     1       6.320   3.737   2.195  1.00  0.00    -0.481 OA
ATOM      5  H   UNL     1       7.170   4.015   2.709  1.00  0.00     0.296 HD
ENDBRANCH   2   4
ENDBRANCH   1   2
BRANCH   1   6
ATOM      6  C   UNL     1       4.882   1.845   0.917  1.00  0.00     0.047 C 
BRANCH   6   7
ATOM      7  C   UNL     1       5.701   0.605   0.943  1.00  0.00    -0.047 A 
ATOM      8  C   UNL     1       5.744  -0.200   2.065  1.00  0.00     0.004 A 
ATOM      9  C   UNL     1       6.453   0.197  -0.142  1.00  0.00     0.004 A 
ATOM     10  C   UNL     1       6.509  -1.351   2.079  1.00  0.00     0.000 A 
ATOM     11  C   UNL     1       7.216  -0.950  -0.131  1.00  0.00     0.000 A 
ATOM     12  C   UNL     1       7.258  -1.752   0.992  1.00  0.00     0.000 A 
ENDBRANCH   6   7
ENDBRANCH   1   6
TORSDOF 4
ENDMDL
