MODEL 1
REMARK VINA RESULT:      -7.3      0.000      0.000
REMARK SMILES O=C(O)CCc1ccccc1
REMARK SMILES IDX 4 1 2 2 1 3 3 4 5 6 6 7 7 8 11 9 8 10 10 11 9 12
REMARK H PARENT 3 5
REMARK Flexibility Score: inf
ROOT
ATOM      1  C   UNL     1       8.431  -0.644  -2.100  1.00  0.00     0.127 C 
ENDROOT
BRANCH   1   2
ATOM      2  C   UNL     1       8.411  -1.910  -2.878  1.00  0.00     0.303 C 
ATOM      3  O   UNL     1       7.308  -2.409  -3.207  1.00  0.00    -0.252 OA
BRANCH   2   4
ATOM      4  O   UNL     1       9.576  -2.571  -3.261  1.00  0.00    -0.481 OA
ATOM      5  H   UNL     1       9.613  -3.597  -3.356  1.00  0.00     0.296 HD
ENDBRANCH   2   4
ENDBRANCH   1   2
BRANCH   1   6
ATOM      6  C   UNL     1       7.036  -0.083  -2.113  1.00  0.00     0.047 C 
BRANCH   6   7
ATOM      7  C   UNL     1       6.469   0.058  -0.746  1.00  0.00    -0.047 A 
ATOM      8  C   UNL     1       5.817   1.213  -0.358  1.00  0.00     0.004 A 
ATOM      9  C   UNL     1       6.562  -0.948   0.197  1.00  0.00     0.004 A 
ATOM     10  C   UNL     1       5.293   1.334   0.915  1.00  0.00     0.000 A 
ATOM     11  C   UNL     1       6.041  -0.830   1.466  1.00  0.00     0.000 A 
ATOM     12  C   UNL     1       5.390   0.325   1.851  1.00  0.00     0.000 A 
ENDBRANCH   6   7
ENDBRANCH   1   6
TORSDOF 4
ENDMDL
MODEL 2
REMARK VINA RESULT:      -7.2      0.078      1.421
REMARK SMILES O=C(O)CCc1ccccc1
REMARK SMILES IDX 4 1 2 2 1 3 3 4 5 6 6 7 7 8 11 9 8 10 10 11 9 12
REMARK H PARENT 3 5
REMARK Flexibility Score: inf
ROOT
ATOM      1  C   UNL     1       8.470  -0.615  -2.136  1.00  0.00     0.127 C 
ENDROOT
BRANCH   1   2
ATOM      2  C   UNL     1       8.441  -1.901  -2.880  1.00  0.00     0.303 C 
ATOM      3  O   UNL     1       7.334  -2.398  -3.200  1.00  0.00    -0.252 OA
BRANCH   2   4
ATOM      4  O   UNL     1       9.600  -2.583  -3.239  1.00  0.00    -0.481 OA
ATOM      5  H   UNL     1       9.801  -3.534  -2.895  1.00  0.00     0.296 HD
ENDBRANCH   2   4
ENDBRANCH   1   2
BRANCH   1   6
ATOM      6  C   UNL     1       7.078  -0.046  -2.162  1.00  0.00     0.047 C 
BRANCH   6   7
ATOM      7  C   UNL     1       6.503   0.108  -0.800  1.00  0.00    -0.047 A 
ATOM      8  C   UNL     1       6.622  -0.893   0.144  1.00  0.00     0.004 A 
ATOM      9  C   UNL     1       5.828   1.250  -0.412  1.00  0.00     0.004 A 
ATOM     10  C   UNL     1       6.083  -0.739   1.408  1.00  0.00     0.000 A 
ATOM     11  C   UNL     1       5.290   1.406   0.847  1.00  0.00     0.000 A 
ATOM     12  C   UNL     1       5.410   0.403   1.788  1.00  0.00     0.000 A 
ENDBRANCH   6   7
ENDBRANCH   1   6
TORSDOF 4
ENDMDL
MODEL 3
REMARK VINA RESULT:      -6.8      3.314      5.183
REMARK SMILES O=C(O)CCc1ccccc1
REMARK SMILES IDX 4 1 2 2 1 3 3 4 5 6 6 7 7 8 11 9 8 10 10 11 9 12
REMARK H PARENT 3 5
REMARK Flexibility Score: inf
ROOT
ATOM      1  C   UNL     1       4.957   1.810   0.710  1.00  0.00     0.127 C 
ENDROOT
BRANCH   1   2
ATOM      2  C   UNL     1       4.450   1.121   1.925  1.00  0.00     0.303 C 
ATOM      3  O   UNL     1       5.146   0.220   2.453  1.00  0.00    -0.252 OA
BRANCH   2   4
ATOM      4  O   UNL     1       3.225   1.437   2.507  1.00  0.00    -0.481 OA
ATOM      5  H   UNL     1       2.475   1.906   1.976  1.00  0.00     0.296 HD
ENDBRANCH   2   4
ENDBRANCH   1   2
BRANCH   1   6
ATOM      6  C   UNL     1       6.458   1.841   0.800  1.00  0.00     0.047 C 
BRANCH   6   7
ATOM      7  C   UNL     1       7.109   1.093  -0.307  1.00  0.00    -0.047 A 
ATOM      8  C   UNL     1       6.389   0.222  -1.102  1.00  0.00     0.004 A 
ATOM      9  C   UNL     1       8.454   1.229  -0.595  1.00  0.00     0.004 A 
ATOM     10  C   UNL     1       7.004  -0.469  -2.128  1.00  0.00     0.000 A 
ATOM     11  C   UNL     1       9.069   0.542  -1.618  1.00  0.00     0.000 A 
ATOM     12  C   UNL     1       8.347  -0.328  -2.410  1.00  0.00     0.000 A 
ENDBRANCH   6   7
ENDBRANCH   1   6
TORSDOF 4
ENDMDL
MODEL 4
REMARK VINA RESULT:      -6.6      1.919      2.595
REMARK SMILES O=C(O)CCc1ccccc1
REMARK SMILES IDX 4 1 2 2 1 3 3 4 5 6 6 7 7 8 11 9 8 10 10 11 9 12
REMARK H PARENT 3 5
REMARK Flexibility Score: inf
ROOT
ATOM      1  C   UNL     1       8.204   0.235  -2.241  1.00  0.00     0.127 C 
ENDROOT
BRANCH   1   2
ATOM      2  C   UNL     1       9.336   0.359  -1.286  1.00  0.00     0.303 C 
ATOM      3  O   UNL     1       9.409  -0.433  -0.316  1.00  0.00    -0.252 OA
BRANCH   2   4
ATOM      4  O   UNL     1      10.328   1.326  -1.425  1.00  0.00    -0.481 OA
ATOM      5  H   UNL     1      10.592   1.952  -0.649  1.00  0.00     0.296 HD
ENDBRANCH   2   4
ENDBRANCH   1   2
BRANCH   1   6
ATOM      6  C   UNL     1       7.116  -0.543  -1.554  1.00  0.00     0.047 C 
BRANCH   6   7
ATOM      7  C   UNL     1       6.329   0.293  -0.611  1.00  0.00    -0.047 A 
ATOM      8  C   UNL     1       6.086  -0.124   0.684  1.00  0.00     0.004 A 
ATOM      9  C   UNL     1       5.805   1.519  -0.976  1.00  0.00     0.004 A 
ATOM     10  C   UNL     1       5.353   0.662   1.553  1.00  0.00     0.000 A 
ATOM     11  C   UNL     1       5.074   2.304  -0.112  1.00  0.00     0.000 A 
ATOM     12  C   UNL     1       4.833   1.884   1.181  1.00  0.00     0.000 A 
ENDBRANCH   6   7
ENDBRANCH   1   6
TORSDOF 4
ENDMDL
MODEL 5
REMARK VINA RESULT:      -6.5      3.665      5.097
REMARK SMILES O=C(O)CCc1ccccc1
REMARK SMILES IDX 4 1 2 2 1 3 3 4 5 6 6 7 7 8 11 9 8 10 10 11 9 12
REMARK H PARENT 3 5
REMARK Flexibility Score: inf
ROOT
ATOM      1  C   UNL     1       5.296   2.829   0.099  1.00  0.00     0.127 C 
ENDROOT
BRANCH   1   2
ATOM      2  C   UNL     1       6.153   3.779   0.853  1.00  0.00     0.303 C 
ATOM      3  O   UNL     1       6.217   3.688   2.103  1.00  0.00    -0.252 OA
BRANCH   2   4
ATOM      4  O   UNL     1       6.897   4.775   0.225  1.00  0.00    -0.481 OA
ATOM      5  H   UNL     1       6.669   5.107  -0.724  1.00  0.00     0.296 HD
ENDBRANCH   2   4
ENDBRANCH   1   2
BRANCH   1   6
ATOM      6  C   UNL     1       5.295   1.526   0.850  1.00  0.00     0.047 C 
BRANCH   6   7
ATOM      7  C   UNL     1       6.076   0.469   0.153  1.00  0.00    -0.047 A 
ATOM      8  C   UNL     1       6.543  -0.640   0.832  1.00  0.00     0.004 A 
ATOM      9  C   UNL     1       6.370   0.541  -1.196  1.00  0.00     0.004 A 
ATOM     10  C   UNL     1       7.267  -1.616   0.175  1.00  0.00     0.000 A 
ATOM     11  C   UNL     1       7.091  -0.431  -1.853  1.00  0.00     0.000 A 
ATOM     12  C   UNL     1       7.557  -1.537  -1.172  1.00  0.00     0.000 A 
ENDBRANCH   6   7
ENDBRANCH   1   6
TORSDOF 4
ENDMDL
