@<TRIPOS>MOLECULE
/home/cewinharhar/GITHUB/reincatalyze/data/processed/docking_pred/2023-Apr-25-2033_maxeplen5_maxtrainstep200_exh16_gamma099_lrac3e-4_lrcr1e-3/0df60b8790b800bbceb9ee276e91b409308b6f54_ligand_2.pdbqt
 12 12 0 0 0
SMALL
GASTEIGER

@<TRIPOS>ATOM
      1  C          8.2040    0.2350   -2.2410 C.3     1  UNL1        0.1270
      2  C          9.3360    0.3590   -1.2860 C.2     1  UNL1        0.3030
      3  O          9.4090   -0.4330   -0.3160 O.2     1  UNL1       -0.2520
      4  O         10.3280    1.3260   -1.4250 O.3     1  UNL1       -0.4810
      5  H         10.5920    1.9520   -0.6490 H       1  UNL1        0.2960
      6  C          7.1160   -0.5430   -1.5540 C.3     1  UNL1        0.0470
      7  C          6.3290    0.2930   -0.6110 C.2     1  UNL1       -0.0470
      8  C          6.0860   -0.1240    0.6840 C.2     1  UNL1        0.0040
      9  C          5.8050    1.5190   -0.9760 C.2     1  UNL1        0.0040
     10  C          5.3530    0.6620    1.5530 C.2     1  UNL1        0.0000
     11  C          5.0740    2.3040   -0.1120 C.2     1  UNL1        0.0000
     12  C          4.8330    1.8840    1.1810 C.2     1  UNL1        0.0000
@<TRIPOS>BOND
     1     1     6    1
     2     1     2    1
     3     6     7    1
     4     4     2    1
     5     4     5    1
     6     2     3    2
     7     9     7    2
     8     9    11    1
     9     7     8    1
    10    11    12    2
    11     8    10    2
    12    12    10    1
