@<TRIPOS>MOLECULE
/home/cewinharhar/GITHUB/reincatalyze/data/processed/docking_pred/2023-Apr-25-2033_maxeplen5_maxtrainstep200_exh16_gamma099_lrac3e-4_lrcr1e-3/0df60b8790b800bbceb9ee276e91b409308b6f54_ligand_2.pdbqt
 12 12 0 0 0
SMALL
GASTEIGER

@<TRIPOS>ATOM
      1  C          4.9570    1.8100    0.7100 C.3     1  UNL1        0.1270
      2  C          4.4500    1.1210    1.9250 C.2     1  UNL1        0.3030
      3  O          5.1460    0.2200    2.4530 O.2     1  UNL1       -0.2520
      4  O          3.2250    1.4370    2.5070 O.3     1  UNL1       -0.4810
      5  H          2.4750    1.9060    1.9760 H       1  UNL1        0.2960
      6  C          6.4580    1.8410    0.8000 C.3     1  UNL1        0.0470
      7  C          7.1090    1.0930   -0.3070 C.2     1  UNL1       -0.0470
      8  C          6.3890    0.2220   -1.1020 C.2     1  UNL1        0.0040
      9  C          8.4540    1.2290   -0.5950 C.2     1  UNL1        0.0040
     10  C          7.0040   -0.4690   -2.1280 C.2     1  UNL1        0.0000
     11  C          9.0690    0.5420   -1.6180 C.2     1  UNL1        0.0000
     12  C          8.3470   -0.3280   -2.4100 C.2     1  UNL1        0.0000
@<TRIPOS>BOND
     1    12    10    2
     2    12    11    1
     3    10     8    1
     4    11     9    2
     5     8     7    2
     6     9     7    1
     7     7     6    1
     8     1     6    1
     9     1     2    1
    10     2     3    2
    11     2     4    1
    12     5     4    1
