@<TRIPOS>MOLECULE
/home/cewinharhar/GITHUB/reincatalyze/data/processed/docking_pred/2023-Apr-25-2033_maxeplen5_maxtrainstep200_exh16_gamma099_lrac3e-4_lrcr1e-3/0df60b8790b800bbceb9ee276e91b409308b6f54_ligand_2.pdbqt
 12 12 0 0 0
SMALL
GASTEIGER

@<TRIPOS>ATOM
      1  C          8.4310   -0.6440   -2.1000 C.3     1  UNL1        0.1270
      2  C          8.4110   -1.9100   -2.8780 C.2     1  UNL1        0.3030
      3  O          7.3080   -2.4090   -3.2070 O.2     1  UNL1       -0.2520
      4  O          9.5760   -2.5710   -3.2610 O.3     1  UNL1       -0.4810
      5  H          9.6130   -3.5970   -3.3560 H       1  UNL1        0.2960
      6  C          7.0360   -0.0830   -2.1130 C.3     1  UNL1        0.0470
      7  C          6.4690    0.0580   -0.7460 C.2     1  UNL1       -0.0470
      8  C          5.8170    1.2130   -0.3580 C.2     1  UNL1        0.0040
      9  C          6.5620   -0.9480    0.1970 C.2     1  UNL1        0.0040
     10  C          5.2930    1.3340    0.9150 C.2     1  UNL1        0.0000
     11  C          6.0410   -0.8300    1.4660 C.2     1  UNL1        0.0000
     12  C          5.3900    0.3250    1.8510 C.2     1  UNL1        0.0000
@<TRIPOS>BOND
     1     5     4    1
     2     4     2    1
     3     3     2    2
     4     2     1    1
     5     6     1    1
     6     6     7    1
     7     7     8    2
     8     7     9    1
     9     8    10    1
    10     9    11    2
    11    10    12    2
    12    11    12    1
