@<TRIPOS>MOLECULE
/home/cewinharhar/GITHUB/reincatalyze/data/processed/docking_pred/2023-Apr-25-2033_maxeplen5_maxtrainstep200_exh16_gamma099_lrac3e-4_lrcr1e-3/0df60b8790b800bbceb9ee276e91b409308b6f54_ligand_2.pdbqt
 12 12 0 0 0
SMALL
GASTEIGER

@<TRIPOS>ATOM
      1  C          5.2960    2.8290    0.0990 C.3     1  UNL1        0.1270
      2  C          6.1530    3.7790    0.8530 C.2     1  UNL1        0.3030
      3  O          6.2170    3.6880    2.1030 O.2     1  UNL1       -0.2520
      4  O          6.8970    4.7750    0.2250 O.3     1  UNL1       -0.4810
      5  H          6.6690    5.1070   -0.7240 H       1  UNL1        0.2960
      6  C          5.2950    1.5260    0.8500 C.3     1  UNL1        0.0470
      7  C          6.0760    0.4690    0.1530 C.2     1  UNL1       -0.0470
      8  C          6.5430   -0.6400    0.8320 C.2     1  UNL1        0.0040
      9  C          6.3700    0.5410   -1.1960 C.2     1  UNL1        0.0040
     10  C          7.2670   -1.6160    0.1750 C.2     1  UNL1        0.0000
     11  C          7.0910   -0.4310   -1.8530 C.2     1  UNL1        0.0000
     12  C          7.5570   -1.5370   -1.1720 C.2     1  UNL1        0.0000
@<TRIPOS>BOND
     1    11     9    1
     2    11    12    2
     3     9     7    2
     4    12    10    1
     5     5     4    1
     6     1     6    1
     7     1     2    1
     8     7     8    1
     9     7     6    1
    10    10     8    2
    11     4     2    1
    12     2     3    2
