@<TRIPOS>MOLECULE
/home/cewinharhar/GITHUB/reincatalyze/data/processed/docking_pred/2023-Apr-25-2033_maxeplen5_maxtrainstep200_exh16_gamma099_lrac3e-4_lrcr1e-3/0df60b8790b800bbceb9ee276e91b409308b6f54_ligand_2.pdbqt
 12 12 0 0 0
SMALL
GASTEIGER

@<TRIPOS>ATOM
      1  C          8.4700   -0.6150   -2.1360 C.3     1  UNL1        0.1270
      2  C          8.4410   -1.9010   -2.8800 C.2     1  UNL1        0.3030
      3  O          7.3340   -2.3980   -3.2000 O.2     1  UNL1       -0.2520
      4  O          9.6000   -2.5830   -3.2390 O.3     1  UNL1       -0.4810
      5  H          9.8010   -3.5340   -2.8950 H       1  UNL1        0.2960
      6  C          7.0780   -0.0460   -2.1620 C.3     1  UNL1        0.0470
      7  C          6.5030    0.1080   -0.8000 C.2     1  UNL1       -0.0470
      8  C          6.6220   -0.8930    0.1440 C.2     1  UNL1        0.0040
      9  C          5.8280    1.2500   -0.4120 C.2     1  UNL1        0.0040
     10  C          6.0830   -0.7390    1.4080 C.2     1  UNL1        0.0000
     11  C          5.2900    1.4060    0.8470 C.2     1  UNL1        0.0000
     12  C          5.4100    0.4030    1.7880 C.2     1  UNL1        0.0000
@<TRIPOS>BOND
     1     4     5    1
     2     4     2    1
     3     3     2    2
     4     2     1    1
     5     6     1    1
     6     6     7    1
     7     7     9    2
     8     7     8    1
     9     9    11    1
    10     8    10    2
    11    11    12    2
    12    10    12    1
