@<TRIPOS>MOLECULE
/home/cewinharhar/GITHUB/reincatalyze/data/processed/docking_pred/2023-Apr-25-2033_maxeplen5_maxtrainstep200_exh16_gamma099_lrac3e-4_lrcr1e-3/10ef791c1764d6d7d99274693c0e95c254b80295_ligand_2.pdbqt
 12 12 0 0 0
SMALL
GASTEIGER

@<TRIPOS>ATOM
      1  C          8.3100   -0.9490   -1.8400 C.3     1  UNL1        0.1270
      2  C          8.4110   -2.0380   -2.8460 C.2     1  UNL1        0.3030
      3  O          9.5380   -2.5190   -3.1170 O.2     1  UNL1       -0.2520
      4  O          7.2970   -2.5520   -3.5050 O.3     1  UNL1       -0.4810
      5  H          6.4650   -2.8810   -2.9920 H       1  UNL1        0.2960
      6  C          7.4270   -1.4420   -0.7270 C.3     1  UNL1        0.0470
      7  C          6.5840   -0.3610   -0.1500 C.2     1  UNL1       -0.0470
      8  C          6.1110   -0.4370    1.1450 C.2     1  UNL1        0.0040
      9  C          6.2350    0.7640   -0.8740 C.2     1  UNL1        0.0040
     10  C          5.3290    0.5730    1.6710 C.2     1  UNL1        0.0000
     11  C          5.4550    1.7720   -0.3520 C.2     1  UNL1        0.0000
     12  C          4.9840    1.6930    0.9430 C.2     1  UNL1        0.0000
@<TRIPOS>BOND
     1     4     5    1
     2     4     2    1
     3     3     2    2
     4     2     1    1
     5     1     6    1
     6     9    11    1
     7     9     7    2
     8     6     7    1
     9    11    12    2
    10     7     8    1
    11    12    10    1
    12     8    10    2
