MODEL 1
REMARK VINA RESULT:      -7.4      0.000      0.000
REMARK SMILES O=C(O)CCc1ccccc1
REMARK SMILES IDX 4 1 2 2 1 3 3 4 5 6 6 7 7 8 11 9 8 10 10 11 9 12
REMARK H PARENT 3 5
REMARK Flexibility Score: inf
ROOT
ATOM      1  C   UNL     1       8.474  -0.613  -2.124  1.00  0.00     0.127 C 
ENDROOT
BRANCH   1   2
ATOM      2  C   UNL     1       8.478  -1.885  -2.893  1.00  0.00     0.303 C 
ATOM      3  O   UNL     1       9.568  -2.469  -3.104  1.00  0.00    -0.252 OA
BRANCH   2   4
ATOM      4  O   UNL     1       7.312  -2.460  -3.392  1.00  0.00    -0.481 OA
ATOM      5  H   UNL     1       7.049  -3.433  -3.173  1.00  0.00     0.296 HD
ENDBRANCH   2   4
ENDBRANCH   1   2
BRANCH   1   6
ATOM      6  C   UNL     1       7.071  -0.072  -2.151  1.00  0.00     0.047 C 
BRANCH   6   7
ATOM      7  C   UNL     1       6.496   0.083  -0.789  1.00  0.00    -0.047 A 
ATOM      8  C   UNL     1       5.815   1.229  -0.426  1.00  0.00     0.004 A 
ATOM      9  C   UNL     1       6.611  -0.902   0.174  1.00  0.00     0.004 A 
ATOM     10  C   UNL     1       5.285   1.362   0.843  1.00  0.00     0.000 A 
ATOM     11  C   UNL     1       6.083  -0.771   1.439  1.00  0.00     0.000 A 
ATOM     12  C   UNL     1       5.404   0.375   1.800  1.00  0.00     0.000 A 
ENDBRANCH   6   7
ENDBRANCH   1   6
TORSDOF 4
ENDMDL
MODEL 2
REMARK VINA RESULT:      -7.3      0.088      1.421
REMARK SMILES O=C(O)CCc1ccccc1
REMARK SMILES IDX 4 1 2 2 1 3 3 4 5 6 6 7 7 8 11 9 8 10 10 11 9 12
REMARK H PARENT 3 5
REMARK Flexibility Score: inf
ROOT
ATOM      1  C   UNL     1       8.444  -0.575  -2.239  1.00  0.00     0.127 C 
ENDROOT
BRANCH   1   2
ATOM      2  C   UNL     1       8.458  -1.888  -2.933  1.00  0.00     0.303 C 
ATOM      3  O   UNL     1       9.548  -2.494  -3.074  1.00  0.00    -0.252 OA
BRANCH   2   4
ATOM      4  O   UNL     1       7.303  -2.480  -3.437  1.00  0.00    -0.481 OA
ATOM      5  H   UNL     1       7.281  -3.469  -3.728  1.00  0.00     0.296 HD
ENDBRANCH   2   4
ENDBRANCH   1   2
BRANCH   1   6
ATOM      6  C   UNL     1       7.020  -0.093  -2.211  1.00  0.00     0.047 C 
BRANCH   6   7
ATOM      7  C   UNL     1       6.494   0.043  -0.827  1.00  0.00    -0.047 A 
ATOM      8  C   UNL     1       6.617  -0.983   0.090  1.00  0.00     0.004 A 
ATOM      9  C   UNL     1       5.862   1.193  -0.391  1.00  0.00     0.004 A 
ATOM     10  C   UNL     1       6.125  -0.845   1.373  1.00  0.00     0.000 A 
ATOM     11  C   UNL     1       5.371   1.333   0.888  1.00  0.00     0.000 A 
ATOM     12  C   UNL     1       5.495   0.305   1.802  1.00  0.00     0.000 A 
ENDBRANCH   6   7
ENDBRANCH   1   6
TORSDOF 4
ENDMDL
MODEL 3
REMARK VINA RESULT:      -7.2      0.641      1.604
REMARK SMILES O=C(O)CCc1ccccc1
REMARK SMILES IDX 4 1 2 2 1 3 3 4 5 6 6 7 7 8 11 9 8 10 10 11 9 12
REMARK H PARENT 3 5
REMARK Flexibility Score: inf
ROOT
ATOM      1  C   UNL     1       8.310  -0.949  -1.840  1.00  0.00     0.127 C 
ENDROOT
BRANCH   1   2
ATOM      2  C   UNL     1       8.411  -2.038  -2.846  1.00  0.00     0.303 C 
ATOM      3  O   UNL     1       9.538  -2.519  -3.117  1.00  0.00    -0.252 OA
BRANCH   2   4
ATOM      4  O   UNL     1       7.297  -2.552  -3.505  1.00  0.00    -0.481 OA
ATOM      5  H   UNL     1       6.465  -2.881  -2.992  1.00  0.00     0.296 HD
ENDBRANCH   2   4
ENDBRANCH   1   2
BRANCH   1   6
ATOM      6  C   UNL     1       7.427  -1.442  -0.727  1.00  0.00     0.047 C 
BRANCH   6   7
ATOM      7  C   UNL     1       6.584  -0.361  -0.150  1.00  0.00    -0.047 A 
ATOM      8  C   UNL     1       6.111  -0.437   1.145  1.00  0.00     0.004 A 
ATOM      9  C   UNL     1       6.235   0.764  -0.874  1.00  0.00     0.004 A 
ATOM     10  C   UNL     1       5.329   0.573   1.671  1.00  0.00     0.000 A 
ATOM     11  C   UNL     1       5.455   1.772  -0.352  1.00  0.00     0.000 A 
ATOM     12  C   UNL     1       4.984   1.693   0.943  1.00  0.00     0.000 A 
ENDBRANCH   6   7
ENDBRANCH   1   6
TORSDOF 4
ENDMDL
MODEL 4
REMARK VINA RESULT:      -6.8      3.364      5.066
REMARK SMILES O=C(O)CCc1ccccc1
REMARK SMILES IDX 4 1 2 2 1 3 3 4 5 6 6 7 7 8 11 9 8 10 10 11 9 12
REMARK H PARENT 3 5
REMARK Flexibility Score: inf
ROOT
ATOM      1  C   UNL     1       5.010   1.751   0.676  1.00  0.00     0.127 C 
ENDROOT
BRANCH   1   2
ATOM      2  C   UNL     1       4.495   1.107   1.912  1.00  0.00     0.303 C 
ATOM      3  O   UNL     1       5.192   0.234   2.484  1.00  0.00    -0.252 OA
BRANCH   2   4
ATOM      4  O   UNL     1       3.261   1.435   2.467  1.00  0.00    -0.481 OA
ATOM      5  H   UNL     1       2.468   0.775   2.461  1.00  0.00     0.296 HD
ENDBRANCH   2   4
ENDBRANCH   1   2
BRANCH   1   6
ATOM      6  C   UNL     1       6.511   1.764   0.764  1.00  0.00     0.047 C 
BRANCH   6   7
ATOM      7  C   UNL     1       7.151   0.999  -0.338  1.00  0.00    -0.047 A 
ATOM      8  C   UNL     1       8.470   1.217  -0.688  1.00  0.00     0.004 A 
ATOM      9  C   UNL     1       6.468   0.039  -1.061  1.00  0.00     0.004 A 
ATOM     10  C   UNL     1       9.055   0.500  -1.715  1.00  0.00     0.000 A 
ATOM     11  C   UNL     1       7.049  -0.676  -2.084  1.00  0.00     0.000 A 
ATOM     12  C   UNL     1       8.366  -0.456  -2.432  1.00  0.00     0.000 A 
ENDBRANCH   6   7
ENDBRANCH   1   6
TORSDOF 4
ENDMDL
MODEL 5
REMARK VINA RESULT:      -6.6      1.961      2.335
REMARK SMILES O=C(O)CCc1ccccc1
REMARK SMILES IDX 4 1 2 2 1 3 3 4 5 6 6 7 7 8 11 9 8 10 10 11 9 12
REMARK H PARENT 3 5
REMARK Flexibility Score: inf
ROOT
ATOM      1  C   UNL     1       8.360   0.263  -2.096  1.00  0.00     0.127 C 
ENDROOT
BRANCH   1   2
ATOM      2  C   UNL     1       9.480   0.381  -1.126  1.00  0.00     0.303 C 
ATOM      3  O   UNL     1       9.512  -0.384  -0.132  1.00  0.00    -0.252 OA
BRANCH   2   4
ATOM      4  O   UNL     1      10.504   1.312  -1.278  1.00  0.00    -0.481 OA
ATOM      5  H   UNL     1      11.350   1.291  -0.688  1.00  0.00     0.296 HD
ENDBRANCH   2   4
ENDBRANCH   1   2
BRANCH   1   6
ATOM      6  C   UNL     1       7.293  -0.581  -1.454  1.00  0.00     0.047 C 
BRANCH   6   7
ATOM      7  C   UNL     1       6.441   0.197  -0.517  1.00  0.00    -0.047 A 
ATOM      8  C   UNL     1       5.872   1.397  -0.896  1.00  0.00     0.004 A 
ATOM      9  C   UNL     1       6.177  -0.236   0.769  1.00  0.00     0.004 A 
ATOM     10  C   UNL     1       5.081   2.112  -0.017  1.00  0.00     0.000 A 
ATOM     11  C   UNL     1       5.389   0.474   1.647  1.00  0.00     0.000 A 
ATOM     12  C   UNL     1       4.822   1.674   1.265  1.00  0.00     0.000 A 
ENDBRANCH   6   7
ENDBRANCH   1   6
TORSDOF 4
ENDMDL
