@<TRIPOS>MOLECULE
/home/cewinharhar/GITHUB/reincatalyze/data/processed/docking_pred/2023-Apr-25-2033_maxeplen5_maxtrainstep200_exh16_gamma099_lrac3e-4_lrcr1e-3/10ef791c1764d6d7d99274693c0e95c254b80295_ligand_2.pdbqt
 12 12 0 0 0
SMALL
GASTEIGER

@<TRIPOS>ATOM
      1  C          8.4440   -0.5750   -2.2390 C.3     1  UNL1        0.1270
      2  C          8.4580   -1.8880   -2.9330 C.2     1  UNL1        0.3030
      3  O          9.5480   -2.4940   -3.0740 O.2     1  UNL1       -0.2520
      4  O          7.3030   -2.4800   -3.4370 O.3     1  UNL1       -0.4810
      5  H          7.2810   -3.4690   -3.7280 H       1  UNL1        0.2960
      6  C          7.0200   -0.0930   -2.2110 C.3     1  UNL1        0.0470
      7  C          6.4940    0.0430   -0.8270 C.2     1  UNL1       -0.0470
      8  C          6.6170   -0.9830    0.0900 C.2     1  UNL1        0.0040
      9  C          5.8620    1.1930   -0.3910 C.2     1  UNL1        0.0040
     10  C          6.1250   -0.8450    1.3730 C.2     1  UNL1        0.0000
     11  C          5.3710    1.3330    0.8880 C.2     1  UNL1        0.0000
     12  C          5.4950    0.3050    1.8020 C.2     1  UNL1        0.0000
@<TRIPOS>BOND
     1     5     4    1
     2     4     2    1
     3     3     2    2
     4     2     1    1
     5     1     6    1
     6     6     7    1
     7     7     9    2
     8     7     8    1
     9     9    11    1
    10     8    10    2
    11    11    12    2
    12    10    12    1
