@<TRIPOS>MOLECULE
/home/cewinharhar/GITHUB/reincatalyze/data/processed/docking_pred/2023-Apr-25-2033_maxeplen5_maxtrainstep200_exh16_gamma099_lrac3e-4_lrcr1e-3/10ef791c1764d6d7d99274693c0e95c254b80295_ligand_2.pdbqt
 12 12 0 0 0
SMALL
GASTEIGER

@<TRIPOS>ATOM
      1  C          8.3600    0.2630   -2.0960 C.3     1  UNL1        0.1270
      2  C          9.4800    0.3810   -1.1260 C.2     1  UNL1        0.3030
      3  O          9.5120   -0.3840   -0.1320 O.2     1  UNL1       -0.2520
      4  O         10.5040    1.3120   -1.2780 O.3     1  UNL1       -0.4810
      5  H         11.3500    1.2910   -0.6880 H       1  UNL1        0.2960
      6  C          7.2930   -0.5810   -1.4540 C.3     1  UNL1        0.0470
      7  C          6.4410    0.1970   -0.5170 C.2     1  UNL1       -0.0470
      8  C          5.8720    1.3970   -0.8960 C.2     1  UNL1        0.0040
      9  C          6.1770   -0.2360    0.7690 C.2     1  UNL1        0.0040
     10  C          5.0810    2.1120   -0.0170 C.2     1  UNL1        0.0000
     11  C          5.3890    0.4740    1.6470 C.2     1  UNL1        0.0000
     12  C          4.8220    1.6740    1.2650 C.2     1  UNL1        0.0000
@<TRIPOS>BOND
     1     1     6    1
     2     1     2    1
     3     6     7    1
     4     4     2    1
     5     4     5    1
     6     2     3    2
     7     8     7    2
     8     8    10    1
     9     7     9    1
    10    10    12    2
    11     9    11    2
    12    12    11    1
