@<TRIPOS>MOLECULE
/home/cewinharhar/GITHUB/reincatalyze/data/processed/docking_pred/2023-Apr-25-2033_maxeplen5_maxtrainstep200_exh16_gamma099_lrac3e-4_lrcr1e-3/10ef791c1764d6d7d99274693c0e95c254b80295_ligand_2.pdbqt
 12 12 0 0 0
SMALL
GASTEIGER

@<TRIPOS>ATOM
      1  C          5.0100    1.7510    0.6760 C.3     1  UNL1        0.1270
      2  C          4.4950    1.1070    1.9120 C.2     1  UNL1        0.3030
      3  O          5.1920    0.2340    2.4840 O.2     1  UNL1       -0.2520
      4  O          3.2610    1.4350    2.4670 O.3     1  UNL1       -0.4810
      5  H          2.4680    0.7750    2.4610 H       1  UNL1        0.2960
      6  C          6.5110    1.7640    0.7640 C.3     1  UNL1        0.0470
      7  C          7.1510    0.9990   -0.3380 C.2     1  UNL1       -0.0470
      8  C          8.4700    1.2170   -0.6880 C.2     1  UNL1        0.0040
      9  C          6.4680    0.0390   -1.0610 C.2     1  UNL1        0.0040
     10  C          9.0550    0.5000   -1.7150 C.2     1  UNL1        0.0000
     11  C          7.0490   -0.6760   -2.0840 C.2     1  UNL1        0.0000
     12  C          8.3660   -0.4560   -2.4320 C.2     1  UNL1        0.0000
@<TRIPOS>BOND
     1    12    11    2
     2    12    10    1
     3    11     9    1
     4    10     8    2
     5     9     7    2
     6     8     7    1
     7     7     6    1
     8     1     6    1
     9     1     2    1
    10     2     4    1
    11     2     3    2
    12     5     4    1
