@<TRIPOS>MOLECULE
/home/cewinharhar/GITHUB/reincatalyze/data/processed/docking_pred/2023-Apr-25-2033_maxeplen5_maxtrainstep200_exh16_gamma099_lrac3e-4_lrcr1e-3/10ef791c1764d6d7d99274693c0e95c254b80295_ligand_2.pdbqt
 12 12 0 0 0
SMALL
GASTEIGER

@<TRIPOS>ATOM
      1  C          8.4740   -0.6130   -2.1240 C.3     1  UNL1        0.1270
      2  C          8.4780   -1.8850   -2.8930 C.2     1  UNL1        0.3030
      3  O          9.5680   -2.4690   -3.1040 O.2     1  UNL1       -0.2520
      4  O          7.3120   -2.4600   -3.3920 O.3     1  UNL1       -0.4810
      5  H          7.0490   -3.4330   -3.1730 H       1  UNL1        0.2960
      6  C          7.0710   -0.0720   -2.1510 C.3     1  UNL1        0.0470
      7  C          6.4960    0.0830   -0.7890 C.2     1  UNL1       -0.0470
      8  C          5.8150    1.2290   -0.4260 C.2     1  UNL1        0.0040
      9  C          6.6110   -0.9020    0.1740 C.2     1  UNL1        0.0040
     10  C          5.2850    1.3620    0.8430 C.2     1  UNL1        0.0000
     11  C          6.0830   -0.7710    1.4390 C.2     1  UNL1        0.0000
     12  C          5.4040    0.3750    1.8000 C.2     1  UNL1        0.0000
@<TRIPOS>BOND
     1     4     5    1
     2     4     2    1
     3     3     2    2
     4     2     1    1
     5     6     1    1
     6     6     7    1
     7     7     8    2
     8     7     9    1
     9     8    10    1
    10     9    11    2
    11    10    12    2
    12    11    12    1
