MODEL 1
REMARK VINA RESULT:      -7.3      0.000      0.000
REMARK SMILES O=C(O)CCc1ccccc1
REMARK SMILES IDX 4 1 2 2 1 3 3 4 5 6 6 7 7 8 11 9 8 10 10 11 9 12
REMARK H PARENT 3 5
REMARK Flexibility Score: inf
ROOT
ATOM      1  C   UNL     1       8.449  -0.702  -2.026  1.00  0.00     0.127 C 
ENDROOT
BRANCH   1   2
ATOM      2  C   UNL     1       8.422  -1.929  -2.863  1.00  0.00     0.303 C 
ATOM      3  O   UNL     1       7.316  -2.408  -3.212  1.00  0.00    -0.252 OA
BRANCH   2   4
ATOM      4  O   UNL     1       9.583  -2.574  -3.282  1.00  0.00    -0.481 OA
ATOM      5  H   UNL     1      10.124  -3.183  -2.649  1.00  0.00     0.296 HD
ENDBRANCH   2   4
ENDBRANCH   1   2
BRANCH   1   6
ATOM      6  C   UNL     1       7.081  -0.080  -2.089  1.00  0.00     0.047 C 
BRANCH   6   7
ATOM      7  C   UNL     1       6.476   0.098  -0.743  1.00  0.00    -0.047 A 
ATOM      8  C   UNL     1       5.810   1.260  -0.406  1.00  0.00     0.004 A 
ATOM      9  C   UNL     1       6.548  -0.881   0.231  1.00  0.00     0.004 A 
ATOM     10  C   UNL     1       5.251   1.415   0.848  1.00  0.00     0.000 A 
ATOM     11  C   UNL     1       5.992  -0.729   1.481  1.00  0.00     0.000 A 
ATOM     12  C   UNL     1       5.327   0.434   1.816  1.00  0.00     0.000 A 
ENDBRANCH   6   7
ENDBRANCH   1   6
TORSDOF 4
ENDMDL
MODEL 2
REMARK VINA RESULT:      -7.2      0.104      1.422
REMARK SMILES O=C(O)CCc1ccccc1
REMARK SMILES IDX 4 1 2 2 1 3 3 4 5 6 6 7 7 8 11 9 8 10 10 11 9 12
REMARK H PARENT 3 5
REMARK Flexibility Score: inf
ROOT
ATOM      1  C   UNL     1       8.433  -0.606  -2.152  1.00  0.00     0.127 C 
ENDROOT
BRANCH   1   2
ATOM      2  C   UNL     1       8.423  -1.897  -2.888  1.00  0.00     0.303 C 
ATOM      3  O   UNL     1       7.324  -2.413  -3.205  1.00  0.00    -0.252 OA
BRANCH   2   4
ATOM      4  O   UNL     1       9.593  -2.564  -3.244  1.00  0.00    -0.481 OA
ATOM      5  H   UNL     1       9.848  -3.474  -2.830  1.00  0.00     0.296 HD
ENDBRANCH   2   4
ENDBRANCH   1   2
BRANCH   1   6
ATOM      6  C   UNL     1       7.025  -0.079  -2.145  1.00  0.00     0.047 C 
BRANCH   6   7
ATOM      7  C   UNL     1       6.478   0.059  -0.769  1.00  0.00    -0.047 A 
ATOM      8  C   UNL     1       6.612  -0.955   0.159  1.00  0.00     0.004 A 
ATOM      9  C   UNL     1       5.816   1.199  -0.353  1.00  0.00     0.004 A 
ATOM     10  C   UNL     1       6.100  -0.815   1.435  1.00  0.00     0.000 A 
ATOM     11  C   UNL     1       5.305   1.340   0.918  1.00  0.00     0.000 A 
ATOM     12  C   UNL     1       5.439   0.325   1.844  1.00  0.00     0.000 A 
ENDBRANCH   6   7
ENDBRANCH   1   6
TORSDOF 4
ENDMDL
MODEL 3
REMARK VINA RESULT:      -7.1      0.616      1.590
REMARK SMILES O=C(O)CCc1ccccc1
REMARK SMILES IDX 4 1 2 2 1 3 3 4 5 6 6 7 7 8 11 9 8 10 10 11 9 12
REMARK H PARENT 3 5
REMARK Flexibility Score: inf
ROOT
ATOM      1  C   UNL     1       8.237  -0.891  -1.881  1.00  0.00     0.127 C 
ENDROOT
BRANCH   1   2
ATOM      2  C   UNL     1       8.339  -1.998  -2.866  1.00  0.00     0.303 C 
ATOM      3  O   UNL     1       7.290  -2.477  -3.360  1.00  0.00    -0.252 OA
BRANCH   2   4
ATOM      4  O   UNL     1       9.562  -2.530  -3.269  1.00  0.00    -0.481 OA
ATOM      5  H   UNL     1       9.625  -3.261  -3.994  1.00  0.00     0.296 HD
ENDBRANCH   2   4
ENDBRANCH   1   2
BRANCH   1   6
ATOM      6  C   UNL     1       7.390  -1.379  -0.738  1.00  0.00     0.047 C 
BRANCH   6   7
ATOM      7  C   UNL     1       6.552  -0.300  -0.152  1.00  0.00    -0.047 A 
ATOM      8  C   UNL     1       6.087  -0.381   1.147  1.00  0.00     0.004 A 
ATOM      9  C   UNL     1       6.199   0.829  -0.868  1.00  0.00     0.004 A 
ATOM     10  C   UNL     1       5.309   0.628   1.682  1.00  0.00     0.000 A 
ATOM     11  C   UNL     1       5.424   1.836  -0.337  1.00  0.00     0.000 A 
ATOM     12  C   UNL     1       4.961   1.752   0.961  1.00  0.00     0.000 A 
ENDBRANCH   6   7
ENDBRANCH   1   6
TORSDOF 4
ENDMDL
MODEL 4
REMARK VINA RESULT:      -6.8      3.306      5.156
REMARK SMILES O=C(O)CCc1ccccc1
REMARK SMILES IDX 4 1 2 2 1 3 3 4 5 6 6 7 7 8 11 9 8 10 10 11 9 12
REMARK H PARENT 3 5
REMARK Flexibility Score: inf
ROOT
ATOM      1  C   UNL     1       5.020   1.776   0.733  1.00  0.00     0.127 C 
ENDROOT
BRANCH   1   2
ATOM      2  C   UNL     1       4.459   1.105   1.935  1.00  0.00     0.303 C 
ATOM      3  O   UNL     1       5.114   0.188   2.486  1.00  0.00    -0.252 OA
BRANCH   2   4
ATOM      4  O   UNL     1       3.228   1.457   2.481  1.00  0.00    -0.481 OA
ATOM      5  H   UNL     1       3.141   2.189   3.203  1.00  0.00     0.296 HD
ENDBRANCH   2   4
ENDBRANCH   1   2
BRANCH   1   6
ATOM      6  C   UNL     1       6.519   1.709   0.836  1.00  0.00     0.047 C 
BRANCH   6   7
ATOM      7  C   UNL     1       7.132   0.957  -0.290  1.00  0.00    -0.047 A 
ATOM      8  C   UNL     1       8.428   1.211  -0.698  1.00  0.00     0.004 A 
ATOM      9  C   UNL     1       6.446  -0.025  -0.979  1.00  0.00     0.004 A 
ATOM     10  C   UNL     1       8.988   0.506  -1.746  1.00  0.00     0.000 A 
ATOM     11  C   UNL     1       7.002  -0.729  -2.023  1.00  0.00     0.000 A 
ATOM     12  C   UNL     1       8.297  -0.473  -2.430  1.00  0.00     0.000 A 
ENDBRANCH   6   7
ENDBRANCH   1   6
TORSDOF 4
ENDMDL
MODEL 5
REMARK VINA RESULT:      -6.6      3.810      5.033
REMARK SMILES O=C(O)CCc1ccccc1
REMARK SMILES IDX 4 1 2 2 1 3 3 4 5 6 6 7 7 8 11 9 8 10 10 11 9 12
REMARK H PARENT 3 5
REMARK Flexibility Score: inf
ROOT
ATOM      1  C   UNL     1       5.427   2.899  -0.001  1.00  0.00     0.127 C 
ENDROOT
BRANCH   1   2
ATOM      2  C   UNL     1       6.217   3.865   0.806  1.00  0.00     0.303 C 
ATOM      3  O   UNL     1       6.865   4.766   0.220  1.00  0.00    -0.252 OA
BRANCH   2   4
ATOM      4  O   UNL     1       6.269   3.812   2.196  1.00  0.00    -0.481 OA
ATOM      5  H   UNL     1       7.051   4.223   2.728  1.00  0.00     0.296 HD
ENDBRANCH   2   4
ENDBRANCH   1   2
BRANCH   1   6
ATOM      6  C   UNL     1       4.899   1.851   0.939  1.00  0.00     0.047 C 
BRANCH   6   7
ATOM      7  C   UNL     1       5.722   0.613   0.928  1.00  0.00    -0.047 A 
ATOM      8  C   UNL     1       5.794  -0.207   2.037  1.00  0.00     0.004 A 
ATOM      9  C   UNL     1       6.448   0.222  -0.181  1.00  0.00     0.004 A 
ATOM     10  C   UNL     1       6.562  -1.356   2.017  1.00  0.00     0.000 A 
ATOM     11  C   UNL     1       7.215  -0.922  -0.204  1.00  0.00     0.000 A 
ATOM     12  C   UNL     1       7.286  -1.739   0.906  1.00  0.00     0.000 A 
ENDBRANCH   6   7
ENDBRANCH   1   6
TORSDOF 4
ENDMDL
