@<TRIPOS>MOLECULE
/home/cewinharhar/GITHUB/reincatalyze/data/processed/docking_pred/2023-Apr-25-2033_maxeplen5_maxtrainstep200_exh16_gamma099_lrac3e-4_lrcr1e-3/13c3a96d7f073914410e4f6d6c0e2190084e407e_ligand_2.pdbqt
 12 12 0 0 0
SMALL
GASTEIGER

@<TRIPOS>ATOM
      1  C          5.4270    2.8990   -0.0010 C.3     1  UNL1        0.1270
      2  C          6.2170    3.8650    0.8060 C.2     1  UNL1        0.3030
      3  O          6.8650    4.7660    0.2200 O.2     1  UNL1       -0.2520
      4  O          6.2690    3.8120    2.1960 O.3     1  UNL1       -0.4810
      5  H          7.0510    4.2230    2.7280 H       1  UNL1        0.2960
      6  C          4.8990    1.8510    0.9390 C.3     1  UNL1        0.0470
      7  C          5.7220    0.6130    0.9280 C.2     1  UNL1       -0.0470
      8  C          5.7940   -0.2070    2.0370 C.2     1  UNL1        0.0040
      9  C          6.4480    0.2220   -0.1810 C.2     1  UNL1        0.0040
     10  C          6.5620   -1.3560    2.0170 C.2     1  UNL1        0.0000
     11  C          7.2150   -0.9220   -0.2040 C.2     1  UNL1        0.0000
     12  C          7.2860   -1.7390    0.9060 C.2     1  UNL1        0.0000
@<TRIPOS>BOND
     1    11     9    1
     2    11    12    2
     3     9     7    2
     4     1     2    1
     5     1     6    1
     6     3     2    2
     7     2     4    1
     8    12    10    1
     9     7     6    1
    10     7     8    1
    11    10     8    2
    12     4     5    1
