@<TRIPOS>MOLECULE
/home/cewinharhar/GITHUB/reincatalyze/data/processed/docking_pred/2023-Apr-25-2033_maxeplen5_maxtrainstep200_exh16_gamma099_lrac3e-4_lrcr1e-3/13c3a96d7f073914410e4f6d6c0e2190084e407e_ligand_2.pdbqt
 12 12 0 0 0
SMALL
GASTEIGER

@<TRIPOS>ATOM
      1  C          8.4490   -0.7020   -2.0260 C.3     1  UNL1        0.1270
      2  C          8.4220   -1.9290   -2.8630 C.2     1  UNL1        0.3030
      3  O          7.3160   -2.4080   -3.2120 O.2     1  UNL1       -0.2520
      4  O          9.5830   -2.5740   -3.2820 O.3     1  UNL1       -0.4810
      5  H         10.1240   -3.1830   -2.6490 H       1  UNL1        0.2960
      6  C          7.0810   -0.0800   -2.0890 C.3     1  UNL1        0.0470
      7  C          6.4760    0.0980   -0.7430 C.2     1  UNL1       -0.0470
      8  C          5.8100    1.2600   -0.4060 C.2     1  UNL1        0.0040
      9  C          6.5480   -0.8810    0.2310 C.2     1  UNL1        0.0040
     10  C          5.2510    1.4150    0.8480 C.2     1  UNL1        0.0000
     11  C          5.9920   -0.7290    1.4810 C.2     1  UNL1        0.0000
     12  C          5.3270    0.4340    1.8160 C.2     1  UNL1        0.0000
@<TRIPOS>BOND
     1     4     2    1
     2     4     5    1
     3     3     2    2
     4     2     1    1
     5     6     1    1
     6     6     7    1
     7     7     8    2
     8     7     9    1
     9     8    10    1
    10     9    11    2
    11    10    12    2
    12    11    12    1
