@<TRIPOS>MOLECULE
/home/cewinharhar/GITHUB/reincatalyze/data/processed/docking_pred/2023-Apr-25-2033_maxeplen5_maxtrainstep200_exh16_gamma099_lrac3e-4_lrcr1e-3/13c3a96d7f073914410e4f6d6c0e2190084e407e_ligand_2.pdbqt
 12 12 0 0 0
SMALL
GASTEIGER

@<TRIPOS>ATOM
      1  C          5.0200    1.7760    0.7330 C.3     1  UNL1        0.1270
      2  C          4.4590    1.1050    1.9350 C.2     1  UNL1        0.3030
      3  O          5.1140    0.1880    2.4860 O.2     1  UNL1       -0.2520
      4  O          3.2280    1.4570    2.4810 O.3     1  UNL1       -0.4810
      5  H          3.1410    2.1890    3.2030 H       1  UNL1        0.2960
      6  C          6.5190    1.7090    0.8360 C.3     1  UNL1        0.0470
      7  C          7.1320    0.9570   -0.2900 C.2     1  UNL1       -0.0470
      8  C          8.4280    1.2110   -0.6980 C.2     1  UNL1        0.0040
      9  C          6.4460   -0.0250   -0.9790 C.2     1  UNL1        0.0040
     10  C          8.9880    0.5060   -1.7460 C.2     1  UNL1        0.0000
     11  C          7.0020   -0.7290   -2.0230 C.2     1  UNL1        0.0000
     12  C          8.2970   -0.4730   -2.4300 C.2     1  UNL1        0.0000
@<TRIPOS>BOND
     1    12    11    2
     2    12    10    1
     3    11     9    1
     4    10     8    2
     5     9     7    2
     6     8     7    1
     7     7     6    1
     8     1     6    1
     9     1     2    1
    10     2     4    1
    11     2     3    2
    12     4     5    1
