@<TRIPOS>MOLECULE
/home/cewinharhar/GITHUB/reincatalyze/data/processed/docking_pred/2023-Apr-25-2033_maxeplen5_maxtrainstep200_exh16_gamma099_lrac3e-4_lrcr1e-3/13c3a96d7f073914410e4f6d6c0e2190084e407e_ligand_2.pdbqt
 12 12 0 0 0
SMALL
GASTEIGER

@<TRIPOS>ATOM
      1  C          8.2370   -0.8910   -1.8810 C.3     1  UNL1        0.1270
      2  C          8.3390   -1.9980   -2.8660 C.2     1  UNL1        0.3030
      3  O          7.2900   -2.4770   -3.3600 O.2     1  UNL1       -0.2520
      4  O          9.5620   -2.5300   -3.2690 O.3     1  UNL1       -0.4810
      5  H          9.6250   -3.2610   -3.9940 H       1  UNL1        0.2960
      6  C          7.3900   -1.3790   -0.7380 C.3     1  UNL1        0.0470
      7  C          6.5520   -0.3000   -0.1520 C.2     1  UNL1       -0.0470
      8  C          6.0870   -0.3810    1.1470 C.2     1  UNL1        0.0040
      9  C          6.1990    0.8290   -0.8680 C.2     1  UNL1        0.0040
     10  C          5.3090    0.6280    1.6820 C.2     1  UNL1        0.0000
     11  C          5.4240    1.8360   -0.3370 C.2     1  UNL1        0.0000
     12  C          4.9610    1.7520    0.9610 C.2     1  UNL1        0.0000
@<TRIPOS>BOND
     1     5     4    1
     2     3     2    2
     3     4     2    1
     4     2     1    1
     5     1     6    1
     6     9    11    1
     7     9     7    2
     8     6     7    1
     9    11    12    2
    10     7     8    1
    11    12    10    1
    12     8    10    2
