@<TRIPOS>MOLECULE
/home/cewinharhar/GITHUB/reincatalyze/data/processed/docking_pred/2023-Apr-25-2033_maxeplen5_maxtrainstep200_exh16_gamma099_lrac3e-4_lrcr1e-3/13c3a96d7f073914410e4f6d6c0e2190084e407e_ligand_2.pdbqt
 12 12 0 0 0
SMALL
GASTEIGER

@<TRIPOS>ATOM
      1  C          8.4330   -0.6060   -2.1520 C.3     1  UNL1        0.1270
      2  C          8.4230   -1.8970   -2.8880 C.2     1  UNL1        0.3030
      3  O          7.3240   -2.4130   -3.2050 O.2     1  UNL1       -0.2520
      4  O          9.5930   -2.5640   -3.2440 O.3     1  UNL1       -0.4810
      5  H          9.8480   -3.4740   -2.8300 H       1  UNL1        0.2960
      6  C          7.0250   -0.0790   -2.1450 C.3     1  UNL1        0.0470
      7  C          6.4780    0.0590   -0.7690 C.2     1  UNL1       -0.0470
      8  C          6.6120   -0.9550    0.1590 C.2     1  UNL1        0.0040
      9  C          5.8160    1.1990   -0.3530 C.2     1  UNL1        0.0040
     10  C          6.1000   -0.8150    1.4350 C.2     1  UNL1        0.0000
     11  C          5.3050    1.3400    0.9180 C.2     1  UNL1        0.0000
     12  C          5.4390    0.3250    1.8440 C.2     1  UNL1        0.0000
@<TRIPOS>BOND
     1     4     2    1
     2     4     5    1
     3     3     2    2
     4     2     1    1
     5     1     6    1
     6     6     7    1
     7     7     9    2
     8     7     8    1
     9     9    11    1
    10     8    10    2
    11    11    12    2
    12    10    12    1
