@<TRIPOS>MOLECULE
/home/cewinharhar/GITHUB/reincatalyze/data/processed/docking_pred/2023-Apr-25-2033_maxeplen5_maxtrainstep200_exh16_gamma099_lrac3e-4_lrcr1e-3/141be626e2cd6ba8f6b8a46d6dbef4dd02701a2b_ligand_2.pdbqt
 12 12 0 0 0
SMALL
GASTEIGER

@<TRIPOS>ATOM
      1  C          5.0150    1.7570    0.7360 C.3     1  UNL1        0.1270
      2  C          4.4570    1.0920    1.9420 C.2     1  UNL1        0.3030
      3  O          5.1150    0.1790    2.4970 O.2     1  UNL1       -0.2520
      4  O          3.2260    1.4450    2.4880 O.3     1  UNL1       -0.4810
      5  H          2.9300    2.4290    2.5720 H       1  UNL1        0.2960
      6  C          6.5140    1.7040    0.8420 C.3     1  UNL1        0.0470
      7  C          7.1360    0.9580   -0.2830 C.2     1  UNL1       -0.0470
      8  C          6.4350   -0.0130   -0.9730 C.2     1  UNL1        0.0040
      9  C          8.4350    1.1940   -0.6930 C.2     1  UNL1        0.0040
     10  C          7.0240   -0.7010   -2.0170 C.2     1  UNL1        0.0000
     11  C          9.0230    0.5100   -1.7340 C.2     1  UNL1        0.0000
     12  C          8.3210   -0.4590   -2.4210 C.2     1  UNL1        0.0000
@<TRIPOS>BOND
     1    12    10    2
     2    12    11    1
     3    10     8    1
     4    11     9    2
     5     8     7    2
     6     9     7    1
     7     7     6    1
     8     1     6    1
     9     1     2    1
    10     2     4    1
    11     2     3    2
    12     4     5    1
