MODEL 1
REMARK VINA RESULT:      -7.3      0.000      0.000
REMARK SMILES O=C(O)CCc1ccccc1
REMARK SMILES IDX 4 1 2 2 1 3 3 4 5 6 6 7 7 8 11 9 8 10 10 11 9 12
REMARK H PARENT 3 5
REMARK Flexibility Score: inf
ROOT
ATOM      1  C   UNL     1       8.452  -0.591  -2.182  1.00  0.00     0.127 C 
ENDROOT
BRANCH   1   2
ATOM      2  C   UNL     1       8.457  -1.883  -2.915  1.00  0.00     0.303 C 
ATOM      3  O   UNL     1       9.545  -2.483  -3.091  1.00  0.00    -0.252 OA
BRANCH   2   4
ATOM      4  O   UNL     1       7.295  -2.461  -3.419  1.00  0.00    -0.481 OA
ATOM      5  H   UNL     1       6.445  -2.565  -2.843  1.00  0.00     0.296 HD
ENDBRANCH   2   4
ENDBRANCH   1   2
BRANCH   1   6
ATOM      6  C   UNL     1       7.036  -0.085  -2.166  1.00  0.00     0.047 C 
BRANCH   6   7
ATOM      7  C   UNL     1       6.496   0.048  -0.788  1.00  0.00    -0.047 A 
ATOM      8  C   UNL     1       5.870   1.208  -0.373  1.00  0.00     0.004 A 
ATOM      9  C   UNL     1       6.590  -0.972   0.140  1.00  0.00     0.004 A 
ATOM     10  C   UNL     1       5.372   1.321   0.911  1.00  0.00     0.000 A 
ATOM     11  C   UNL     1       6.093  -0.862   1.420  1.00  0.00     0.000 A 
ATOM     12  C   UNL     1       5.469   0.298   1.832  1.00  0.00     0.000 A 
ENDBRANCH   6   7
ENDBRANCH   1   6
TORSDOF 4
ENDMDL
MODEL 2
REMARK VINA RESULT:      -7.3      0.024      1.419
REMARK SMILES O=C(O)CCc1ccccc1
REMARK SMILES IDX 4 1 2 2 1 3 3 4 5 6 6 7 7 8 11 9 8 10 10 11 9 12
REMARK H PARENT 3 5
REMARK Flexibility Score: inf
ROOT
ATOM      1  C   UNL     1       8.439  -0.609  -2.166  1.00  0.00     0.127 C 
ENDROOT
BRANCH   1   2
ATOM      2  C   UNL     1       8.450  -1.893  -2.914  1.00  0.00     0.303 C 
ATOM      3  O   UNL     1       9.540  -2.488  -3.094  1.00  0.00    -0.252 OA
BRANCH   2   4
ATOM      4  O   UNL     1       7.291  -2.469  -3.428  1.00  0.00    -0.481 OA
ATOM      5  H   UNL     1       7.061  -2.427  -4.432  1.00  0.00     0.296 HD
ENDBRANCH   2   4
ENDBRANCH   1   2
BRANCH   1   6
ATOM      6  C   UNL     1       7.023  -0.104  -2.154  1.00  0.00     0.047 C 
BRANCH   6   7
ATOM      7  C   UNL     1       6.481   0.034  -0.777  1.00  0.00    -0.047 A 
ATOM      8  C   UNL     1       6.595  -0.991   0.142  1.00  0.00     0.004 A 
ATOM      9  C   UNL     1       5.843   1.183  -0.350  1.00  0.00     0.004 A 
ATOM     10  C   UNL     1       6.087  -0.852   1.420  1.00  0.00     0.000 A 
ATOM     11  C   UNL     1       5.337   1.324   0.923  1.00  0.00     0.000 A 
ATOM     12  C   UNL     1       5.451   0.298   1.840  1.00  0.00     0.000 A 
ENDBRANCH   6   7
ENDBRANCH   1   6
TORSDOF 4
ENDMDL
MODEL 3
REMARK VINA RESULT:      -7.1      0.817      1.032
REMARK SMILES O=C(O)CCc1ccccc1
REMARK SMILES IDX 4 1 2 2 1 3 3 4 5 6 6 7 7 8 11 9 8 10 10 11 9 12
REMARK H PARENT 3 5
REMARK Flexibility Score: inf
ROOT
ATOM      1  C   UNL     1       7.277  -1.315  -2.377  1.00  0.00     0.127 C 
ENDROOT
BRANCH   1   2
ATOM      2  C   UNL     1       8.745  -1.427  -2.577  1.00  0.00     0.303 C 
ATOM      3  O   UNL     1       9.498  -0.550  -2.089  1.00  0.00    -0.252 OA
BRANCH   2   4
ATOM      4  O   UNL     1       9.324  -2.475  -3.288  1.00  0.00    -0.481 OA
ATOM      5  H   UNL     1       9.487  -2.418  -4.305  1.00  0.00     0.296 HD
ENDBRANCH   2   4
ENDBRANCH   1   2
BRANCH   1   6
ATOM      6  C   UNL     1       6.979   0.111  -2.003  1.00  0.00     0.047 C 
BRANCH   6   7
ATOM      7  C   UNL     1       6.386   0.229  -0.645  1.00  0.00    -0.047 A 
ATOM      8  C   UNL     1       5.706   1.368  -0.259  1.00  0.00     0.004 A 
ATOM      9  C   UNL     1       6.482  -0.784   0.290  1.00  0.00     0.004 A 
ATOM     10  C   UNL     1       5.158   1.468   1.006  1.00  0.00     0.000 A 
ATOM     11  C   UNL     1       5.936  -0.687   1.551  1.00  0.00     0.000 A 
ATOM     12  C   UNL     1       5.258   0.453   1.935  1.00  0.00     0.000 A 
ENDBRANCH   6   7
ENDBRANCH   1   6
TORSDOF 4
ENDMDL
MODEL 4
REMARK VINA RESULT:      -6.8      3.381      5.103
REMARK SMILES O=C(O)CCc1ccccc1
REMARK SMILES IDX 4 1 2 2 1 3 3 4 5 6 6 7 7 8 11 9 8 10 10 11 9 12
REMARK H PARENT 3 5
REMARK Flexibility Score: inf
ROOT
ATOM      1  C   UNL     1       5.015   1.757   0.736  1.00  0.00     0.127 C 
ENDROOT
BRANCH   1   2
ATOM      2  C   UNL     1       4.457   1.092   1.942  1.00  0.00     0.303 C 
ATOM      3  O   UNL     1       5.115   0.179   2.497  1.00  0.00    -0.252 OA
BRANCH   2   4
ATOM      4  O   UNL     1       3.226   1.445   2.488  1.00  0.00    -0.481 OA
ATOM      5  H   UNL     1       2.930   2.429   2.572  1.00  0.00     0.296 HD
ENDBRANCH   2   4
ENDBRANCH   1   2
BRANCH   1   6
ATOM      6  C   UNL     1       6.514   1.704   0.842  1.00  0.00     0.047 C 
BRANCH   6   7
ATOM      7  C   UNL     1       7.136   0.958  -0.283  1.00  0.00    -0.047 A 
ATOM      8  C   UNL     1       6.435  -0.013  -0.973  1.00  0.00     0.004 A 
ATOM      9  C   UNL     1       8.435   1.194  -0.693  1.00  0.00     0.004 A 
ATOM     10  C   UNL     1       7.024  -0.701  -2.017  1.00  0.00     0.000 A 
ATOM     11  C   UNL     1       9.023   0.510  -1.734  1.00  0.00     0.000 A 
ATOM     12  C   UNL     1       8.321  -0.459  -2.421  1.00  0.00     0.000 A 
ENDBRANCH   6   7
ENDBRANCH   1   6
TORSDOF 4
ENDMDL
MODEL 5
REMARK VINA RESULT:      -6.7      1.048      2.006
REMARK SMILES O=C(O)CCc1ccccc1
REMARK SMILES IDX 4 1 2 2 1 3 3 4 5 6 6 7 7 8 11 9 8 10 10 11 9 12
REMARK H PARENT 3 5
REMARK Flexibility Score: inf
ROOT
ATOM      1  C   UNL     1       7.396  -1.594  -1.965  1.00  0.00     0.127 C 
ENDROOT
BRANCH   1   2
ATOM      2  C   UNL     1       8.796  -1.439  -2.440  1.00  0.00     0.303 C 
ATOM      3  O   UNL     1       9.283  -2.308  -3.203  1.00  0.00    -0.252 OA
BRANCH   2   4
ATOM      4  O   UNL     1       9.595  -0.360  -2.072  1.00  0.00    -0.481 OA
ATOM      5  H   UNL     1       9.273   0.614  -2.172  1.00  0.00     0.296 HD
ENDBRANCH   2   4
ENDBRANCH   1   2
BRANCH   1   6
ATOM      6  C   UNL     1       7.408  -1.449  -0.468  1.00  0.00     0.047 C 
BRANCH   6   7
ATOM      7  C   UNL     1       6.554  -0.326   0.000  1.00  0.00    -0.047 A 
ATOM      8  C   UNL     1       6.007  -0.324   1.269  1.00  0.00     0.004 A 
ATOM      9  C   UNL     1       6.268   0.763  -0.801  1.00  0.00     0.004 A 
ATOM     10  C   UNL     1       5.215   0.725   1.694  1.00  0.00     0.000 A 
ATOM     11  C   UNL     1       5.479   1.810  -0.379  1.00  0.00     0.000 A 
ATOM     12  C   UNL     1       4.933   1.809   0.889  1.00  0.00     0.000 A 
ENDBRANCH   6   7
ENDBRANCH   1   6
TORSDOF 4
ENDMDL
