@<TRIPOS>MOLECULE
/home/cewinharhar/GITHUB/reincatalyze/data/processed/docking_pred/2023-Apr-25-2033_maxeplen5_maxtrainstep200_exh16_gamma099_lrac3e-4_lrcr1e-3/141be626e2cd6ba8f6b8a46d6dbef4dd02701a2b_ligand_2.pdbqt
 12 12 0 0 0
SMALL
GASTEIGER

@<TRIPOS>ATOM
      1  C          8.4520   -0.5910   -2.1820 C.3     1  UNL1        0.1270
      2  C          8.4570   -1.8830   -2.9150 C.2     1  UNL1        0.3030
      3  O          9.5450   -2.4830   -3.0910 O.2     1  UNL1       -0.2520
      4  O          7.2950   -2.4610   -3.4190 O.3     1  UNL1       -0.4810
      5  H          6.4450   -2.5650   -2.8430 H       1  UNL1        0.2960
      6  C          7.0360   -0.0850   -2.1660 C.3     1  UNL1        0.0470
      7  C          6.4960    0.0480   -0.7880 C.2     1  UNL1       -0.0470
      8  C          5.8700    1.2080   -0.3730 C.2     1  UNL1        0.0040
      9  C          6.5900   -0.9720    0.1400 C.2     1  UNL1        0.0040
     10  C          5.3720    1.3210    0.9110 C.2     1  UNL1        0.0000
     11  C          6.0930   -0.8620    1.4200 C.2     1  UNL1        0.0000
     12  C          5.4690    0.2980    1.8320 C.2     1  UNL1        0.0000
@<TRIPOS>BOND
     1     4     2    1
     2     4     5    1
     3     3     2    2
     4     2     1    1
     5     1     6    1
     6     6     7    1
     7     7     8    2
     8     7     9    1
     9     8    10    1
    10     9    11    2
    11    10    12    2
    12    11    12    1
