@<TRIPOS>MOLECULE
/home/cewinharhar/GITHUB/reincatalyze/data/processed/docking_pred/2023-Apr-25-2033_maxeplen5_maxtrainstep200_exh16_gamma099_lrac3e-4_lrcr1e-3/141be626e2cd6ba8f6b8a46d6dbef4dd02701a2b_ligand_2.pdbqt
 12 12 0 0 0
SMALL
GASTEIGER

@<TRIPOS>ATOM
      1  C          7.3960   -1.5940   -1.9650 C.3     1  UNL1        0.1270
      2  C          8.7960   -1.4390   -2.4400 C.2     1  UNL1        0.3030
      3  O          9.2830   -2.3080   -3.2030 O.2     1  UNL1       -0.2520
      4  O          9.5950   -0.3600   -2.0720 O.3     1  UNL1       -0.4810
      5  H          9.2730    0.6140   -2.1720 H       1  UNL1        0.2960
      6  C          7.4080   -1.4490   -0.4680 C.3     1  UNL1        0.0470
      7  C          6.5540   -0.3260    0.0000 C.2     1  UNL1       -0.0470
      8  C          6.0070   -0.3240    1.2690 C.2     1  UNL1        0.0040
      9  C          6.2680    0.7630   -0.8010 C.2     1  UNL1        0.0040
     10  C          5.2150    0.7250    1.6940 C.2     1  UNL1        0.0000
     11  C          5.4790    1.8100   -0.3790 C.2     1  UNL1        0.0000
     12  C          4.9330    1.8090    0.8890 C.2     1  UNL1        0.0000
@<TRIPOS>BOND
     1     3     2    2
     2     2     4    1
     3     2     1    1
     4     5     4    1
     5     1     6    1
     6     9    11    1
     7     9     7    2
     8     6     7    1
     9    11    12    2
    10     7     8    1
    11    12    10    1
    12     8    10    2
