@<TRIPOS>MOLECULE
/home/cewinharhar/GITHUB/reincatalyze/data/processed/docking_pred/2023-Apr-25-2033_maxeplen5_maxtrainstep200_exh16_gamma099_lrac3e-4_lrcr1e-3/141be626e2cd6ba8f6b8a46d6dbef4dd02701a2b_ligand_2.pdbqt
 12 12 0 0 0
SMALL
GASTEIGER

@<TRIPOS>ATOM
      1  C          7.2770   -1.3150   -2.3770 C.3     1  UNL1        0.1270
      2  C          8.7450   -1.4270   -2.5770 C.2     1  UNL1        0.3030
      3  O          9.4980   -0.5500   -2.0890 O.2     1  UNL1       -0.2520
      4  O          9.3240   -2.4750   -3.2880 O.3     1  UNL1       -0.4810
      5  H          9.4870   -2.4180   -4.3050 H       1  UNL1        0.2960
      6  C          6.9790    0.1110   -2.0030 C.3     1  UNL1        0.0470
      7  C          6.3860    0.2290   -0.6450 C.2     1  UNL1       -0.0470
      8  C          5.7060    1.3680   -0.2590 C.2     1  UNL1        0.0040
      9  C          6.4820   -0.7840    0.2900 C.2     1  UNL1        0.0040
     10  C          5.1580    1.4680    1.0060 C.2     1  UNL1        0.0000
     11  C          5.9360   -0.6870    1.5510 C.2     1  UNL1        0.0000
     12  C          5.2580    0.4530    1.9350 C.2     1  UNL1        0.0000
@<TRIPOS>BOND
     1     5     4    1
     2     4     2    1
     3     2     1    1
     4     2     3    2
     5     1     6    1
     6     6     7    1
     7     7     8    2
     8     7     9    1
     9     8    10    1
    10     9    11    2
    11    10    12    2
    12    11    12    1
