@<TRIPOS>MOLECULE
/home/cewinharhar/GITHUB/reincatalyze/data/processed/docking_pred/2023-Apr-25-2033_maxeplen5_maxtrainstep200_exh16_gamma099_lrac3e-4_lrcr1e-3/141be626e2cd6ba8f6b8a46d6dbef4dd02701a2b_ligand_2.pdbqt
 12 12 0 0 0
SMALL
GASTEIGER

@<TRIPOS>ATOM
      1  C          8.4390   -0.6090   -2.1660 C.3     1  UNL1        0.1270
      2  C          8.4500   -1.8930   -2.9140 C.2     1  UNL1        0.3030
      3  O          9.5400   -2.4880   -3.0940 O.2     1  UNL1       -0.2520
      4  O          7.2910   -2.4690   -3.4280 O.3     1  UNL1       -0.4810
      5  H          7.0610   -2.4270   -4.4320 H       1  UNL1        0.2960
      6  C          7.0230   -0.1040   -2.1540 C.3     1  UNL1        0.0470
      7  C          6.4810    0.0340   -0.7770 C.2     1  UNL1       -0.0470
      8  C          6.5950   -0.9910    0.1420 C.2     1  UNL1        0.0040
      9  C          5.8430    1.1830   -0.3500 C.2     1  UNL1        0.0040
     10  C          6.0870   -0.8520    1.4200 C.2     1  UNL1        0.0000
     11  C          5.3370    1.3240    0.9230 C.2     1  UNL1        0.0000
     12  C          5.4510    0.2980    1.8400 C.2     1  UNL1        0.0000
@<TRIPOS>BOND
     1     5     4    1
     2     4     2    1
     3     3     2    2
     4     2     1    1
     5     1     6    1
     6     6     7    1
     7     7     9    2
     8     7     8    1
     9     9    11    1
    10     8    10    2
    11    11    12    2
    12    10    12    1
