@<TRIPOS>MOLECULE
/home/cewinharhar/GITHUB/reincatalyze/data/processed/docking_pred/2023-Apr-25-2033_maxeplen5_maxtrainstep200_exh16_gamma099_lrac3e-4_lrcr1e-3/1444e75be78da7e2931ed2b5f85ad252461f0798_ligand_2.pdbqt
 12 12 0 0 0
SMALL
GASTEIGER

@<TRIPOS>ATOM
      1  C          8.1660    0.2620   -2.0930 C.3     1  UNL1        0.1270
      2  C          9.3590    0.3570   -1.2120 C.2     1  UNL1        0.3030
      3  O          9.4520   -0.4080   -0.2210 O.2     1  UNL1       -0.2520
      4  O         10.3870    1.2670   -1.4420 O.3     1  UNL1       -0.4810
      5  H         10.7610    1.8670   -0.6900 H       1  UNL1        0.2960
      6  C          7.1880   -0.6700   -1.4310 C.3     1  UNL1        0.0470
      7  C          6.3610    0.0130   -0.4020 C.2     1  UNL1       -0.0470
      8  C          5.8190    1.2620   -0.6330 C.2     1  UNL1        0.0040
      9  C          6.0950   -0.5620    0.8270 C.2     1  UNL1        0.0040
     10  C          5.0510    1.8880    0.3310 C.2     1  UNL1        0.0000
     11  C          5.3300    0.0600    1.7890 C.2     1  UNL1        0.0000
     12  C          4.7900    1.3080    1.5550 C.2     1  UNL1        0.0000
@<TRIPOS>BOND
     1     1     6    1
     2     1     2    1
     3     4     2    1
     4     4     5    1
     5     6     7    1
     6     2     3    2
     7     8     7    2
     8     8    10    1
     9     7     9    1
    10    10    12    2
    11     9    11    2
    12    12    11    1
