@<TRIPOS>MOLECULE
/home/cewinharhar/GITHUB/reincatalyze/data/processed/docking_pred/2023-Apr-25-2033_maxeplen5_maxtrainstep200_exh16_gamma099_lrac3e-4_lrcr1e-3/1444e75be78da7e2931ed2b5f85ad252461f0798_ligand_2.pdbqt
 12 12 0 0 0
SMALL
GASTEIGER

@<TRIPOS>ATOM
      1  C          8.4480   -0.6040   -2.1600 C.3     1  UNL1        0.1270
      2  C          8.4510   -1.8840   -2.9150 C.2     1  UNL1        0.3030
      3  O          9.5370   -2.4870   -3.0940 O.2     1  UNL1       -0.2520
      4  O          7.2880   -2.4480   -3.4350 O.3     1  UNL1       -0.4810
      5  H          7.2850   -2.9600   -4.3300 H       1  UNL1        0.2960
      6  C          7.0410   -0.0740   -2.1740 C.3     1  UNL1        0.0470
      7  C          6.4620    0.0340   -0.8090 C.2     1  UNL1       -0.0470
      8  C          6.5600   -1.0070    0.0940 C.2     1  UNL1        0.0040
      9  C          5.8020    1.1700   -0.3770 C.2     1  UNL1        0.0040
     10  C          6.0180   -0.8960    1.3600 C.2     1  UNL1        0.0000
     11  C          5.2620    1.2820    0.8840 C.2     1  UNL1        0.0000
     12  C          5.3610    0.2400    1.7840 C.2     1  UNL1        0.0000
@<TRIPOS>BOND
     1     5     4    1
     2     4     2    1
     3     3     2    2
     4     2     1    1
     5     6     1    1
     6     6     7    1
     7     7     9    2
     8     7     8    1
     9     9    11    1
    10     8    10    2
    11    11    12    2
    12    10    12    1
