MODEL 1
REMARK VINA RESULT:      -7.3      0.000      0.000
REMARK SMILES O=C(O)CCc1ccccc1
REMARK SMILES IDX 4 1 2 2 1 3 3 4 5 6 6 7 7 8 11 9 8 10 10 11 9 12
REMARK H PARENT 3 5
REMARK Flexibility Score: inf
ROOT
ATOM      1  C   UNL     1       8.448  -0.604  -2.160  1.00  0.00     0.127 C 
ENDROOT
BRANCH   1   2
ATOM      2  C   UNL     1       8.451  -1.884  -2.915  1.00  0.00     0.303 C 
ATOM      3  O   UNL     1       9.537  -2.487  -3.094  1.00  0.00    -0.252 OA
BRANCH   2   4
ATOM      4  O   UNL     1       7.288  -2.448  -3.435  1.00  0.00    -0.481 OA
ATOM      5  H   UNL     1       7.285  -2.960  -4.330  1.00  0.00     0.296 HD
ENDBRANCH   2   4
ENDBRANCH   1   2
BRANCH   1   6
ATOM      6  C   UNL     1       7.041  -0.074  -2.174  1.00  0.00     0.047 C 
BRANCH   6   7
ATOM      7  C   UNL     1       6.462   0.034  -0.809  1.00  0.00    -0.047 A 
ATOM      8  C   UNL     1       6.560  -1.007   0.094  1.00  0.00     0.004 A 
ATOM      9  C   UNL     1       5.802   1.170  -0.377  1.00  0.00     0.004 A 
ATOM     10  C   UNL     1       6.018  -0.896   1.360  1.00  0.00     0.000 A 
ATOM     11  C   UNL     1       5.262   1.282   0.884  1.00  0.00     0.000 A 
ATOM     12  C   UNL     1       5.361   0.240   1.784  1.00  0.00     0.000 A 
ENDBRANCH   6   7
ENDBRANCH   1   6
TORSDOF 4
ENDMDL
MODEL 2
REMARK VINA RESULT:      -7.2      0.113      1.718
REMARK SMILES O=C(O)CCc1ccccc1
REMARK SMILES IDX 4 1 2 2 1 3 3 4 5 6 6 7 7 8 11 9 8 10 10 11 9 12
REMARK H PARENT 3 5
REMARK Flexibility Score: inf
ROOT
ATOM      1  C   UNL     1       8.432  -0.645  -2.072  1.00  0.00     0.127 C 
ENDROOT
BRANCH   1   2
ATOM      2  C   UNL     1       8.402  -1.902  -2.864  1.00  0.00     0.303 C 
ATOM      3  O   UNL     1       7.295  -2.387  -3.202  1.00  0.00    -0.252 OA
BRANCH   2   4
ATOM      4  O   UNL     1       9.561  -2.570  -3.251  1.00  0.00    -0.481 OA
ATOM      5  H   UNL     1      10.066  -2.326  -4.117  1.00  0.00     0.296 HD
ENDBRANCH   2   4
ENDBRANCH   1   2
BRANCH   1   6
ATOM      6  C   UNL     1       7.048  -0.059  -2.102  1.00  0.00     0.047 C 
BRANCH   6   7
ATOM      7  C   UNL     1       6.448   0.048  -0.746  1.00  0.00    -0.047 A 
ATOM      8  C   UNL     1       5.788   1.193  -0.344  1.00  0.00     0.004 A 
ATOM      9  C   UNL     1       6.518  -0.982   0.173  1.00  0.00     0.004 A 
ATOM     10  C   UNL     1       5.234   1.282   0.919  1.00  0.00     0.000 A 
ATOM     11  C   UNL     1       5.967  -0.896   1.432  1.00  0.00     0.000 A 
ATOM     12  C   UNL     1       5.308   0.249   1.831  1.00  0.00     0.000 A 
ENDBRANCH   6   7
ENDBRANCH   1   6
TORSDOF 4
ENDMDL
MODEL 3
REMARK VINA RESULT:      -6.9      3.382      5.098
REMARK SMILES O=C(O)CCc1ccccc1
REMARK SMILES IDX 4 1 2 2 1 3 3 4 5 6 6 7 7 8 11 9 8 10 10 11 9 12
REMARK H PARENT 3 5
REMARK Flexibility Score: inf
ROOT
ATOM      1  C   UNL     1       4.972   1.740   0.677  1.00  0.00     0.127 C 
ENDROOT
BRANCH   1   2
ATOM      2  C   UNL     1       4.456   1.094   1.912  1.00  0.00     0.303 C 
ATOM      3  O   UNL     1       5.140   0.201   2.468  1.00  0.00    -0.252 OA
BRANCH   2   4
ATOM      4  O   UNL     1       3.235   1.442   2.483  1.00  0.00    -0.481 OA
ATOM      5  H   UNL     1       2.490   1.903   1.937  1.00  0.00     0.296 HD
ENDBRANCH   2   4
ENDBRANCH   1   2
BRANCH   1   6
ATOM      6  C   UNL     1       6.473   1.756   0.769  1.00  0.00     0.047 C 
BRANCH   6   7
ATOM      7  C   UNL     1       7.117   0.987  -0.328  1.00  0.00    -0.047 A 
ATOM      8  C   UNL     1       8.437   1.202  -0.673  1.00  0.00     0.004 A 
ATOM      9  C   UNL     1       6.436   0.026  -1.051  1.00  0.00     0.004 A 
ATOM     10  C   UNL     1       9.027   0.481  -1.694  1.00  0.00     0.000 A 
ATOM     11  C   UNL     1       7.020  -0.694  -2.069  1.00  0.00     0.000 A 
ATOM     12  C   UNL     1       8.340  -0.477  -2.412  1.00  0.00     0.000 A 
ENDBRANCH   6   7
ENDBRANCH   1   6
TORSDOF 4
ENDMDL
MODEL 4
REMARK VINA RESULT:      -6.6      3.828      4.922
REMARK SMILES O=C(O)CCc1ccccc1
REMARK SMILES IDX 4 1 2 2 1 3 3 4 5 6 6 7 7 8 11 9 8 10 10 11 9 12
REMARK H PARENT 3 5
REMARK Flexibility Score: inf
ROOT
ATOM      1  C   UNL     1       5.386   2.811   0.004  1.00  0.00     0.127 C 
ENDROOT
BRANCH   1   2
ATOM      2  C   UNL     1       6.183   3.771   0.812  1.00  0.00     0.303 C 
ATOM      3  O   UNL     1       6.163   3.680   2.064  1.00  0.00    -0.252 OA
BRANCH   2   4
ATOM      4  O   UNL     1       6.956   4.774   0.234  1.00  0.00    -0.481 OA
ATOM      5  H   UNL     1       6.634   5.300  -0.593  1.00  0.00     0.296 HD
ENDBRANCH   2   4
ENDBRANCH   1   2
BRANCH   1   6
ATOM      6  C   UNL     1       4.829   1.779   0.945  1.00  0.00     0.047 C 
BRANCH   6   7
ATOM      7  C   UNL     1       5.626   0.525   0.949  1.00  0.00    -0.047 A 
ATOM      8  C   UNL     1       5.766  -0.230   2.098  1.00  0.00     0.004 A 
ATOM      9  C   UNL     1       6.262   0.054  -0.184  1.00  0.00     0.004 A 
ATOM     10  C   UNL     1       6.509  -1.395   2.091  1.00  0.00     0.000 A 
ATOM     11  C   UNL     1       7.003  -1.107  -0.194  1.00  0.00     0.000 A 
ATOM     12  C   UNL     1       7.141  -1.859   0.955  1.00  0.00     0.000 A 
ENDBRANCH   6   7
ENDBRANCH   1   6
TORSDOF 4
ENDMDL
MODEL 5
REMARK VINA RESULT:      -6.6      1.933      2.611
REMARK SMILES O=C(O)CCc1ccccc1
REMARK SMILES IDX 4 1 2 2 1 3 3 4 5 6 6 7 7 8 11 9 8 10 10 11 9 12
REMARK H PARENT 3 5
REMARK Flexibility Score: inf
ROOT
ATOM      1  C   UNL     1       8.166   0.262  -2.093  1.00  0.00     0.127 C 
ENDROOT
BRANCH   1   2
ATOM      2  C   UNL     1       9.359   0.357  -1.212  1.00  0.00     0.303 C 
ATOM      3  O   UNL     1       9.452  -0.408  -0.221  1.00  0.00    -0.252 OA
BRANCH   2   4
ATOM      4  O   UNL     1      10.387   1.267  -1.442  1.00  0.00    -0.481 OA
ATOM      5  H   UNL     1      10.761   1.867  -0.690  1.00  0.00     0.296 HD
ENDBRANCH   2   4
ENDBRANCH   1   2
BRANCH   1   6
ATOM      6  C   UNL     1       7.188  -0.670  -1.431  1.00  0.00     0.047 C 
BRANCH   6   7
ATOM      7  C   UNL     1       6.361   0.013  -0.402  1.00  0.00    -0.047 A 
ATOM      8  C   UNL     1       5.819   1.262  -0.633  1.00  0.00     0.004 A 
ATOM      9  C   UNL     1       6.095  -0.562   0.827  1.00  0.00     0.004 A 
ATOM     10  C   UNL     1       5.051   1.888   0.331  1.00  0.00     0.000 A 
ATOM     11  C   UNL     1       5.330   0.060   1.789  1.00  0.00     0.000 A 
ATOM     12  C   UNL     1       4.790   1.308   1.555  1.00  0.00     0.000 A 
ENDBRANCH   6   7
ENDBRANCH   1   6
TORSDOF 4
ENDMDL
