@<TRIPOS>MOLECULE
/home/cewinharhar/GITHUB/reincatalyze/data/processed/docking_pred/2023-Apr-25-2033_maxeplen5_maxtrainstep200_exh16_gamma099_lrac3e-4_lrcr1e-3/1444e75be78da7e2931ed2b5f85ad252461f0798_ligand_2.pdbqt
 12 12 0 0 0
SMALL
GASTEIGER

@<TRIPOS>ATOM
      1  C          8.4320   -0.6450   -2.0720 C.3     1  UNL1        0.1270
      2  C          8.4020   -1.9020   -2.8640 C.2     1  UNL1        0.3030
      3  O          7.2950   -2.3870   -3.2020 O.2     1  UNL1       -0.2520
      4  O          9.5610   -2.5700   -3.2510 O.3     1  UNL1       -0.4810
      5  H         10.0660   -2.3260   -4.1170 H       1  UNL1        0.2960
      6  C          7.0480   -0.0590   -2.1020 C.3     1  UNL1        0.0470
      7  C          6.4480    0.0480   -0.7460 C.2     1  UNL1       -0.0470
      8  C          5.7880    1.1930   -0.3440 C.2     1  UNL1        0.0040
      9  C          6.5180   -0.9820    0.1730 C.2     1  UNL1        0.0040
     10  C          5.2340    1.2820    0.9190 C.2     1  UNL1        0.0000
     11  C          5.9670   -0.8960    1.4320 C.2     1  UNL1        0.0000
     12  C          5.3080    0.2490    1.8310 C.2     1  UNL1        0.0000
@<TRIPOS>BOND
     1     5     4    1
     2     4     2    1
     3     3     2    2
     4     2     1    1
     5     6     1    1
     6     6     7    1
     7     7     8    2
     8     7     9    1
     9     8    10    1
    10     9    11    2
    11    10    12    2
    12    11    12    1
