@<TRIPOS>MOLECULE
/home/cewinharhar/GITHUB/reincatalyze/data/processed/docking_pred/2023-Apr-25-2033_maxeplen5_maxtrainstep200_exh16_gamma099_lrac3e-4_lrcr1e-3/1444e75be78da7e2931ed2b5f85ad252461f0798_ligand_2.pdbqt
 12 12 0 0 0
SMALL
GASTEIGER

@<TRIPOS>ATOM
      1  C          5.3860    2.8110    0.0040 C.3     1  UNL1        0.1270
      2  C          6.1830    3.7710    0.8120 C.2     1  UNL1        0.3030
      3  O          6.1630    3.6800    2.0640 O.2     1  UNL1       -0.2520
      4  O          6.9560    4.7740    0.2340 O.3     1  UNL1       -0.4810
      5  H          6.6340    5.3000   -0.5930 H       1  UNL1        0.2960
      6  C          4.8290    1.7790    0.9450 C.3     1  UNL1        0.0470
      7  C          5.6260    0.5250    0.9490 C.2     1  UNL1       -0.0470
      8  C          5.7660   -0.2300    2.0980 C.2     1  UNL1        0.0040
      9  C          6.2620    0.0540   -0.1840 C.2     1  UNL1        0.0040
     10  C          6.5090   -1.3950    2.0910 C.2     1  UNL1        0.0000
     11  C          7.0030   -1.1070   -0.1940 C.2     1  UNL1        0.0000
     12  C          7.1410   -1.8590    0.9550 C.2     1  UNL1        0.0000
@<TRIPOS>BOND
     1     5     4    1
     2    11     9    1
     3    11    12    2
     4     9     7    2
     5     1     2    1
     6     1     6    1
     7     4     2    1
     8     2     3    2
     9     6     7    1
    10     7     8    1
    11    12    10    1
    12    10     8    2
