@<TRIPOS>MOLECULE
/home/cewinharhar/GITHUB/reincatalyze/data/processed/docking_pred/2023-Apr-25-2033_maxeplen5_maxtrainstep200_exh16_gamma099_lrac3e-4_lrcr1e-3/1444e75be78da7e2931ed2b5f85ad252461f0798_ligand_2.pdbqt
 12 12 0 0 0
SMALL
GASTEIGER

@<TRIPOS>ATOM
      1  C          4.9720    1.7400    0.6770 C.3     1  UNL1        0.1270
      2  C          4.4560    1.0940    1.9120 C.2     1  UNL1        0.3030
      3  O          5.1400    0.2010    2.4680 O.2     1  UNL1       -0.2520
      4  O          3.2350    1.4420    2.4830 O.3     1  UNL1       -0.4810
      5  H          2.4900    1.9030    1.9370 H       1  UNL1        0.2960
      6  C          6.4730    1.7560    0.7690 C.3     1  UNL1        0.0470
      7  C          7.1170    0.9870   -0.3280 C.2     1  UNL1       -0.0470
      8  C          8.4370    1.2020   -0.6730 C.2     1  UNL1        0.0040
      9  C          6.4360    0.0260   -1.0510 C.2     1  UNL1        0.0040
     10  C          9.0270    0.4810   -1.6940 C.2     1  UNL1        0.0000
     11  C          7.0200   -0.6940   -2.0690 C.2     1  UNL1        0.0000
     12  C          8.3400   -0.4770   -2.4120 C.2     1  UNL1        0.0000
@<TRIPOS>BOND
     1    12    11    2
     2    12    10    1
     3    11     9    1
     4    10     8    2
     5     9     7    2
     6     8     7    1
     7     7     6    1
     8     1     6    1
     9     1     2    1
    10     2     3    2
    11     2     4    1
    12     5     4    1
