@<TRIPOS>MOLECULE
/home/cewinharhar/GITHUB/reincatalyze/data/processed/docking_pred/2023-Apr-25-2033_maxeplen5_maxtrainstep200_exh16_gamma099_lrac3e-4_lrcr1e-3/1a0a4210c7fbec369f44508687af2363e72d8760_ligand_2.pdbqt
 12 12 0 0 0
SMALL
GASTEIGER

@<TRIPOS>ATOM
      1  C          8.4280   -0.6420   -2.1070 C.3     1  UNL1        0.1270
      2  C          8.4120   -1.9150   -2.8730 C.2     1  UNL1        0.3030
      3  O          7.3110   -2.4130   -3.2100 O.2     1  UNL1       -0.2520
      4  O          9.5780   -2.5830   -3.2370 O.3     1  UNL1       -0.4810
      5  H          9.5980   -3.6050   -3.3790 H       1  UNL1        0.2960
      6  C          7.0320   -0.0840   -2.1260 C.3     1  UNL1        0.0470
      7  C          6.4630    0.0710   -0.7610 C.2     1  UNL1       -0.0470
      8  C          6.5690   -0.9380    0.1760 C.2     1  UNL1        0.0040
      9  C          5.8090    1.2220   -0.3640 C.2     1  UNL1        0.0040
     10  C          6.0370   -0.7820    1.4420 C.2     1  UNL1        0.0000
     11  C          5.2780    1.3790    0.8970 C.2     1  UNL1        0.0000
     12  C          5.3840    0.3690    1.8320 C.2     1  UNL1        0.0000
@<TRIPOS>BOND
     1     5     4    1
     2     4     2    1
     3     3     2    2
     4     2     1    1
     5     6     1    1
     6     6     7    1
     7     7     9    2
     8     7     8    1
     9     9    11    1
    10     8    10    2
    11    11    12    2
    12    10    12    1
