@<TRIPOS>MOLECULE
/home/cewinharhar/GITHUB/reincatalyze/data/processed/docking_pred/2023-Apr-25-2033_maxeplen5_maxtrainstep200_exh16_gamma099_lrac3e-4_lrcr1e-3/1a0a4210c7fbec369f44508687af2363e72d8760_ligand_2.pdbqt
 12 12 0 0 0
SMALL
GASTEIGER

@<TRIPOS>ATOM
      1  C          5.3370    2.8220    0.0540 C.3     1  UNL1        0.1270
      2  C          6.1790    3.7610    0.8400 C.2     1  UNL1        0.3030
      3  O          6.2240    3.6450    2.0890 O.2     1  UNL1       -0.2520
      4  O          6.9290    4.7710    0.2430 O.3     1  UNL1       -0.4810
      5  H          7.2050    4.7290   -0.7500 H       1  UNL1        0.2960
      6  C          4.8540    1.7530    0.9940 C.3     1  UNL1        0.0470
      7  C          5.7060    0.5350    0.9550 C.2     1  UNL1       -0.0470
      8  C          5.8390   -0.2810    2.0610 C.2     1  UNL1        0.0040
      9  C          6.4010    0.1610   -0.1800 C.2     1  UNL1        0.0040
     10  C          6.6340   -1.4100    2.0130 C.2     1  UNL1        0.0000
     11  C          7.1940   -0.9640   -0.2300 C.2     1  UNL1        0.0000
     12  C          7.3250   -1.7780    0.8770 C.2     1  UNL1        0.0000
@<TRIPOS>BOND
     1     5     4    1
     2    11     9    1
     3    11    12    2
     4     9     7    2
     5     1     2    1
     6     1     6    1
     7     4     2    1
     8     2     3    2
     9    12    10    1
    10     7     6    1
    11     7     8    1
    12    10     8    2
