@<TRIPOS>MOLECULE
/home/cewinharhar/GITHUB/reincatalyze/data/processed/docking_pred/2023-Apr-25-2033_maxeplen5_maxtrainstep200_exh16_gamma099_lrac3e-4_lrcr1e-3/1a0a4210c7fbec369f44508687af2363e72d8760_ligand_2.pdbqt
 12 12 0 0 0
SMALL
GASTEIGER

@<TRIPOS>ATOM
      1  C          4.9620    1.8050    0.7310 C.3     1  UNL1        0.1270
      2  C          4.4390    1.1110    1.9370 C.2     1  UNL1        0.3030
      3  O          5.1260    0.2050    2.4670 O.2     1  UNL1       -0.2520
      4  O          3.2100    1.4290    2.5080 O.3     1  UNL1       -0.4810
      5  H          2.4090    1.7390    1.9370 H       1  UNL1        0.2960
      6  C          6.4620    1.8150    0.8290 C.3     1  UNL1        0.0470
      7  C          7.1090    1.0870   -0.2950 C.2     1  UNL1       -0.0470
      8  C          6.3870    0.2300   -1.1020 C.2     1  UNL1        0.0040
      9  C          8.4530    1.2310   -0.5870 C.2     1  UNL1        0.0040
     10  C          6.9990   -0.4410   -2.1440 C.2     1  UNL1        0.0000
     11  C          9.0640    0.5640   -1.6250 C.2     1  UNL1        0.0000
     12  C          8.3400   -0.2930   -2.4290 C.2     1  UNL1        0.0000
@<TRIPOS>BOND
     1    12    10    2
     2    12    11    1
     3    10     8    1
     4    11     9    2
     5     8     7    2
     6     9     7    1
     7     7     6    1
     8     1     6    1
     9     1     2    1
    10     2     3    2
    11     2     4    1
    12     5     4    1
