MODEL 1
REMARK VINA RESULT:      -7.4      0.000      0.000
REMARK SMILES O=C(O)CCc1ccccc1
REMARK SMILES IDX 4 1 2 2 1 3 3 4 5 6 6 7 7 8 11 9 8 10 10 11 9 12
REMARK H PARENT 3 5
REMARK Flexibility Score: inf
ROOT
ATOM      1  C   UNL     1       8.468  -0.615  -2.168  1.00  0.00     0.127 C 
ENDROOT
BRANCH   1   2
ATOM      2  C   UNL     1       8.467  -1.901  -2.912  1.00  0.00     0.303 C 
ATOM      3  O   UNL     1       9.551  -2.507  -3.090  1.00  0.00    -0.252 OA
BRANCH   2   4
ATOM      4  O   UNL     1       7.302  -2.467  -3.423  1.00  0.00    -0.481 OA
ATOM      5  H   UNL     1       7.286  -3.424  -3.809  1.00  0.00     0.296 HD
ENDBRANCH   2   4
ENDBRANCH   1   2
BRANCH   1   6
ATOM      6  C   UNL     1       7.056  -0.097  -2.156  1.00  0.00     0.047 C 
BRANCH   6   7
ATOM      7  C   UNL     1       6.512   0.034  -0.779  1.00  0.00    -0.047 A 
ATOM      8  C   UNL     1       5.875   1.189  -0.368  1.00  0.00     0.004 A 
ATOM      9  C   UNL     1       6.613  -0.983   0.152  1.00  0.00     0.004 A 
ATOM     10  C   UNL     1       5.373   1.301   0.914  1.00  0.00     0.000 A 
ATOM     11  C   UNL     1       6.114  -0.874   1.431  1.00  0.00     0.000 A 
ATOM     12  C   UNL     1       5.478   0.282   1.838  1.00  0.00     0.000 A 
ENDBRANCH   6   7
ENDBRANCH   1   6
TORSDOF 4
ENDMDL
MODEL 2
REMARK VINA RESULT:      -7.3      0.117      1.719
REMARK SMILES O=C(O)CCc1ccccc1
REMARK SMILES IDX 4 1 2 2 1 3 3 4 5 6 6 7 7 8 11 9 8 10 10 11 9 12
REMARK H PARENT 3 5
REMARK Flexibility Score: inf
ROOT
ATOM      1  C   UNL     1       8.428  -0.642  -2.107  1.00  0.00     0.127 C 
ENDROOT
BRANCH   1   2
ATOM      2  C   UNL     1       8.412  -1.915  -2.873  1.00  0.00     0.303 C 
ATOM      3  O   UNL     1       7.311  -2.413  -3.210  1.00  0.00    -0.252 OA
BRANCH   2   4
ATOM      4  O   UNL     1       9.578  -2.583  -3.237  1.00  0.00    -0.481 OA
ATOM      5  H   UNL     1       9.598  -3.605  -3.379  1.00  0.00     0.296 HD
ENDBRANCH   2   4
ENDBRANCH   1   2
BRANCH   1   6
ATOM      6  C   UNL     1       7.032  -0.084  -2.126  1.00  0.00     0.047 C 
BRANCH   6   7
ATOM      7  C   UNL     1       6.463   0.071  -0.761  1.00  0.00    -0.047 A 
ATOM      8  C   UNL     1       6.569  -0.938   0.176  1.00  0.00     0.004 A 
ATOM      9  C   UNL     1       5.809   1.222  -0.364  1.00  0.00     0.004 A 
ATOM     10  C   UNL     1       6.037  -0.782   1.442  1.00  0.00     0.000 A 
ATOM     11  C   UNL     1       5.278   1.379   0.897  1.00  0.00     0.000 A 
ATOM     12  C   UNL     1       5.384   0.369   1.832  1.00  0.00     0.000 A 
ENDBRANCH   6   7
ENDBRANCH   1   6
TORSDOF 4
ENDMDL
MODEL 3
REMARK VINA RESULT:      -7.2      0.699      1.630
REMARK SMILES O=C(O)CCc1ccccc1
REMARK SMILES IDX 4 1 2 2 1 3 3 4 5 6 6 7 7 8 11 9 8 10 10 11 9 12
REMARK H PARENT 3 5
REMARK Flexibility Score: inf
ROOT
ATOM      1  C   UNL     1       8.328  -0.964  -1.790  1.00  0.00     0.127 C 
ENDROOT
BRANCH   1   2
ATOM      2  C   UNL     1       8.428  -2.018  -2.832  1.00  0.00     0.303 C 
ATOM      3  O   UNL     1       9.558  -2.469  -3.140  1.00  0.00    -0.252 OA
BRANCH   2   4
ATOM      4  O   UNL     1       7.311  -2.532  -3.485  1.00  0.00    -0.481 OA
ATOM      5  H   UNL     1       7.287  -3.499  -3.843  1.00  0.00     0.296 HD
ENDBRANCH   2   4
ENDBRANCH   1   2
BRANCH   1   6
ATOM      6  C   UNL     1       7.341  -1.438  -0.759  1.00  0.00     0.047 C 
BRANCH   6   7
ATOM      7  C   UNL     1       6.537  -0.326  -0.189  1.00  0.00    -0.047 A 
ATOM      8  C   UNL     1       6.103  -0.356   1.123  1.00  0.00     0.004 A 
ATOM      9  C   UNL     1       6.187   0.786  -0.933  1.00  0.00     0.004 A 
ATOM     10  C   UNL     1       5.356   0.684   1.643  1.00  0.00     0.000 A 
ATOM     11  C   UNL     1       5.442   1.823  -0.416  1.00  0.00     0.000 A 
ATOM     12  C   UNL     1       5.009   1.790   0.894  1.00  0.00     0.000 A 
ENDBRANCH   6   7
ENDBRANCH   1   6
TORSDOF 4
ENDMDL
MODEL 4
REMARK VINA RESULT:      -6.8      3.393      5.111
REMARK SMILES O=C(O)CCc1ccccc1
REMARK SMILES IDX 4 1 2 2 1 3 3 4 5 6 6 7 7 8 11 9 8 10 10 11 9 12
REMARK H PARENT 3 5
REMARK Flexibility Score: inf
ROOT
ATOM      1  C   UNL     1       4.962   1.805   0.731  1.00  0.00     0.127 C 
ENDROOT
BRANCH   1   2
ATOM      2  C   UNL     1       4.439   1.111   1.937  1.00  0.00     0.303 C 
ATOM      3  O   UNL     1       5.126   0.205   2.467  1.00  0.00    -0.252 OA
BRANCH   2   4
ATOM      4  O   UNL     1       3.210   1.429   2.508  1.00  0.00    -0.481 OA
ATOM      5  H   UNL     1       2.409   1.739   1.937  1.00  0.00     0.296 HD
ENDBRANCH   2   4
ENDBRANCH   1   2
BRANCH   1   6
ATOM      6  C   UNL     1       6.462   1.815   0.829  1.00  0.00     0.047 C 
BRANCH   6   7
ATOM      7  C   UNL     1       7.109   1.087  -0.295  1.00  0.00    -0.047 A 
ATOM      8  C   UNL     1       6.387   0.230  -1.102  1.00  0.00     0.004 A 
ATOM      9  C   UNL     1       8.453   1.231  -0.587  1.00  0.00     0.004 A 
ATOM     10  C   UNL     1       6.999  -0.441  -2.144  1.00  0.00     0.000 A 
ATOM     11  C   UNL     1       9.064   0.564  -1.625  1.00  0.00     0.000 A 
ATOM     12  C   UNL     1       8.340  -0.293  -2.429  1.00  0.00     0.000 A 
ENDBRANCH   6   7
ENDBRANCH   1   6
TORSDOF 4
ENDMDL
MODEL 5
REMARK VINA RESULT:      -6.6      3.820      4.990
REMARK SMILES O=C(O)CCc1ccccc1
REMARK SMILES IDX 4 1 2 2 1 3 3 4 5 6 6 7 7 8 11 9 8 10 10 11 9 12
REMARK H PARENT 3 5
REMARK Flexibility Score: inf
ROOT
ATOM      1  C   UNL     1       5.337   2.822   0.054  1.00  0.00     0.127 C 
ENDROOT
BRANCH   1   2
ATOM      2  C   UNL     1       6.179   3.761   0.840  1.00  0.00     0.303 C 
ATOM      3  O   UNL     1       6.224   3.645   2.089  1.00  0.00    -0.252 OA
BRANCH   2   4
ATOM      4  O   UNL     1       6.929   4.771   0.243  1.00  0.00    -0.481 OA
ATOM      5  H   UNL     1       7.205   4.729  -0.750  1.00  0.00     0.296 HD
ENDBRANCH   2   4
ENDBRANCH   1   2
BRANCH   1   6
ATOM      6  C   UNL     1       4.854   1.753   0.994  1.00  0.00     0.047 C 
BRANCH   6   7
ATOM      7  C   UNL     1       5.706   0.535   0.955  1.00  0.00    -0.047 A 
ATOM      8  C   UNL     1       5.839  -0.281   2.061  1.00  0.00     0.004 A 
ATOM      9  C   UNL     1       6.401   0.161  -0.180  1.00  0.00     0.004 A 
ATOM     10  C   UNL     1       6.634  -1.410   2.013  1.00  0.00     0.000 A 
ATOM     11  C   UNL     1       7.194  -0.964  -0.230  1.00  0.00     0.000 A 
ATOM     12  C   UNL     1       7.325  -1.778   0.877  1.00  0.00     0.000 A 
ENDBRANCH   6   7
ENDBRANCH   1   6
TORSDOF 4
ENDMDL
