@<TRIPOS>MOLECULE
/home/cewinharhar/GITHUB/reincatalyze/data/processed/docking_pred/2023-Apr-25-2033_maxeplen5_maxtrainstep200_exh16_gamma099_lrac3e-4_lrcr1e-3/1a0a4210c7fbec369f44508687af2363e72d8760_ligand_2.pdbqt
 12 12 0 0 0
SMALL
GASTEIGER

@<TRIPOS>ATOM
      1  C          8.3280   -0.9640   -1.7900 C.3     1  UNL1        0.1270
      2  C          8.4280   -2.0180   -2.8320 C.2     1  UNL1        0.3030
      3  O          9.5580   -2.4690   -3.1400 O.2     1  UNL1       -0.2520
      4  O          7.3110   -2.5320   -3.4850 O.3     1  UNL1       -0.4810
      5  H          7.2870   -3.4990   -3.8430 H       1  UNL1        0.2960
      6  C          7.3410   -1.4380   -0.7590 C.3     1  UNL1        0.0470
      7  C          6.5370   -0.3260   -0.1890 C.2     1  UNL1       -0.0470
      8  C          6.1030   -0.3560    1.1230 C.2     1  UNL1        0.0040
      9  C          6.1870    0.7860   -0.9330 C.2     1  UNL1        0.0040
     10  C          5.3560    0.6840    1.6430 C.2     1  UNL1        0.0000
     11  C          5.4420    1.8230   -0.4160 C.2     1  UNL1        0.0000
     12  C          5.0090    1.7900    0.8940 C.2     1  UNL1        0.0000
@<TRIPOS>BOND
     1     5     4    1
     2     4     2    1
     3     3     2    2
     4     2     1    1
     5     1     6    1
     6     9    11    1
     7     9     7    2
     8     6     7    1
     9    11    12    2
    10     7     8    1
    11    12    10    1
    12     8    10    2
