@<TRIPOS>MOLECULE
/home/cewinharhar/GITHUB/reincatalyze/data/processed/docking_pred/2023-Apr-25-2033_maxeplen5_maxtrainstep200_exh16_gamma099_lrac3e-4_lrcr1e-3/1c86ade130d2cc9f902dffb19ba95248752a952e_ligand_2.pdbqt
 12 12 0 0 0
SMALL
GASTEIGER

@<TRIPOS>ATOM
      1  C          8.4480   -0.6090   -2.1590 C.3     1  UNL1        0.1270
      2  C          8.4520   -1.8930   -2.9070 C.2     1  UNL1        0.3030
      3  O          9.5390   -2.4930   -3.0880 O.2     1  UNL1       -0.2520
      4  O          7.2890   -2.4630   -3.4190 O.3     1  UNL1       -0.4810
      5  H          7.2550   -2.8740   -4.3640 H       1  UNL1        0.2960
      6  C          7.0350   -0.0940   -2.1510 C.3     1  UNL1        0.0470
      7  C          6.4870    0.0360   -0.7750 C.2     1  UNL1       -0.0470
      8  C          6.5970   -0.9940    0.1390 C.2     1  UNL1        0.0040
      9  C          5.8470    1.1830   -0.3440 C.2     1  UNL1        0.0040
     10  C          6.0830   -0.8620    1.4160 C.2     1  UNL1        0.0000
     11  C          5.3350    1.3170    0.9270 C.2     1  UNL1        0.0000
     12  C          5.4450    0.2860    1.8390 C.2     1  UNL1        0.0000
@<TRIPOS>BOND
     1     5     4    1
     2     4     2    1
     3     3     2    2
     4     2     1    1
     5     1     6    1
     6     6     7    1
     7     7     9    2
     8     7     8    1
     9     9    11    1
    10     8    10    2
    11    11    12    2
    12    10    12    1
