MODEL 1
REMARK VINA RESULT:      -7.3      0.000      0.000
REMARK SMILES O=C(O)CCc1ccccc1
REMARK SMILES IDX 4 1 2 2 1 3 3 4 5 6 6 7 7 8 11 9 8 10 10 11 9 12
REMARK H PARENT 3 5
REMARK Flexibility Score: inf
ROOT
ATOM      1  C   UNL     1       8.448  -0.609  -2.159  1.00  0.00     0.127 C 
ENDROOT
BRANCH   1   2
ATOM      2  C   UNL     1       8.452  -1.893  -2.907  1.00  0.00     0.303 C 
ATOM      3  O   UNL     1       9.539  -2.493  -3.088  1.00  0.00    -0.252 OA
BRANCH   2   4
ATOM      4  O   UNL     1       7.289  -2.463  -3.419  1.00  0.00    -0.481 OA
ATOM      5  H   UNL     1       7.255  -2.874  -4.364  1.00  0.00     0.296 HD
ENDBRANCH   2   4
ENDBRANCH   1   2
BRANCH   1   6
ATOM      6  C   UNL     1       7.035  -0.094  -2.151  1.00  0.00     0.047 C 
BRANCH   6   7
ATOM      7  C   UNL     1       6.487   0.036  -0.775  1.00  0.00    -0.047 A 
ATOM      8  C   UNL     1       6.597  -0.994   0.139  1.00  0.00     0.004 A 
ATOM      9  C   UNL     1       5.847   1.183  -0.344  1.00  0.00     0.004 A 
ATOM     10  C   UNL     1       6.083  -0.862   1.416  1.00  0.00     0.000 A 
ATOM     11  C   UNL     1       5.335   1.317   0.927  1.00  0.00     0.000 A 
ATOM     12  C   UNL     1       5.445   0.286   1.839  1.00  0.00     0.000 A 
ENDBRANCH   6   7
ENDBRANCH   1   6
TORSDOF 4
ENDMDL
MODEL 2
REMARK VINA RESULT:      -7.3      0.069      1.421
REMARK SMILES O=C(O)CCc1ccccc1
REMARK SMILES IDX 4 1 2 2 1 3 3 4 5 6 6 7 7 8 11 9 8 10 10 11 9 12
REMARK H PARENT 3 5
REMARK Flexibility Score: inf
ROOT
ATOM      1  C   UNL     1       8.461  -0.564  -2.210  1.00  0.00     0.127 C 
ENDROOT
BRANCH   1   2
ATOM      2  C   UNL     1       8.480  -1.869  -2.920  1.00  0.00     0.303 C 
ATOM      3  O   UNL     1       9.573  -2.465  -3.079  1.00  0.00    -0.252 OA
BRANCH   2   4
ATOM      4  O   UNL     1       7.324  -2.465  -3.419  1.00  0.00    -0.481 OA
ATOM      5  H   UNL     1       7.136  -2.522  -4.432  1.00  0.00     0.296 HD
ENDBRANCH   2   4
ENDBRANCH   1   2
BRANCH   1   6
ATOM      6  C   UNL     1       7.041  -0.070  -2.207  1.00  0.00     0.047 C 
BRANCH   6   7
ATOM      7  C   UNL     1       6.493   0.073  -0.832  1.00  0.00    -0.047 A 
ATOM      8  C   UNL     1       5.851   1.230  -0.436  1.00  0.00     0.004 A 
ATOM      9  C   UNL     1       6.596  -0.934   0.109  1.00  0.00     0.004 A 
ATOM     10  C   UNL     1       5.345   1.353   0.844  1.00  0.00     0.000 A 
ATOM     11  C   UNL     1       6.092  -0.814   1.385  1.00  0.00     0.000 A 
ATOM     12  C   UNL     1       5.452   0.344   1.779  1.00  0.00     0.000 A 
ENDBRANCH   6   7
ENDBRANCH   1   6
TORSDOF 4
ENDMDL
MODEL 3
REMARK VINA RESULT:      -6.8      3.379      5.098
REMARK SMILES O=C(O)CCc1ccccc1
REMARK SMILES IDX 4 1 2 2 1 3 3 4 5 6 6 7 7 8 11 9 8 10 10 11 9 12
REMARK H PARENT 3 5
REMARK Flexibility Score: inf
ROOT
ATOM      1  C   UNL     1       5.002   1.811   0.716  1.00  0.00     0.127 C 
ENDROOT
BRANCH   1   2
ATOM      2  C   UNL     1       4.471   1.125   1.922  1.00  0.00     0.303 C 
ATOM      3  O   UNL     1       5.153   0.221   2.463  1.00  0.00    -0.252 OA
BRANCH   2   4
ATOM      4  O   UNL     1       3.237   1.445   2.481  1.00  0.00    -0.481 OA
ATOM      5  H   UNL     1       2.561   0.718   2.762  1.00  0.00     0.296 HD
ENDBRANCH   2   4
ENDBRANCH   1   2
BRANCH   1   6
ATOM      6  C   UNL     1       6.503   1.784   0.804  1.00  0.00     0.047 C 
BRANCH   6   7
ATOM      7  C   UNL     1       7.124   1.022  -0.311  1.00  0.00    -0.047 A 
ATOM      8  C   UNL     1       8.446   1.216  -0.661  1.00  0.00     0.004 A 
ATOM      9  C   UNL     1       6.417   0.088  -1.046  1.00  0.00     0.004 A 
ATOM     10  C   UNL     1       9.013   0.502  -1.700  1.00  0.00     0.000 A 
ATOM     11  C   UNL     1       6.980  -0.625  -2.081  1.00  0.00     0.000 A 
ATOM     12  C   UNL     1       8.301  -0.428  -2.429  1.00  0.00     0.000 A 
ENDBRANCH   6   7
ENDBRANCH   1   6
TORSDOF 4
ENDMDL
MODEL 4
REMARK VINA RESULT:      -6.5      1.888      2.893
REMARK SMILES O=C(O)CCc1ccccc1
REMARK SMILES IDX 4 1 2 2 1 3 3 4 5 6 6 7 7 8 11 9 8 10 10 11 9 12
REMARK H PARENT 3 5
REMARK Flexibility Score: inf
ROOT
ATOM      1  C   UNL     1       8.197  -1.600   1.164  1.00  0.00     0.127 C 
ENDROOT
BRANCH   1   2
ATOM      2  C   UNL     1       8.496  -2.801   0.341  1.00  0.00     0.303 C 
ATOM      3  O   UNL     1       9.166  -3.735   0.842  1.00  0.00    -0.252 OA
BRANCH   2   4
ATOM      4  O   UNL     1       8.058  -2.933  -0.974  1.00  0.00    -0.481 OA
ATOM      5  H   UNL     1       8.642  -3.377  -1.700  1.00  0.00     0.296 HD
ENDBRANCH   2   4
ENDBRANCH   1   2
BRANCH   1   6
ATOM      6  C   UNL     1       6.702  -1.506   1.302  1.00  0.00     0.047 C 
BRANCH   6   7
ATOM      7  C   UNL     1       6.163  -0.223   0.779  1.00  0.00    -0.047 A 
ATOM      8  C   UNL     1       5.415   0.617   1.580  1.00  0.00     0.004 A 
ATOM      9  C   UNL     1       6.382   0.190  -0.522  1.00  0.00     0.004 A 
ATOM     10  C   UNL     1       4.919   1.808   1.083  1.00  0.00     0.000 A 
ATOM     11  C   UNL     1       5.889   1.376  -1.019  1.00  0.00     0.000 A 
ATOM     12  C   UNL     1       5.141   2.214  -0.216  1.00  0.00     0.000 A 
ENDBRANCH   6   7
ENDBRANCH   1   6
TORSDOF 4
ENDMDL
MODEL 5
REMARK VINA RESULT:      -6.5      2.082      2.382
REMARK SMILES O=C(O)CCc1ccccc1
REMARK SMILES IDX 4 1 2 2 1 3 3 4 5 6 6 7 7 8 11 9 8 10 10 11 9 12
REMARK H PARENT 3 5
REMARK Flexibility Score: inf
ROOT
ATOM      1  C   UNL     1       8.531   0.644  -1.658  1.00  0.00     0.127 C 
ENDROOT
BRANCH   1   2
ATOM      2  C   UNL     1       9.688   0.258  -0.809  1.00  0.00     0.303 C 
ATOM      3  O   UNL     1       9.502  -0.504   0.170  1.00  0.00    -0.252 OA
BRANCH   2   4
ATOM      4  O   UNL     1      10.981   0.711  -1.058  1.00  0.00    -0.481 OA
ATOM      5  H   UNL     1      11.806   0.112  -0.906  1.00  0.00     0.296 HD
ENDBRANCH   2   4
ENDBRANCH   1   2
BRANCH   1   6
ATOM      6  C   UNL     1       7.401  -0.296  -1.337  1.00  0.00     0.047 C 
BRANCH   6   7
ATOM      7  C   UNL     1       6.477   0.255  -0.312  1.00  0.00    -0.047 A 
ATOM      8  C   UNL     1       6.227  -0.424   0.865  1.00  0.00     0.004 A 
ATOM      9  C   UNL     1       5.828   1.464  -0.481  1.00  0.00     0.004 A 
ATOM     10  C   UNL     1       5.366   0.098   1.811  1.00  0.00     0.000 A 
ATOM     11  C   UNL     1       4.970   1.986   0.461  1.00  0.00     0.000 A 
ATOM     12  C   UNL     1       4.721   1.305   1.635  1.00  0.00     0.000 A 
ENDBRANCH   6   7
ENDBRANCH   1   6
TORSDOF 4
ENDMDL
