@<TRIPOS>MOLECULE
/home/cewinharhar/GITHUB/reincatalyze/data/processed/docking_pred/2023-Apr-25-2033_maxeplen5_maxtrainstep200_exh16_gamma099_lrac3e-4_lrcr1e-3/1c86ade130d2cc9f902dffb19ba95248752a952e_ligand_2.pdbqt
 12 12 0 0 0
SMALL
GASTEIGER

@<TRIPOS>ATOM
      1  C          8.5310    0.6440   -1.6580 C.3     1  UNL1        0.1270
      2  C          9.6880    0.2580   -0.8090 C.2     1  UNL1        0.3030
      3  O          9.5020   -0.5040    0.1700 O.2     1  UNL1       -0.2520
      4  O         10.9810    0.7110   -1.0580 O.3     1  UNL1       -0.4810
      5  H         11.8060    0.1120   -0.9060 H       1  UNL1        0.2960
      6  C          7.4010   -0.2960   -1.3370 C.3     1  UNL1        0.0470
      7  C          6.4770    0.2550   -0.3120 C.2     1  UNL1       -0.0470
      8  C          6.2270   -0.4240    0.8650 C.2     1  UNL1        0.0040
      9  C          5.8280    1.4640   -0.4810 C.2     1  UNL1        0.0040
     10  C          5.3660    0.0980    1.8110 C.2     1  UNL1        0.0000
     11  C          4.9700    1.9860    0.4610 C.2     1  UNL1        0.0000
     12  C          4.7210    1.3050    1.6350 C.2     1  UNL1        0.0000
@<TRIPOS>BOND
     1     1     6    1
     2     1     2    1
     3     6     7    1
     4     4     5    1
     5     4     2    1
     6     2     3    2
     7     9     7    2
     8     9    11    1
     9     7     8    1
    10    11    12    2
    11     8    10    2
    12    12    10    1
