@<TRIPOS>MOLECULE
/home/cewinharhar/GITHUB/reincatalyze/data/processed/docking_pred/2023-Apr-25-2033_maxeplen5_maxtrainstep200_exh16_gamma099_lrac3e-4_lrcr1e-3/1c86ade130d2cc9f902dffb19ba95248752a952e_ligand_2.pdbqt
 12 12 0 0 0
SMALL
GASTEIGER

@<TRIPOS>ATOM
      1  C          8.1970   -1.6000    1.1640 C.3     1  UNL1        0.1270
      2  C          8.4960   -2.8010    0.3410 C.2     1  UNL1        0.3030
      3  O          9.1660   -3.7350    0.8420 O.2     1  UNL1       -0.2520
      4  O          8.0580   -2.9330   -0.9740 O.3     1  UNL1       -0.4810
      5  H          8.6420   -3.3770   -1.7000 H       1  UNL1        0.2960
      6  C          6.7020   -1.5060    1.3020 C.3     1  UNL1        0.0470
      7  C          6.1630   -0.2230    0.7790 C.2     1  UNL1       -0.0470
      8  C          5.4150    0.6170    1.5800 C.2     1  UNL1        0.0040
      9  C          6.3820    0.1900   -0.5220 C.2     1  UNL1        0.0040
     10  C          4.9190    1.8080    1.0830 C.2     1  UNL1        0.0000
     11  C          5.8890    1.3760   -1.0190 C.2     1  UNL1        0.0000
     12  C          5.1410    2.2140   -0.2160 C.2     1  UNL1        0.0000
@<TRIPOS>BOND
     1     5     4    1
     2    11     9    1
     3    11    12    2
     4     4     2    1
     5     9     7    2
     6    12    10    1
     7     2     3    2
     8     2     1    1
     9     7     6    1
    10     7     8    1
    11    10     8    2
    12     1     6    1
