@<TRIPOS>MOLECULE
/home/cewinharhar/GITHUB/reincatalyze/data/processed/docking_pred/2023-Apr-25-2033_maxeplen5_maxtrainstep200_exh16_gamma099_lrac3e-4_lrcr1e-3/1c86ade130d2cc9f902dffb19ba95248752a952e_ligand_2.pdbqt
 12 12 0 0 0
SMALL
GASTEIGER

@<TRIPOS>ATOM
      1  C          5.0020    1.8110    0.7160 C.3     1  UNL1        0.1270
      2  C          4.4710    1.1250    1.9220 C.2     1  UNL1        0.3030
      3  O          5.1530    0.2210    2.4630 O.2     1  UNL1       -0.2520
      4  O          3.2370    1.4450    2.4810 O.3     1  UNL1       -0.4810
      5  H          2.5610    0.7180    2.7620 H       1  UNL1        0.2960
      6  C          6.5030    1.7840    0.8040 C.3     1  UNL1        0.0470
      7  C          7.1240    1.0220   -0.3110 C.2     1  UNL1       -0.0470
      8  C          8.4460    1.2160   -0.6610 C.2     1  UNL1        0.0040
      9  C          6.4170    0.0880   -1.0460 C.2     1  UNL1        0.0040
     10  C          9.0130    0.5020   -1.7000 C.2     1  UNL1        0.0000
     11  C          6.9800   -0.6250   -2.0810 C.2     1  UNL1        0.0000
     12  C          8.3010   -0.4280   -2.4290 C.2     1  UNL1        0.0000
@<TRIPOS>BOND
     1    12    11    2
     2    12    10    1
     3    11     9    1
     4    10     8    2
     5     9     7    2
     6     8     7    1
     7     7     6    1
     8     1     6    1
     9     1     2    1
    10     2     3    2
    11     2     4    1
    12     4     5    1
