@<TRIPOS>MOLECULE
/home/cewinharhar/GITHUB/reincatalyze/data/processed/docking_pred/2023-Apr-25-2033_maxeplen5_maxtrainstep200_exh16_gamma099_lrac3e-4_lrcr1e-3/1c86ade130d2cc9f902dffb19ba95248752a952e_ligand_2.pdbqt
 12 12 0 0 0
SMALL
GASTEIGER

@<TRIPOS>ATOM
      1  C          8.4610   -0.5640   -2.2100 C.3     1  UNL1        0.1270
      2  C          8.4800   -1.8690   -2.9200 C.2     1  UNL1        0.3030
      3  O          9.5730   -2.4650   -3.0790 O.2     1  UNL1       -0.2520
      4  O          7.3240   -2.4650   -3.4190 O.3     1  UNL1       -0.4810
      5  H          7.1360   -2.5220   -4.4320 H       1  UNL1        0.2960
      6  C          7.0410   -0.0700   -2.2070 C.3     1  UNL1        0.0470
      7  C          6.4930    0.0730   -0.8320 C.2     1  UNL1       -0.0470
      8  C          5.8510    1.2300   -0.4360 C.2     1  UNL1        0.0040
      9  C          6.5960   -0.9340    0.1090 C.2     1  UNL1        0.0040
     10  C          5.3450    1.3530    0.8440 C.2     1  UNL1        0.0000
     11  C          6.0920   -0.8140    1.3850 C.2     1  UNL1        0.0000
     12  C          5.4520    0.3440    1.7790 C.2     1  UNL1        0.0000
@<TRIPOS>BOND
     1     5     4    1
     2     4     2    1
     3     3     2    2
     4     2     1    1
     5     1     6    1
     6     6     7    1
     7     7     8    2
     8     7     9    1
     9     8    10    1
    10     9    11    2
    11    10    12    2
    12    11    12    1
