MODEL 1
REMARK VINA RESULT:      -7.3      0.000      0.000
REMARK SMILES O=C(O)CCc1ccccc1
REMARK SMILES IDX 4 1 2 2 1 3 3 4 5 6 6 7 7 8 11 9 8 10 10 11 9 12
REMARK H PARENT 3 5
REMARK Flexibility Score: inf
ROOT
ATOM      1  C   UNL     1       8.463  -0.656  -2.112  1.00  0.00     0.127 C 
ENDROOT
BRANCH   1   2
ATOM      2  C   UNL     1       8.469  -1.918  -2.897  1.00  0.00     0.303 C 
ATOM      3  O   UNL     1       9.557  -2.510  -3.098  1.00  0.00    -0.252 OA
BRANCH   2   4
ATOM      4  O   UNL     1       7.306  -2.476  -3.423  1.00  0.00    -0.481 OA
ATOM      5  H   UNL     1       7.275  -2.870  -4.376  1.00  0.00     0.296 HD
ENDBRANCH   2   4
ENDBRANCH   1   2
BRANCH   1   6
ATOM      6  C   UNL     1       7.062  -0.110  -2.143  1.00  0.00     0.047 C 
BRANCH   6   7
ATOM      7  C   UNL     1       6.489   0.057  -0.781  1.00  0.00    -0.047 A 
ATOM      8  C   UNL     1       6.587  -0.946   0.164  1.00  0.00     0.004 A 
ATOM      9  C   UNL     1       5.835   1.212  -0.396  1.00  0.00     0.004 A 
ATOM     10  C   UNL     1       6.050  -0.780   1.427  1.00  0.00     0.000 A 
ATOM     11  C   UNL     1       5.300   1.380   0.862  1.00  0.00     0.000 A 
ATOM     12  C   UNL     1       5.398   0.376   1.805  1.00  0.00     0.000 A 
ENDBRANCH   6   7
ENDBRANCH   1   6
TORSDOF 4
ENDMDL
MODEL 2
REMARK VINA RESULT:      -7.2      0.111      1.719
REMARK SMILES O=C(O)CCc1ccccc1
REMARK SMILES IDX 4 1 2 2 1 3 3 4 5 6 6 7 7 8 11 9 8 10 10 11 9 12
REMARK H PARENT 3 5
REMARK Flexibility Score: inf
ROOT
ATOM      1  C   UNL     1       8.406  -0.578  -2.187  1.00  0.00     0.127 C 
ENDROOT
BRANCH   1   2
ATOM      2  C   UNL     1       8.386  -1.883  -2.899  1.00  0.00     0.303 C 
ATOM      3  O   UNL     1       7.283  -2.388  -3.220  1.00  0.00    -0.252 OA
BRANCH   2   4
ATOM      4  O   UNL     1       9.549  -2.574  -3.227  1.00  0.00    -0.481 OA
ATOM      5  H   UNL     1      10.210  -2.901  -2.505  1.00  0.00     0.296 HD
ENDBRANCH   2   4
ENDBRANCH   1   2
BRANCH   1   6
ATOM      6  C   UNL     1       6.996  -0.057  -2.158  1.00  0.00     0.047 C 
BRANCH   6   7
ATOM      7  C   UNL     1       6.465   0.065  -0.775  1.00  0.00    -0.047 A 
ATOM      8  C   UNL     1       5.830   1.216  -0.351  1.00  0.00     0.004 A 
ATOM      9  C   UNL     1       6.576  -0.959   0.148  1.00  0.00     0.004 A 
ATOM     10  C   UNL     1       5.339   1.318   0.937  1.00  0.00     0.000 A 
ATOM     11  C   UNL     1       6.087  -0.859   1.431  1.00  0.00     0.000 A 
ATOM     12  C   UNL     1       5.454   0.293   1.853  1.00  0.00     0.000 A 
ENDBRANCH   6   7
ENDBRANCH   1   6
TORSDOF 4
ENDMDL
MODEL 3
REMARK VINA RESULT:      -7.1      0.815      1.755
REMARK SMILES O=C(O)CCc1ccccc1
REMARK SMILES IDX 4 1 2 2 1 3 3 4 5 6 6 7 7 8 11 9 8 10 10 11 9 12
REMARK H PARENT 3 5
REMARK Flexibility Score: inf
ROOT
ATOM      1  C   UNL     1       7.310  -1.372  -2.360  1.00  0.00     0.127 C 
ENDROOT
BRANCH   1   2
ATOM      2  C   UNL     1       8.777  -1.447  -2.584  1.00  0.00     0.303 C 
ATOM      3  O   UNL     1       9.514  -0.541  -2.123  1.00  0.00    -0.252 OA
BRANCH   2   4
ATOM      4  O   UNL     1       9.374  -2.489  -3.288  1.00  0.00    -0.481 OA
ATOM      5  H   UNL     1       9.538  -2.435  -4.305  1.00  0.00     0.296 HD
ENDBRANCH   2   4
ENDBRANCH   1   2
BRANCH   1   6
ATOM      6  C   UNL     1       6.982   0.047  -1.985  1.00  0.00     0.047 C 
BRANCH   6   7
ATOM      7  C   UNL     1       6.401   0.154  -0.621  1.00  0.00    -0.047 A 
ATOM      8  C   UNL     1       5.757   1.303  -0.206  1.00  0.00     0.004 A 
ATOM      9  C   UNL     1       6.475  -0.881   0.293  1.00  0.00     0.004 A 
ATOM     10  C   UNL     1       5.221   1.391   1.065  1.00  0.00     0.000 A 
ATOM     11  C   UNL     1       5.941  -0.795   1.559  1.00  0.00     0.000 A 
ATOM     12  C   UNL     1       5.298   0.354   1.972  1.00  0.00     0.000 A 
ENDBRANCH   6   7
ENDBRANCH   1   6
TORSDOF 4
ENDMDL
MODEL 4
REMARK VINA RESULT:      -6.8      3.387      5.090
REMARK SMILES O=C(O)CCc1ccccc1
REMARK SMILES IDX 4 1 2 2 1 3 3 4 5 6 6 7 7 8 11 9 8 10 10 11 9 12
REMARK H PARENT 3 5
REMARK Flexibility Score: inf
ROOT
ATOM      1  C   UNL     1       4.999   1.784   0.722  1.00  0.00     0.127 C 
ENDROOT
BRANCH   1   2
ATOM      2  C   UNL     1       4.457   1.110   1.931  1.00  0.00     0.303 C 
ATOM      3  O   UNL     1       5.127   0.201   2.477  1.00  0.00    -0.252 OA
BRANCH   2   4
ATOM      4  O   UNL     1       3.226   1.449   2.487  1.00  0.00    -0.481 OA
ATOM      5  H   UNL     1       3.077   2.348   2.970  1.00  0.00     0.296 HD
ENDBRANCH   2   4
ENDBRANCH   1   2
BRANCH   1   6
ATOM      6  C   UNL     1       6.499   1.755   0.822  1.00  0.00     0.047 C 
BRANCH   6   7
ATOM      7  C   UNL     1       7.128   1.014  -0.302  1.00  0.00    -0.047 A 
ATOM      8  C   UNL     1       6.413   0.090  -1.039  1.00  0.00     0.004 A 
ATOM      9  C   UNL     1       8.448   1.210  -0.665  1.00  0.00     0.004 A 
ATOM     10  C   UNL     1       7.008  -0.594  -2.082  1.00  0.00     0.000 A 
ATOM     11  C   UNL     1       9.043   0.530  -1.704  1.00  0.00     0.000 A 
ATOM     12  C   UNL     1       8.326  -0.393  -2.438  1.00  0.00     0.000 A 
ENDBRANCH   6   7
ENDBRANCH   1   6
TORSDOF 4
ENDMDL
MODEL 5
REMARK VINA RESULT:      -6.7      3.848      5.016
REMARK SMILES O=C(O)CCc1ccccc1
REMARK SMILES IDX 4 1 2 2 1 3 3 4 5 6 6 7 7 8 11 9 8 10 10 11 9 12
REMARK H PARENT 3 5
REMARK Flexibility Score: inf
ROOT
ATOM      1  C   UNL     1       5.431   2.929   0.018  1.00  0.00     0.127 C 
ENDROOT
BRANCH   1   2
ATOM      2  C   UNL     1       6.240   3.871   0.833  1.00  0.00     0.303 C 
ATOM      3  O   UNL     1       6.903   4.767   0.256  1.00  0.00    -0.252 OA
BRANCH   2   4
ATOM      4  O   UNL     1       6.294   3.802   2.223  1.00  0.00    -0.481 OA
ATOM      5  H   UNL     1       6.544   4.620   2.800  1.00  0.00     0.296 HD
ENDBRANCH   2   4
ENDBRANCH   1   2
BRANCH   1   6
ATOM      6  C   UNL     1       4.860   1.898   0.952  1.00  0.00     0.047 C 
BRANCH   6   7
ATOM      7  C   UNL     1       5.669   0.651   0.985  1.00  0.00    -0.047 A 
ATOM      8  C   UNL     1       6.386   0.234  -0.119  1.00  0.00     0.004 A 
ATOM      9  C   UNL     1       5.746  -0.146   2.112  1.00  0.00     0.004 A 
ATOM     10  C   UNL     1       7.135  -0.926  -0.078  1.00  0.00     0.000 A 
ATOM     11  C   UNL     1       6.492  -1.302   2.156  1.00  0.00     0.000 A 
ATOM     12  C   UNL     1       7.207  -1.717   1.051  1.00  0.00     0.000 A 
ENDBRANCH   6   7
ENDBRANCH   1   6
TORSDOF 4
ENDMDL
