@<TRIPOS>MOLECULE
/home/cewinharhar/GITHUB/reincatalyze/data/processed/docking_pred/2023-Apr-25-2033_maxeplen5_maxtrainstep200_exh16_gamma099_lrac3e-4_lrcr1e-3/1e20ac6c45a20644dde897fa0fc5711864bcd284_ligand_2.pdbqt
 12 12 0 0 0
SMALL
GASTEIGER

@<TRIPOS>ATOM
      1  C          8.4060   -0.5780   -2.1870 C.3     1  UNL1        0.1270
      2  C          8.3860   -1.8830   -2.8990 C.2     1  UNL1        0.3030
      3  O          7.2830   -2.3880   -3.2200 O.2     1  UNL1       -0.2520
      4  O          9.5490   -2.5740   -3.2270 O.3     1  UNL1       -0.4810
      5  H         10.2100   -2.9010   -2.5050 H       1  UNL1        0.2960
      6  C          6.9960   -0.0570   -2.1580 C.3     1  UNL1        0.0470
      7  C          6.4650    0.0650   -0.7750 C.2     1  UNL1       -0.0470
      8  C          5.8300    1.2160   -0.3510 C.2     1  UNL1        0.0040
      9  C          6.5760   -0.9590    0.1480 C.2     1  UNL1        0.0040
     10  C          5.3390    1.3180    0.9370 C.2     1  UNL1        0.0000
     11  C          6.0870   -0.8590    1.4310 C.2     1  UNL1        0.0000
     12  C          5.4540    0.2930    1.8530 C.2     1  UNL1        0.0000
@<TRIPOS>BOND
     1     4     2    1
     2     4     5    1
     3     3     2    2
     4     2     1    1
     5     1     6    1
     6     6     7    1
     7     7     8    2
     8     7     9    1
     9     8    10    1
    10     9    11    2
    11    10    12    2
    12    11    12    1
