@<TRIPOS>MOLECULE
/home/cewinharhar/GITHUB/reincatalyze/data/processed/docking_pred/2023-Apr-25-2033_maxeplen5_maxtrainstep200_exh16_gamma099_lrac3e-4_lrcr1e-3/1e20ac6c45a20644dde897fa0fc5711864bcd284_ligand_2.pdbqt
 12 12 0 0 0
SMALL
GASTEIGER

@<TRIPOS>ATOM
      1  C          8.4630   -0.6560   -2.1120 C.3     1  UNL1        0.1270
      2  C          8.4690   -1.9180   -2.8970 C.2     1  UNL1        0.3030
      3  O          9.5570   -2.5100   -3.0980 O.2     1  UNL1       -0.2520
      4  O          7.3060   -2.4760   -3.4230 O.3     1  UNL1       -0.4810
      5  H          7.2750   -2.8700   -4.3760 H       1  UNL1        0.2960
      6  C          7.0620   -0.1100   -2.1430 C.3     1  UNL1        0.0470
      7  C          6.4890    0.0570   -0.7810 C.2     1  UNL1       -0.0470
      8  C          6.5870   -0.9460    0.1640 C.2     1  UNL1        0.0040
      9  C          5.8350    1.2120   -0.3960 C.2     1  UNL1        0.0040
     10  C          6.0500   -0.7800    1.4270 C.2     1  UNL1        0.0000
     11  C          5.3000    1.3800    0.8620 C.2     1  UNL1        0.0000
     12  C          5.3980    0.3760    1.8050 C.2     1  UNL1        0.0000
@<TRIPOS>BOND
     1     5     4    1
     2     4     2    1
     3     3     2    2
     4     2     1    1
     5     6     1    1
     6     6     7    1
     7     7     9    2
     8     7     8    1
     9     9    11    1
    10     8    10    2
    11    11    12    2
    12    10    12    1
