@<TRIPOS>MOLECULE
/home/cewinharhar/GITHUB/reincatalyze/data/processed/docking_pred/2023-Apr-25-2033_maxeplen5_maxtrainstep200_exh16_gamma099_lrac3e-4_lrcr1e-3/1e20ac6c45a20644dde897fa0fc5711864bcd284_ligand_2.pdbqt
 12 12 0 0 0
SMALL
GASTEIGER

@<TRIPOS>ATOM
      1  C          5.4310    2.9290    0.0180 C.3     1  UNL1        0.1270
      2  C          6.2400    3.8710    0.8330 C.2     1  UNL1        0.3030
      3  O          6.9030    4.7670    0.2560 O.2     1  UNL1       -0.2520
      4  O          6.2940    3.8020    2.2230 O.3     1  UNL1       -0.4810
      5  H          6.5440    4.6200    2.8000 H       1  UNL1        0.2960
      6  C          4.8600    1.8980    0.9520 C.3     1  UNL1        0.0470
      7  C          5.6690    0.6510    0.9850 C.2     1  UNL1       -0.0470
      8  C          6.3860    0.2340   -0.1190 C.2     1  UNL1        0.0040
      9  C          5.7460   -0.1460    2.1120 C.2     1  UNL1        0.0040
     10  C          7.1350   -0.9260   -0.0780 C.2     1  UNL1        0.0000
     11  C          6.4920   -1.3020    2.1560 C.2     1  UNL1        0.0000
     12  C          7.2070   -1.7170    1.0510 C.2     1  UNL1        0.0000
@<TRIPOS>BOND
     1     8    10    1
     2     8     7    2
     3    10    12    2
     4     1     2    1
     5     1     6    1
     6     3     2    2
     7     2     4    1
     8     6     7    1
     9     7     9    1
    10    12    11    1
    11     9    11    2
    12     4     5    1
