@<TRIPOS>MOLECULE
/home/cewinharhar/GITHUB/reincatalyze/data/processed/docking_pred/2023-Apr-25-2033_maxeplen5_maxtrainstep200_exh16_gamma099_lrac3e-4_lrcr1e-3/1e20ac6c45a20644dde897fa0fc5711864bcd284_ligand_2.pdbqt
 12 12 0 0 0
SMALL
GASTEIGER

@<TRIPOS>ATOM
      1  C          4.9990    1.7840    0.7220 C.3     1  UNL1        0.1270
      2  C          4.4570    1.1100    1.9310 C.2     1  UNL1        0.3030
      3  O          5.1270    0.2010    2.4770 O.2     1  UNL1       -0.2520
      4  O          3.2260    1.4490    2.4870 O.3     1  UNL1       -0.4810
      5  H          3.0770    2.3480    2.9700 H       1  UNL1        0.2960
      6  C          6.4990    1.7550    0.8220 C.3     1  UNL1        0.0470
      7  C          7.1280    1.0140   -0.3020 C.2     1  UNL1       -0.0470
      8  C          6.4130    0.0900   -1.0390 C.2     1  UNL1        0.0040
      9  C          8.4480    1.2100   -0.6650 C.2     1  UNL1        0.0040
     10  C          7.0080   -0.5940   -2.0820 C.2     1  UNL1        0.0000
     11  C          9.0430    0.5300   -1.7040 C.2     1  UNL1        0.0000
     12  C          8.3260   -0.3930   -2.4380 C.2     1  UNL1        0.0000
@<TRIPOS>BOND
     1    12    10    2
     2    12    11    1
     3    10     8    1
     4    11     9    2
     5     8     7    2
     6     9     7    1
     7     7     6    1
     8     1     6    1
     9     1     2    1
    10     2     3    2
    11     2     4    1
    12     4     5    1
