@<TRIPOS>MOLECULE
/home/cewinharhar/GITHUB/reincatalyze/data/processed/docking_pred/2023-Apr-25-2033_maxeplen5_maxtrainstep200_exh16_gamma099_lrac3e-4_lrcr1e-3/1e20ac6c45a20644dde897fa0fc5711864bcd284_ligand_2.pdbqt
 12 12 0 0 0
SMALL
GASTEIGER

@<TRIPOS>ATOM
      1  C          7.3100   -1.3720   -2.3600 C.3     1  UNL1        0.1270
      2  C          8.7770   -1.4470   -2.5840 C.2     1  UNL1        0.3030
      3  O          9.5140   -0.5410   -2.1230 O.2     1  UNL1       -0.2520
      4  O          9.3740   -2.4890   -3.2880 O.3     1  UNL1       -0.4810
      5  H          9.5380   -2.4350   -4.3050 H       1  UNL1        0.2960
      6  C          6.9820    0.0470   -1.9850 C.3     1  UNL1        0.0470
      7  C          6.4010    0.1540   -0.6210 C.2     1  UNL1       -0.0470
      8  C          5.7570    1.3030   -0.2060 C.2     1  UNL1        0.0040
      9  C          6.4750   -0.8810    0.2930 C.2     1  UNL1        0.0040
     10  C          5.2210    1.3910    1.0650 C.2     1  UNL1        0.0000
     11  C          5.9410   -0.7950    1.5590 C.2     1  UNL1        0.0000
     12  C          5.2980    0.3540    1.9720 C.2     1  UNL1        0.0000
@<TRIPOS>BOND
     1     5     4    1
     2     4     2    1
     3     2     1    1
     4     2     3    2
     5     1     6    1
     6     6     7    1
     7     7     8    2
     8     7     9    1
     9     8    10    1
    10     9    11    2
    11    10    12    2
    12    11    12    1
