@<TRIPOS>MOLECULE
/home/cewinharhar/GITHUB/reincatalyze/data/processed/docking_pred/2023-Apr-25-2033_maxeplen5_maxtrainstep200_exh16_gamma099_lrac3e-4_lrcr1e-3/1e8ffecbec14ce573bf52adb8829230239be76a8_ligand_2.pdbqt
 12 12 0 0 0
SMALL
GASTEIGER

@<TRIPOS>ATOM
      1  C          8.4490   -0.5540   -2.2240 C.3     1  UNL1        0.1270
      2  C          8.4600   -1.8600   -2.9320 C.2     1  UNL1        0.3030
      3  O          9.5480   -2.4660   -3.0840 O.2     1  UNL1       -0.2520
      4  O          7.3020   -2.4450   -3.4380 O.3     1  UNL1       -0.4810
      5  H          7.0510   -3.4240   -3.2300 H       1  UNL1        0.2960
      6  C          7.0280   -0.0650   -2.1970 C.3     1  UNL1        0.0470
      7  C          6.4950    0.0570   -0.8150 C.2     1  UNL1       -0.0470
      8  C          5.8720    1.2140   -0.3880 C.2     1  UNL1        0.0040
      9  C          6.5940   -0.9710    0.1040 C.2     1  UNL1        0.0040
     10  C          5.3800    1.3160    0.9000 C.2     1  UNL1        0.0000
     11  C          6.1050   -0.8710    1.3880 C.2     1  UNL1        0.0000
     12  C          5.4830    0.2860    1.8120 C.2     1  UNL1        0.0000
@<TRIPOS>BOND
     1     4     5    1
     2     4     2    1
     3     3     2    2
     4     2     1    1
     5     1     6    1
     6     6     7    1
     7     7     8    2
     8     7     9    1
     9     8    10    1
    10     9    11    2
    11    10    12    2
    12    11    12    1
