@<TRIPOS>MOLECULE
/home/cewinharhar/GITHUB/reincatalyze/data/processed/docking_pred/2023-Apr-25-2033_maxeplen5_maxtrainstep200_exh16_gamma099_lrac3e-4_lrcr1e-3/1e8ffecbec14ce573bf52adb8829230239be76a8_ligand_2.pdbqt
 12 12 0 0 0
SMALL
GASTEIGER

@<TRIPOS>ATOM
      1  C          4.9860    1.7770    0.6880 C.3     1  UNL1        0.1270
      2  C          4.4670    1.1210    1.9160 C.2     1  UNL1        0.3030
      3  O          5.1560    0.2340    2.4740 O.2     1  UNL1       -0.2520
      4  O          3.2370    1.4530    2.4780 O.3     1  UNL1       -0.4810
      5  H          2.5650    0.7320    2.7830 H       1  UNL1        0.2960
      6  C          6.4870    1.7880    0.7810 C.3     1  UNL1        0.0470
      7  C          7.1290    1.0220   -0.3200 C.2     1  UNL1       -0.0470
      8  C          8.4550    1.2230   -0.6510 C.2     1  UNL1        0.0040
      9  C          6.4400    0.0800   -1.0600 C.2     1  UNL1        0.0040
     10  C          9.0430    0.5060   -1.6760 C.2     1  UNL1        0.0000
     11  C          7.0230   -0.6360   -2.0810 C.2     1  UNL1        0.0000
     12  C          8.3490   -0.4340   -2.4110 C.2     1  UNL1        0.0000
@<TRIPOS>BOND
     1    12    11    2
     2    12    10    1
     3    11     9    1
     4    10     8    2
     5     9     7    2
     6     8     7    1
     7     7     6    1
     8     1     6    1
     9     1     2    1
    10     2     3    2
    11     2     4    1
    12     4     5    1
