@<TRIPOS>MOLECULE
/home/cewinharhar/GITHUB/reincatalyze/data/processed/docking_pred/2023-Apr-25-2033_maxeplen5_maxtrainstep200_exh16_gamma099_lrac3e-4_lrcr1e-3/1e8ffecbec14ce573bf52adb8829230239be76a8_ligand_2.pdbqt
 12 12 0 0 0
SMALL
GASTEIGER

@<TRIPOS>ATOM
      1  C          8.4310   -0.6290   -2.1210 C.3     1  UNL1        0.1270
      2  C          8.4110   -1.9030   -2.8860 C.2     1  UNL1        0.3030
      3  O          7.3080   -2.4080   -3.2070 O.2     1  UNL1       -0.2520
      4  O          9.5760   -2.5640   -3.2660 O.3     1  UNL1       -0.4810
      5  H         10.0250   -3.2680   -2.6600 H       1  UNL1        0.2960
      6  C          7.0330   -0.0760   -2.1270 C.3     1  UNL1        0.0470
      7  C          6.4720    0.0660   -0.7580 C.2     1  UNL1       -0.0470
      8  C          6.5800   -0.9530    0.1680 C.2     1  UNL1        0.0040
      9  C          5.8220    1.2140   -0.3450 C.2     1  UNL1        0.0040
     10  C          6.0550   -0.8110    1.4390 C.2     1  UNL1        0.0000
     11  C          5.2980    1.3580    0.9200 C.2     1  UNL1        0.0000
     12  C          5.4060    0.3380    1.8440 C.2     1  UNL1        0.0000
@<TRIPOS>BOND
     1     4     2    1
     2     4     5    1
     3     3     2    2
     4     2     1    1
     5     6     1    1
     6     6     7    1
     7     7     9    2
     8     7     8    1
     9     9    11    1
    10     8    10    2
    11    11    12    2
    12    10    12    1
