@<TRIPOS>MOLECULE
/home/cewinharhar/GITHUB/reincatalyze/data/processed/docking_pred/2023-Apr-25-2033_maxeplen5_maxtrainstep200_exh16_gamma099_lrac3e-4_lrcr1e-3/1e8ffecbec14ce573bf52adb8829230239be76a8_ligand_2.pdbqt
 12 12 0 0 0
SMALL
GASTEIGER

@<TRIPOS>ATOM
      1  C          8.2820    0.1450   -2.1680 C.3     1  UNL1        0.1270
      2  C          9.4140    0.3470   -1.2280 C.2     1  UNL1        0.3030
      3  O          9.4950   -0.3730   -0.2030 O.2     1  UNL1       -0.2520
      4  O         10.3980    1.3090   -1.4390 O.3     1  UNL1       -0.4810
      5  H         10.2180    2.1600   -1.9940 H       1  UNL1        0.2960
      6  C          7.2350   -0.6610   -1.4500 C.3     1  UNL1        0.0470
      7  C          6.4140    0.1670   -0.5290 C.2     1  UNL1       -0.0470
      8  C          5.8740    1.3710   -0.9390 C.2     1  UNL1        0.0040
      9  C          6.1490   -0.2220    0.7710 C.2     1  UNL1        0.0040
     10  C          5.1110    2.1330   -0.0740 C.2     1  UNL1        0.0000
     11  C          5.3890    0.5360    1.6340 C.2     1  UNL1        0.0000
     12  C          4.8510    1.7390    1.2220 C.2     1  UNL1        0.0000
@<TRIPOS>BOND
     1     1     6    1
     2     1     2    1
     3     5     4    1
     4     6     7    1
     5     4     2    1
     6     2     3    2
     7     8     7    2
     8     8    10    1
     9     7     9    1
    10    10    12    2
    11     9    11    2
    12    12    11    1
