MODEL 1
REMARK VINA RESULT:      -7.3      0.000      0.000
REMARK SMILES O=C(O)CCc1ccccc1
REMARK SMILES IDX 4 1 2 2 1 3 3 4 5 6 6 7 7 8 11 9 8 10 10 11 9 12
REMARK H PARENT 3 5
REMARK Flexibility Score: inf
ROOT
ATOM      1  C   UNL     1       8.449  -0.554  -2.224  1.00  0.00     0.127 C 
ENDROOT
BRANCH   1   2
ATOM      2  C   UNL     1       8.460  -1.860  -2.932  1.00  0.00     0.303 C 
ATOM      3  O   UNL     1       9.548  -2.466  -3.084  1.00  0.00    -0.252 OA
BRANCH   2   4
ATOM      4  O   UNL     1       7.302  -2.445  -3.438  1.00  0.00    -0.481 OA
ATOM      5  H   UNL     1       7.051  -3.424  -3.230  1.00  0.00     0.296 HD
ENDBRANCH   2   4
ENDBRANCH   1   2
BRANCH   1   6
ATOM      6  C   UNL     1       7.028  -0.065  -2.197  1.00  0.00     0.047 C 
BRANCH   6   7
ATOM      7  C   UNL     1       6.495   0.057  -0.815  1.00  0.00    -0.047 A 
ATOM      8  C   UNL     1       5.872   1.214  -0.388  1.00  0.00     0.004 A 
ATOM      9  C   UNL     1       6.594  -0.971   0.104  1.00  0.00     0.004 A 
ATOM     10  C   UNL     1       5.380   1.316   0.900  1.00  0.00     0.000 A 
ATOM     11  C   UNL     1       6.105  -0.871   1.388  1.00  0.00     0.000 A 
ATOM     12  C   UNL     1       5.483   0.286   1.812  1.00  0.00     0.000 A 
ENDBRANCH   6   7
ENDBRANCH   1   6
TORSDOF 4
ENDMDL
MODEL 2
REMARK VINA RESULT:      -7.3      0.123      1.718
REMARK SMILES O=C(O)CCc1ccccc1
REMARK SMILES IDX 4 1 2 2 1 3 3 4 5 6 6 7 7 8 11 9 8 10 10 11 9 12
REMARK H PARENT 3 5
REMARK Flexibility Score: inf
ROOT
ATOM      1  C   UNL     1       8.431  -0.629  -2.121  1.00  0.00     0.127 C 
ENDROOT
BRANCH   1   2
ATOM      2  C   UNL     1       8.411  -1.903  -2.886  1.00  0.00     0.303 C 
ATOM      3  O   UNL     1       7.308  -2.408  -3.207  1.00  0.00    -0.252 OA
BRANCH   2   4
ATOM      4  O   UNL     1       9.576  -2.564  -3.266  1.00  0.00    -0.481 OA
ATOM      5  H   UNL     1      10.025  -3.268  -2.660  1.00  0.00     0.296 HD
ENDBRANCH   2   4
ENDBRANCH   1   2
BRANCH   1   6
ATOM      6  C   UNL     1       7.033  -0.076  -2.127  1.00  0.00     0.047 C 
BRANCH   6   7
ATOM      7  C   UNL     1       6.472   0.066  -0.758  1.00  0.00    -0.047 A 
ATOM      8  C   UNL     1       6.580  -0.953   0.168  1.00  0.00     0.004 A 
ATOM      9  C   UNL     1       5.822   1.214  -0.345  1.00  0.00     0.004 A 
ATOM     10  C   UNL     1       6.055  -0.811   1.439  1.00  0.00     0.000 A 
ATOM     11  C   UNL     1       5.298   1.358   0.920  1.00  0.00     0.000 A 
ATOM     12  C   UNL     1       5.406   0.338   1.844  1.00  0.00     0.000 A 
ENDBRANCH   6   7
ENDBRANCH   1   6
TORSDOF 4
ENDMDL
MODEL 3
REMARK VINA RESULT:      -6.8      3.386      5.063
REMARK SMILES O=C(O)CCc1ccccc1
REMARK SMILES IDX 4 1 2 2 1 3 3 4 5 6 6 7 7 8 11 9 8 10 10 11 9 12
REMARK H PARENT 3 5
REMARK Flexibility Score: inf
ROOT
ATOM      1  C   UNL     1       4.986   1.777   0.688  1.00  0.00     0.127 C 
ENDROOT
BRANCH   1   2
ATOM      2  C   UNL     1       4.467   1.121   1.916  1.00  0.00     0.303 C 
ATOM      3  O   UNL     1       5.156   0.234   2.474  1.00  0.00    -0.252 OA
BRANCH   2   4
ATOM      4  O   UNL     1       3.237   1.453   2.478  1.00  0.00    -0.481 OA
ATOM      5  H   UNL     1       2.565   0.732   2.783  1.00  0.00     0.296 HD
ENDBRANCH   2   4
ENDBRANCH   1   2
BRANCH   1   6
ATOM      6  C   UNL     1       6.487   1.788   0.781  1.00  0.00     0.047 C 
BRANCH   6   7
ATOM      7  C   UNL     1       7.129   1.022  -0.320  1.00  0.00    -0.047 A 
ATOM      8  C   UNL     1       8.455   1.223  -0.651  1.00  0.00     0.004 A 
ATOM      9  C   UNL     1       6.440   0.080  -1.060  1.00  0.00     0.004 A 
ATOM     10  C   UNL     1       9.043   0.506  -1.676  1.00  0.00     0.000 A 
ATOM     11  C   UNL     1       7.023  -0.636  -2.081  1.00  0.00     0.000 A 
ATOM     12  C   UNL     1       8.349  -0.434  -2.411  1.00  0.00     0.000 A 
ENDBRANCH   6   7
ENDBRANCH   1   6
TORSDOF 4
ENDMDL
MODEL 4
REMARK VINA RESULT:      -6.7      3.835      4.901
REMARK SMILES O=C(O)CCc1ccccc1
REMARK SMILES IDX 4 1 2 2 1 3 3 4 5 6 6 7 7 8 11 9 8 10 10 11 9 12
REMARK H PARENT 3 5
REMARK Flexibility Score: inf
ROOT
ATOM      1  C   UNL     1       5.517   2.877  -0.057  1.00  0.00     0.127 C 
ENDROOT
BRANCH   1   2
ATOM      2  C   UNL     1       6.265   3.840   0.792  1.00  0.00     0.303 C 
ATOM      3  O   UNL     1       6.901   4.773   0.246  1.00  0.00    -0.252 OA
BRANCH   2   4
ATOM      4  O   UNL     1       6.288   3.749   2.182  1.00  0.00    -0.481 OA
ATOM      5  H   UNL     1       6.964   4.282   2.751  1.00  0.00     0.296 HD
ENDBRANCH   2   4
ENDBRANCH   1   2
BRANCH   1   6
ATOM      6  C   UNL     1       4.904   1.850   0.854  1.00  0.00     0.047 C 
BRANCH   6   7
ATOM      7  C   UNL     1       5.706   0.600   0.923  1.00  0.00    -0.047 A 
ATOM      8  C   UNL     1       6.418   0.146  -0.171  1.00  0.00     0.004 A 
ATOM      9  C   UNL     1       5.780  -0.163   2.072  1.00  0.00     0.004 A 
ATOM     10  C   UNL     1       7.160  -1.017  -0.096  1.00  0.00     0.000 A 
ATOM     11  C   UNL     1       6.519  -1.323   2.149  1.00  0.00     0.000 A 
ATOM     12  C   UNL     1       7.229  -1.775   1.055  1.00  0.00     0.000 A 
ENDBRANCH   6   7
ENDBRANCH   1   6
TORSDOF 4
ENDMDL
MODEL 5
REMARK VINA RESULT:      -6.6      1.941      2.321
REMARK SMILES O=C(O)CCc1ccccc1
REMARK SMILES IDX 4 1 2 2 1 3 3 4 5 6 6 7 7 8 11 9 8 10 10 11 9 12
REMARK H PARENT 3 5
REMARK Flexibility Score: inf
ROOT
ATOM      1  C   UNL     1       8.282   0.145  -2.168  1.00  0.00     0.127 C 
ENDROOT
BRANCH   1   2
ATOM      2  C   UNL     1       9.414   0.347  -1.228  1.00  0.00     0.303 C 
ATOM      3  O   UNL     1       9.495  -0.373  -0.203  1.00  0.00    -0.252 OA
BRANCH   2   4
ATOM      4  O   UNL     1      10.398   1.309  -1.439  1.00  0.00    -0.481 OA
ATOM      5  H   UNL     1      10.218   2.160  -1.994  1.00  0.00     0.296 HD
ENDBRANCH   2   4
ENDBRANCH   1   2
BRANCH   1   6
ATOM      6  C   UNL     1       7.235  -0.661  -1.450  1.00  0.00     0.047 C 
BRANCH   6   7
ATOM      7  C   UNL     1       6.414   0.167  -0.529  1.00  0.00    -0.047 A 
ATOM      8  C   UNL     1       5.874   1.371  -0.939  1.00  0.00     0.004 A 
ATOM      9  C   UNL     1       6.149  -0.222   0.771  1.00  0.00     0.004 A 
ATOM     10  C   UNL     1       5.111   2.133  -0.074  1.00  0.00     0.000 A 
ATOM     11  C   UNL     1       5.389   0.536   1.634  1.00  0.00     0.000 A 
ATOM     12  C   UNL     1       4.851   1.739   1.222  1.00  0.00     0.000 A 
ENDBRANCH   6   7
ENDBRANCH   1   6
TORSDOF 4
ENDMDL
