@<TRIPOS>MOLECULE
/home/cewinharhar/GITHUB/reincatalyze/data/processed/docking_pred/2023-Apr-25-2033_maxeplen5_maxtrainstep200_exh16_gamma099_lrac3e-4_lrcr1e-3/1f53ccdef65850680f3a99c865464637782ca6a5_ligand_2.pdbqt
 12 12 0 0 0
SMALL
GASTEIGER

@<TRIPOS>ATOM
      1  C          4.9720    1.7910    0.6930 C.3     1  UNL1        0.1270
      2  C          4.4550    1.1240    1.9170 C.2     1  UNL1        0.3030
      3  O          5.1450    0.2310    2.4650 O.2     1  UNL1       -0.2520
      4  O          3.2270    1.4520    2.4840 O.3     1  UNL1       -0.4810
      5  H          2.8720    2.4210    2.4910 H       1  UNL1        0.2960
      6  C          6.4730    1.8120    0.7890 C.3     1  UNL1        0.0470
      7  C          7.1220    1.0600   -0.3170 C.2     1  UNL1       -0.0470
      8  C          6.4070    0.1680   -1.0920 C.2     1  UNL1        0.0040
      9  C          8.4610    1.2150   -0.6250 C.2     1  UNL1        0.0040
     10  C          7.0210   -0.5250   -2.1180 C.2     1  UNL1        0.0000
     11  C          9.0750    0.5250   -1.6460 C.2     1  UNL1        0.0000
     12  C          8.3580   -0.3660   -2.4190 C.2     1  UNL1        0.0000
@<TRIPOS>BOND
     1    12    10    2
     2    12    11    1
     3    10     8    1
     4    11     9    2
     5     8     7    2
     6     9     7    1
     7     7     6    1
     8     1     6    1
     9     1     2    1
    10     2     3    2
    11     2     4    1
    12     4     5    1
