@<TRIPOS>MOLECULE
/home/cewinharhar/GITHUB/reincatalyze/data/processed/docking_pred/2023-Apr-25-2033_maxeplen5_maxtrainstep200_exh16_gamma099_lrac3e-4_lrcr1e-3/1f53ccdef65850680f3a99c865464637782ca6a5_ligand_2.pdbqt
 12 12 0 0 0
SMALL
GASTEIGER

@<TRIPOS>ATOM
      1  C          8.2640    0.2450   -2.1620 C.3     1  UNL1        0.1270
      2  C          9.4050    0.3850   -1.2210 C.2     1  UNL1        0.3030
      3  O          9.4790   -0.3810   -0.2300 O.2     1  UNL1       -0.2520
      4  O         10.4040    1.3390   -1.3950 O.3     1  UNL1       -0.4810
      5  H         10.1930    2.2970   -1.7140 H       1  UNL1        0.2960
      6  C          7.2100   -0.5800   -1.4760 C.3     1  UNL1        0.0470
      7  C          6.3860    0.2220   -0.5350 C.2     1  UNL1       -0.0470
      8  C          5.8380    1.4320   -0.9150 C.2     1  UNL1        0.0040
      9  C          6.1260   -0.1990    0.7570 C.2     1  UNL1        0.0040
     10  C          5.0730    2.1690   -0.0310 C.2     1  UNL1        0.0000
     11  C          5.3640    0.5340    1.6390 C.2     1  UNL1        0.0000
     12  C          4.8190    1.7430    1.2570 C.2     1  UNL1        0.0000
@<TRIPOS>BOND
     1     1     6    1
     2     1     2    1
     3     5     4    1
     4     6     7    1
     5     4     2    1
     6     2     3    2
     7     8     7    2
     8     8    10    1
     9     7     9    1
    10    10    12    2
    11     9    11    2
    12    12    11    1
