@<TRIPOS>MOLECULE
/home/cewinharhar/GITHUB/reincatalyze/data/processed/docking_pred/2023-Apr-25-2033_maxeplen5_maxtrainstep200_exh16_gamma099_lrac3e-4_lrcr1e-3/1f53ccdef65850680f3a99c865464637782ca6a5_ligand_2.pdbqt
 12 12 0 0 0
SMALL
GASTEIGER

@<TRIPOS>ATOM
      1  C          5.4800    2.9260   -0.0160 C.3     1  UNL1        0.1270
      2  C          6.2710    3.8650    0.8220 C.2     1  UNL1        0.3030
      3  O          6.9320    4.7750    0.2650 O.2     1  UNL1       -0.2520
      4  O          6.3100    3.7750    2.2110 O.3     1  UNL1       -0.4810
      5  H          5.8410    4.4690    2.8140 H       1  UNL1        0.2960
      6  C          4.8880    1.8910    0.9000 C.3     1  UNL1        0.0470
      7  C          5.6900    0.6400    0.9350 C.2     1  UNL1       -0.0470
      8  C          6.3920    0.2080   -0.1730 C.2     1  UNL1        0.0040
      9  C          5.7740   -0.1470    2.0690 C.2     1  UNL1        0.0040
     10  C          7.1340   -0.9570   -0.1290 C.2     1  UNL1        0.0000
     11  C          6.5130   -1.3080    2.1150 C.2     1  UNL1        0.0000
     12  C          7.2130   -1.7380    1.0060 C.2     1  UNL1        0.0000
@<TRIPOS>BOND
     1     8    10    1
     2     8     7    2
     3    10    12    2
     4     1     2    1
     5     1     6    1
     6     3     2    2
     7     2     4    1
     8     6     7    1
     9     7     9    1
    10    12    11    1
    11     9    11    2
    12     4     5    1
