@<TRIPOS>MOLECULE
/home/cewinharhar/GITHUB/reincatalyze/data/processed/docking_pred/2023-Apr-25-2033_maxeplen5_maxtrainstep200_exh16_gamma099_lrac3e-4_lrcr1e-3/1f53ccdef65850680f3a99c865464637782ca6a5_ligand_2.pdbqt
 12 12 0 0 0
SMALL
GASTEIGER

@<TRIPOS>ATOM
      1  C          8.4360   -0.6260   -2.1200 C.3     1  UNL1        0.1270
      2  C          8.4130   -1.9000   -2.8840 C.2     1  UNL1        0.3030
      3  O          7.3090   -2.4000   -3.2080 O.2     1  UNL1       -0.2520
      4  O          9.5770   -2.5660   -3.2600 O.3     1  UNL1       -0.4810
      5  H         10.3660   -2.6940   -2.6080 H       1  UNL1        0.2960
      6  C          7.0390   -0.0700   -2.1250 C.3     1  UNL1        0.0470
      7  C          6.4770    0.0650   -0.7550 C.2     1  UNL1       -0.0470
      8  C          5.8250    1.2170   -0.3600 C.2     1  UNL1        0.0040
      9  C          6.5760   -0.9450    0.1830 C.2     1  UNL1        0.0040
     10  C          5.3060    1.3320    0.9150 C.2     1  UNL1        0.0000
     11  C          6.0590   -0.8320    1.4550 C.2     1  UNL1        0.0000
     12  C          5.4080    0.3200    1.8470 C.2     1  UNL1        0.0000
@<TRIPOS>BOND
     1     4     2    1
     2     4     5    1
     3     3     2    2
     4     2     1    1
     5     6     1    1
     6     6     7    1
     7     7     8    2
     8     7     9    1
     9     8    10    1
    10     9    11    2
    11    10    12    2
    12    11    12    1
