MODEL 1
REMARK VINA RESULT:      -7.3      0.000      0.000
REMARK SMILES O=C(O)CCc1ccccc1
REMARK SMILES IDX 4 1 2 2 1 3 3 4 5 6 6 7 7 8 11 9 8 10 10 11 9 12
REMARK H PARENT 3 5
REMARK Flexibility Score: inf
ROOT
ATOM      1  C   UNL     1       8.424  -0.556  -2.224  1.00  0.00     0.127 C 
ENDROOT
BRANCH   1   2
ATOM      2  C   UNL     1       8.444  -1.865  -2.927  1.00  0.00     0.303 C 
ATOM      3  O   UNL     1       9.538  -2.457  -3.089  1.00  0.00    -0.252 OA
BRANCH   2   4
ATOM      4  O   UNL     1       7.288  -2.468  -3.417  1.00  0.00    -0.481 OA
ATOM      5  H   UNL     1       6.446  -1.920  -3.651  1.00  0.00     0.296 HD
ENDBRANCH   2   4
ENDBRANCH   1   2
BRANCH   1   6
ATOM      6  C   UNL     1       6.998  -0.081  -2.192  1.00  0.00     0.047 C 
BRANCH   6   7
ATOM      7  C   UNL     1       6.476   0.054  -0.807  1.00  0.00    -0.047 A 
ATOM      8  C   UNL     1       6.596  -0.974   0.107  1.00  0.00     0.004 A 
ATOM      9  C   UNL     1       5.850   1.206  -0.366  1.00  0.00     0.004 A 
ATOM     10  C   UNL     1       6.107  -0.838   1.392  1.00  0.00     0.000 A 
ATOM     11  C   UNL     1       5.362   1.344   0.914  1.00  0.00     0.000 A 
ATOM     12  C   UNL     1       5.483   0.314   1.825  1.00  0.00     0.000 A 
ENDBRANCH   6   7
ENDBRANCH   1   6
TORSDOF 4
ENDMDL
MODEL 2
REMARK VINA RESULT:      -7.3      0.115      1.718
REMARK SMILES O=C(O)CCc1ccccc1
REMARK SMILES IDX 4 1 2 2 1 3 3 4 5 6 6 7 7 8 11 9 8 10 10 11 9 12
REMARK H PARENT 3 5
REMARK Flexibility Score: inf
ROOT
ATOM      1  C   UNL     1       8.436  -0.626  -2.120  1.00  0.00     0.127 C 
ENDROOT
BRANCH   1   2
ATOM      2  C   UNL     1       8.413  -1.900  -2.884  1.00  0.00     0.303 C 
ATOM      3  O   UNL     1       7.309  -2.400  -3.208  1.00  0.00    -0.252 OA
BRANCH   2   4
ATOM      4  O   UNL     1       9.577  -2.566  -3.260  1.00  0.00    -0.481 OA
ATOM      5  H   UNL     1      10.366  -2.694  -2.608  1.00  0.00     0.296 HD
ENDBRANCH   2   4
ENDBRANCH   1   2
BRANCH   1   6
ATOM      6  C   UNL     1       7.039  -0.070  -2.125  1.00  0.00     0.047 C 
BRANCH   6   7
ATOM      7  C   UNL     1       6.477   0.065  -0.755  1.00  0.00    -0.047 A 
ATOM      8  C   UNL     1       5.825   1.217  -0.360  1.00  0.00     0.004 A 
ATOM      9  C   UNL     1       6.576  -0.945   0.183  1.00  0.00     0.004 A 
ATOM     10  C   UNL     1       5.306   1.332   0.915  1.00  0.00     0.000 A 
ATOM     11  C   UNL     1       6.059  -0.832   1.455  1.00  0.00     0.000 A 
ATOM     12  C   UNL     1       5.408   0.320   1.847  1.00  0.00     0.000 A 
ENDBRANCH   6   7
ENDBRANCH   1   6
TORSDOF 4
ENDMDL
MODEL 3
REMARK VINA RESULT:      -6.8      3.385      5.076
REMARK SMILES O=C(O)CCc1ccccc1
REMARK SMILES IDX 4 1 2 2 1 3 3 4 5 6 6 7 7 8 11 9 8 10 10 11 9 12
REMARK H PARENT 3 5
REMARK Flexibility Score: inf
ROOT
ATOM      1  C   UNL     1       4.972   1.791   0.693  1.00  0.00     0.127 C 
ENDROOT
BRANCH   1   2
ATOM      2  C   UNL     1       4.455   1.124   1.917  1.00  0.00     0.303 C 
ATOM      3  O   UNL     1       5.145   0.231   2.465  1.00  0.00    -0.252 OA
BRANCH   2   4
ATOM      4  O   UNL     1       3.227   1.452   2.484  1.00  0.00    -0.481 OA
ATOM      5  H   UNL     1       2.872   2.421   2.491  1.00  0.00     0.296 HD
ENDBRANCH   2   4
ENDBRANCH   1   2
BRANCH   1   6
ATOM      6  C   UNL     1       6.473   1.812   0.789  1.00  0.00     0.047 C 
BRANCH   6   7
ATOM      7  C   UNL     1       7.122   1.060  -0.317  1.00  0.00    -0.047 A 
ATOM      8  C   UNL     1       6.407   0.168  -1.092  1.00  0.00     0.004 A 
ATOM      9  C   UNL     1       8.461   1.215  -0.625  1.00  0.00     0.004 A 
ATOM     10  C   UNL     1       7.021  -0.525  -2.118  1.00  0.00     0.000 A 
ATOM     11  C   UNL     1       9.075   0.525  -1.646  1.00  0.00     0.000 A 
ATOM     12  C   UNL     1       8.358  -0.366  -2.419  1.00  0.00     0.000 A 
ENDBRANCH   6   7
ENDBRANCH   1   6
TORSDOF 4
ENDMDL
MODEL 4
REMARK VINA RESULT:      -6.7      3.831      4.968
REMARK SMILES O=C(O)CCc1ccccc1
REMARK SMILES IDX 4 1 2 2 1 3 3 4 5 6 6 7 7 8 11 9 8 10 10 11 9 12
REMARK H PARENT 3 5
REMARK Flexibility Score: inf
ROOT
ATOM      1  C   UNL     1       5.480   2.926  -0.016  1.00  0.00     0.127 C 
ENDROOT
BRANCH   1   2
ATOM      2  C   UNL     1       6.271   3.865   0.822  1.00  0.00     0.303 C 
ATOM      3  O   UNL     1       6.932   4.775   0.265  1.00  0.00    -0.252 OA
BRANCH   2   4
ATOM      4  O   UNL     1       6.310   3.775   2.211  1.00  0.00    -0.481 OA
ATOM      5  H   UNL     1       5.841   4.469   2.814  1.00  0.00     0.296 HD
ENDBRANCH   2   4
ENDBRANCH   1   2
BRANCH   1   6
ATOM      6  C   UNL     1       4.888   1.891   0.900  1.00  0.00     0.047 C 
BRANCH   6   7
ATOM      7  C   UNL     1       5.690   0.640   0.935  1.00  0.00    -0.047 A 
ATOM      8  C   UNL     1       6.392   0.208  -0.173  1.00  0.00     0.004 A 
ATOM      9  C   UNL     1       5.774  -0.147   2.069  1.00  0.00     0.004 A 
ATOM     10  C   UNL     1       7.134  -0.957  -0.129  1.00  0.00     0.000 A 
ATOM     11  C   UNL     1       6.513  -1.308   2.115  1.00  0.00     0.000 A 
ATOM     12  C   UNL     1       7.213  -1.738   1.006  1.00  0.00     0.000 A 
ENDBRANCH   6   7
ENDBRANCH   1   6
TORSDOF 4
ENDMDL
MODEL 5
REMARK VINA RESULT:      -6.6      1.943      2.665
REMARK SMILES O=C(O)CCc1ccccc1
REMARK SMILES IDX 4 1 2 2 1 3 3 4 5 6 6 7 7 8 11 9 8 10 10 11 9 12
REMARK H PARENT 3 5
REMARK Flexibility Score: inf
ROOT
ATOM      1  C   UNL     1       8.264   0.245  -2.162  1.00  0.00     0.127 C 
ENDROOT
BRANCH   1   2
ATOM      2  C   UNL     1       9.405   0.385  -1.221  1.00  0.00     0.303 C 
ATOM      3  O   UNL     1       9.479  -0.381  -0.230  1.00  0.00    -0.252 OA
BRANCH   2   4
ATOM      4  O   UNL     1      10.404   1.339  -1.395  1.00  0.00    -0.481 OA
ATOM      5  H   UNL     1      10.193   2.297  -1.714  1.00  0.00     0.296 HD
ENDBRANCH   2   4
ENDBRANCH   1   2
BRANCH   1   6
ATOM      6  C   UNL     1       7.210  -0.580  -1.476  1.00  0.00     0.047 C 
BRANCH   6   7
ATOM      7  C   UNL     1       6.386   0.222  -0.535  1.00  0.00    -0.047 A 
ATOM      8  C   UNL     1       5.838   1.432  -0.915  1.00  0.00     0.004 A 
ATOM      9  C   UNL     1       6.126  -0.199   0.757  1.00  0.00     0.004 A 
ATOM     10  C   UNL     1       5.073   2.169  -0.031  1.00  0.00     0.000 A 
ATOM     11  C   UNL     1       5.364   0.534   1.639  1.00  0.00     0.000 A 
ATOM     12  C   UNL     1       4.819   1.743   1.257  1.00  0.00     0.000 A 
ENDBRANCH   6   7
ENDBRANCH   1   6
TORSDOF 4
ENDMDL
