@<TRIPOS>MOLECULE
/home/cewinharhar/GITHUB/reincatalyze/data/processed/docking_pred/2023-Apr-25-2033_maxeplen5_maxtrainstep200_exh16_gamma099_lrac3e-4_lrcr1e-3/1f53ccdef65850680f3a99c865464637782ca6a5_ligand_2.pdbqt
 12 12 0 0 0
SMALL
GASTEIGER

@<TRIPOS>ATOM
      1  C          8.4240   -0.5560   -2.2240 C.3     1  UNL1        0.1270
      2  C          8.4440   -1.8650   -2.9270 C.2     1  UNL1        0.3030
      3  O          9.5380   -2.4570   -3.0890 O.2     1  UNL1       -0.2520
      4  O          7.2880   -2.4680   -3.4170 O.3     1  UNL1       -0.4810
      5  H          6.4460   -1.9200   -3.6510 H       1  UNL1        0.2960
      6  C          6.9980   -0.0810   -2.1920 C.3     1  UNL1        0.0470
      7  C          6.4760    0.0540   -0.8070 C.2     1  UNL1       -0.0470
      8  C          6.5960   -0.9740    0.1070 C.2     1  UNL1        0.0040
      9  C          5.8500    1.2060   -0.3660 C.2     1  UNL1        0.0040
     10  C          6.1070   -0.8380    1.3920 C.2     1  UNL1        0.0000
     11  C          5.3620    1.3440    0.9140 C.2     1  UNL1        0.0000
     12  C          5.4830    0.3140    1.8250 C.2     1  UNL1        0.0000
@<TRIPOS>BOND
     1     5     4    1
     2     4     2    1
     3     3     2    2
     4     2     1    1
     5     1     6    1
     6     6     7    1
     7     7     9    2
     8     7     8    1
     9     9    11    1
    10     8    10    2
    11    11    12    2
    12    10    12    1
