@<TRIPOS>MOLECULE
/home/cewinharhar/GITHUB/reincatalyze/data/processed/docking_pred/2023-Apr-25-2033_maxeplen5_maxtrainstep200_exh16_gamma099_lrac3e-4_lrcr1e-3/2037f81c995398ea407fbfc0a5ecaefc5001139a_ligand_2.pdbqt
 12 12 0 0 0
SMALL
GASTEIGER

@<TRIPOS>ATOM
      1  C          8.4460   -0.6720   -2.0480 C.3     1  UNL1        0.1270
      2  C          8.4180   -1.9110   -2.8670 C.2     1  UNL1        0.3030
      3  O          7.3110   -2.4020   -3.1980 O.2     1  UNL1       -0.2520
      4  O          9.5780   -2.5550   -3.2880 O.3     1  UNL1       -0.4810
      5  H         10.4050   -2.0300   -3.6130 H       1  UNL1        0.2960
      6  C          7.0710   -0.0640   -2.1000 C.3     1  UNL1        0.0470
      7  C          6.4720    0.0990   -0.7490 C.2     1  UNL1       -0.0470
      8  C          5.8010    1.2550   -0.3990 C.2     1  UNL1        0.0040
      9  C          6.5530   -0.8880    0.2150 C.2     1  UNL1        0.0040
     10  C          5.2470    1.3960    0.8590 C.2     1  UNL1        0.0000
     11  C          6.0020   -0.7490    1.4700 C.2     1  UNL1        0.0000
     12  C          5.3320    0.4070    1.8170 C.2     1  UNL1        0.0000
@<TRIPOS>BOND
     1     5     4    1
     2     4     2    1
     3     3     2    2
     4     2     1    1
     5     6     1    1
     6     6     7    1
     7     7     8    2
     8     7     9    1
     9     8    10    1
    10     9    11    2
    11    10    12    2
    12    11    12    1
