@<TRIPOS>MOLECULE
/home/cewinharhar/GITHUB/reincatalyze/data/processed/docking_pred/2023-Apr-25-2033_maxeplen5_maxtrainstep200_exh16_gamma099_lrac3e-4_lrcr1e-3/2037f81c995398ea407fbfc0a5ecaefc5001139a_ligand_2.pdbqt
 12 12 0 0 0
SMALL
GASTEIGER

@<TRIPOS>ATOM
      1  C          8.1610   -1.5370    1.1600 C.3     1  UNL1        0.1270
      2  C          8.4640   -2.7390    0.3400 C.2     1  UNL1        0.3030
      3  O          9.1020   -3.6880    0.8570 O.2     1  UNL1       -0.2520
      4  O          8.0670   -2.8560   -0.9900 O.3     1  UNL1       -0.4810
      5  H          7.4500   -3.6190   -1.3080 H       1  UNL1        0.2960
      6  C          6.6660   -1.4440    1.2890 C.3     1  UNL1        0.0470
      7  C          6.1300   -0.1600    0.7640 C.2     1  UNL1       -0.0470
      8  C          6.3620    0.2320   -0.5400 C.2     1  UNL1        0.0040
      9  C          5.3790    0.6980    1.5450 C.2     1  UNL1        0.0040
     10  C          5.8590    1.4270   -1.0180 C.2     1  UNL1        0.0000
     11  C          4.8770    1.8890    1.0710 C.2     1  UNL1        0.0000
     12  C          5.1110    2.2790   -0.2320 C.2     1  UNL1        0.0000
@<TRIPOS>BOND
     1     5     4    1
     2    10     8    1
     3    10    12    2
     4     4     2    1
     5     8     7    2
     6    12    11    1
     7     2     3    2
     8     2     1    1
     9     7     6    1
    10     7     9    1
    11    11     9    2
    12     1     6    1
