@<TRIPOS>MOLECULE
/home/cewinharhar/GITHUB/reincatalyze/data/processed/docking_pred/2023-Apr-25-2033_maxeplen5_maxtrainstep200_exh16_gamma099_lrac3e-4_lrcr1e-3/2037f81c995398ea407fbfc0a5ecaefc5001139a_ligand_2.pdbqt
 12 12 0 0 0
SMALL
GASTEIGER

@<TRIPOS>ATOM
      1  C          4.9820    1.8070    0.6930 C.3     1  UNL1        0.1270
      2  C          4.4720    1.1340    1.9160 C.2     1  UNL1        0.3030
      3  O          5.1740    0.2510    2.4660 O.2     1  UNL1       -0.2520
      4  O          3.2390    1.4450    2.4810 O.3     1  UNL1       -0.4810
      5  H          2.7530    0.7970    3.1200 H       1  UNL1        0.2960
      6  C          6.4830    1.8260    0.7790 C.3     1  UNL1        0.0470
      7  C          7.1240    1.0570   -0.3200 C.2     1  UNL1       -0.0470
      8  C          8.4590    1.2310   -0.6300 C.2     1  UNL1        0.0040
      9  C          6.4250    0.1380   -1.0790 C.2     1  UNL1        0.0040
     10  C          9.0450    0.5110   -1.6540 C.2     1  UNL1        0.0000
     11  C          7.0070   -0.5810   -2.1000 C.2     1  UNL1        0.0000
     12  C          8.3410   -0.4050   -2.4080 C.2     1  UNL1        0.0000
@<TRIPOS>BOND
     1    12    11    2
     2    12    10    1
     3    11     9    1
     4    10     8    2
     5     9     7    2
     6     8     7    1
     7     7     6    1
     8     1     6    1
     9     1     2    1
    10     2     3    2
    11     2     4    1
    12     4     5    1
