@<TRIPOS>MOLECULE
/home/cewinharhar/GITHUB/reincatalyze/data/processed/docking_pred/2023-Apr-25-2033_maxeplen5_maxtrainstep200_exh16_gamma099_lrac3e-4_lrcr1e-3/2037f81c995398ea407fbfc0a5ecaefc5001139a_ligand_2.pdbqt
 12 12 0 0 0
SMALL
GASTEIGER

@<TRIPOS>ATOM
      1  C          5.4170    2.9130    0.0130 C.3     1  UNL1        0.1270
      2  C          6.2200    3.8740    0.8130 C.2     1  UNL1        0.3030
      3  O          6.8850    4.7580    0.2220 O.2     1  UNL1       -0.2520
      4  O          6.2650    3.8330    2.2040 O.3     1  UNL1       -0.4810
      5  H          6.7470    4.5600    2.7550 H       1  UNL1        0.2960
      6  C          4.8630    1.8860    0.9610 C.3     1  UNL1        0.0470
      7  C          5.6720    0.6380    0.9820 C.2     1  UNL1       -0.0470
      8  C          6.3890    0.2310   -0.1260 C.2     1  UNL1        0.0040
      9  C          5.7480   -0.1690    2.1020 C.2     1  UNL1        0.0040
     10  C          7.1370   -0.9300   -0.0950 C.2     1  UNL1        0.0000
     11  C          6.4930   -1.3270    2.1350 C.2     1  UNL1        0.0000
     12  C          7.2080   -1.7310    1.0250 C.2     1  UNL1        0.0000
@<TRIPOS>BOND
     1     8    10    1
     2     8     7    2
     3    10    12    2
     4     1     2    1
     5     1     6    1
     6     3     2    2
     7     2     4    1
     8     6     7    1
     9     7     9    1
    10    12    11    1
    11     9    11    2
    12     4     5    1
