MODEL 1
REMARK VINA RESULT:      -7.3      0.000      0.000
REMARK SMILES O=C(O)CCc1ccccc1
REMARK SMILES IDX 4 1 2 2 1 3 3 4 5 6 6 7 7 8 11 9 8 10 10 11 9 12
REMARK H PARENT 3 5
REMARK Flexibility Score: inf
ROOT
ATOM      1  C   UNL     1       8.446  -0.672  -2.048  1.00  0.00     0.127 C 
ENDROOT
BRANCH   1   2
ATOM      2  C   UNL     1       8.418  -1.911  -2.867  1.00  0.00     0.303 C 
ATOM      3  O   UNL     1       7.311  -2.402  -3.198  1.00  0.00    -0.252 OA
BRANCH   2   4
ATOM      4  O   UNL     1       9.578  -2.555  -3.288  1.00  0.00    -0.481 OA
ATOM      5  H   UNL     1      10.405  -2.030  -3.613  1.00  0.00     0.296 HD
ENDBRANCH   2   4
ENDBRANCH   1   2
BRANCH   1   6
ATOM      6  C   UNL     1       7.071  -0.064  -2.100  1.00  0.00     0.047 C 
BRANCH   6   7
ATOM      7  C   UNL     1       6.472   0.099  -0.749  1.00  0.00    -0.047 A 
ATOM      8  C   UNL     1       5.801   1.255  -0.399  1.00  0.00     0.004 A 
ATOM      9  C   UNL     1       6.553  -0.888   0.215  1.00  0.00     0.004 A 
ATOM     10  C   UNL     1       5.247   1.396   0.859  1.00  0.00     0.000 A 
ATOM     11  C   UNL     1       6.002  -0.749   1.470  1.00  0.00     0.000 A 
ATOM     12  C   UNL     1       5.332   0.407   1.817  1.00  0.00     0.000 A 
ENDBRANCH   6   7
ENDBRANCH   1   6
TORSDOF 4
ENDMDL
MODEL 2
REMARK VINA RESULT:      -7.2      0.060      1.420
REMARK SMILES O=C(O)CCc1ccccc1
REMARK SMILES IDX 4 1 2 2 1 3 3 4 5 6 6 7 7 8 11 9 8 10 10 11 9 12
REMARK H PARENT 3 5
REMARK Flexibility Score: inf
ROOT
ATOM      1  C   UNL     1       8.439  -0.625  -2.126  1.00  0.00     0.127 C 
ENDROOT
BRANCH   1   2
ATOM      2  C   UNL     1       8.417  -1.902  -2.886  1.00  0.00     0.303 C 
ATOM      3  O   UNL     1       7.313  -2.406  -3.205  1.00  0.00    -0.252 OA
BRANCH   2   4
ATOM      4  O   UNL     1       9.581  -2.568  -3.262  1.00  0.00    -0.481 OA
ATOM      5  H   UNL     1      10.222  -2.183  -3.972  1.00  0.00     0.296 HD
ENDBRANCH   2   4
ENDBRANCH   1   2
BRANCH   1   6
ATOM      6  C   UNL     1       7.042  -0.068  -2.138  1.00  0.00     0.047 C 
BRANCH   6   7
ATOM      7  C   UNL     1       6.477   0.079  -0.771  1.00  0.00    -0.047 A 
ATOM      8  C   UNL     1       6.584  -0.936   0.160  1.00  0.00     0.004 A 
ATOM      9  C   UNL     1       5.824   1.227  -0.365  1.00  0.00     0.004 A 
ATOM     10  C   UNL     1       6.056  -0.789   1.428  1.00  0.00     0.000 A 
ATOM     11  C   UNL     1       5.296   1.376   0.899  1.00  0.00     0.000 A 
ATOM     12  C   UNL     1       5.404   0.360   1.827  1.00  0.00     0.000 A 
ENDBRANCH   6   7
ENDBRANCH   1   6
TORSDOF 4
ENDMDL
MODEL 3
REMARK VINA RESULT:      -6.8      3.301      5.161
REMARK SMILES O=C(O)CCc1ccccc1
REMARK SMILES IDX 4 1 2 2 1 3 3 4 5 6 6 7 7 8 11 9 8 10 10 11 9 12
REMARK H PARENT 3 5
REMARK Flexibility Score: inf
ROOT
ATOM      1  C   UNL     1       4.982   1.807   0.693  1.00  0.00     0.127 C 
ENDROOT
BRANCH   1   2
ATOM      2  C   UNL     1       4.472   1.134   1.916  1.00  0.00     0.303 C 
ATOM      3  O   UNL     1       5.174   0.251   2.466  1.00  0.00    -0.252 OA
BRANCH   2   4
ATOM      4  O   UNL     1       3.239   1.445   2.481  1.00  0.00    -0.481 OA
ATOM      5  H   UNL     1       2.753   0.797   3.120  1.00  0.00     0.296 HD
ENDBRANCH   2   4
ENDBRANCH   1   2
BRANCH   1   6
ATOM      6  C   UNL     1       6.483   1.826   0.779  1.00  0.00     0.047 C 
BRANCH   6   7
ATOM      7  C   UNL     1       7.124   1.057  -0.320  1.00  0.00    -0.047 A 
ATOM      8  C   UNL     1       8.459   1.231  -0.630  1.00  0.00     0.004 A 
ATOM      9  C   UNL     1       6.425   0.138  -1.079  1.00  0.00     0.004 A 
ATOM     10  C   UNL     1       9.045   0.511  -1.654  1.00  0.00     0.000 A 
ATOM     11  C   UNL     1       7.007  -0.581  -2.100  1.00  0.00     0.000 A 
ATOM     12  C   UNL     1       8.341  -0.405  -2.408  1.00  0.00     0.000 A 
ENDBRANCH   6   7
ENDBRANCH   1   6
TORSDOF 4
ENDMDL
MODEL 4
REMARK VINA RESULT:      -6.6      3.821      4.963
REMARK SMILES O=C(O)CCc1ccccc1
REMARK SMILES IDX 4 1 2 2 1 3 3 4 5 6 6 7 7 8 11 9 8 10 10 11 9 12
REMARK H PARENT 3 5
REMARK Flexibility Score: inf
ROOT
ATOM      1  C   UNL     1       5.417   2.913   0.013  1.00  0.00     0.127 C 
ENDROOT
BRANCH   1   2
ATOM      2  C   UNL     1       6.220   3.874   0.813  1.00  0.00     0.303 C 
ATOM      3  O   UNL     1       6.885   4.758   0.222  1.00  0.00    -0.252 OA
BRANCH   2   4
ATOM      4  O   UNL     1       6.265   3.833   2.204  1.00  0.00    -0.481 OA
ATOM      5  H   UNL     1       6.747   4.560   2.755  1.00  0.00     0.296 HD
ENDBRANCH   2   4
ENDBRANCH   1   2
BRANCH   1   6
ATOM      6  C   UNL     1       4.863   1.886   0.961  1.00  0.00     0.047 C 
BRANCH   6   7
ATOM      7  C   UNL     1       5.672   0.638   0.982  1.00  0.00    -0.047 A 
ATOM      8  C   UNL     1       6.389   0.231  -0.126  1.00  0.00     0.004 A 
ATOM      9  C   UNL     1       5.748  -0.169   2.102  1.00  0.00     0.004 A 
ATOM     10  C   UNL     1       7.137  -0.930  -0.095  1.00  0.00     0.000 A 
ATOM     11  C   UNL     1       6.493  -1.327   2.135  1.00  0.00     0.000 A 
ATOM     12  C   UNL     1       7.208  -1.731   1.025  1.00  0.00     0.000 A 
ENDBRANCH   6   7
ENDBRANCH   1   6
TORSDOF 4
ENDMDL
MODEL 5
REMARK VINA RESULT:      -6.6      1.902      2.925
REMARK SMILES O=C(O)CCc1ccccc1
REMARK SMILES IDX 4 1 2 2 1 3 3 4 5 6 6 7 7 8 11 9 8 10 10 11 9 12
REMARK H PARENT 3 5
REMARK Flexibility Score: inf
ROOT
ATOM      1  C   UNL     1       8.161  -1.537   1.160  1.00  0.00     0.127 C 
ENDROOT
BRANCH   1   2
ATOM      2  C   UNL     1       8.464  -2.739   0.340  1.00  0.00     0.303 C 
ATOM      3  O   UNL     1       9.102  -3.688   0.857  1.00  0.00    -0.252 OA
BRANCH   2   4
ATOM      4  O   UNL     1       8.067  -2.856  -0.990  1.00  0.00    -0.481 OA
ATOM      5  H   UNL     1       7.450  -3.619  -1.308  1.00  0.00     0.296 HD
ENDBRANCH   2   4
ENDBRANCH   1   2
BRANCH   1   6
ATOM      6  C   UNL     1       6.666  -1.444   1.289  1.00  0.00     0.047 C 
BRANCH   6   7
ATOM      7  C   UNL     1       6.130  -0.160   0.764  1.00  0.00    -0.047 A 
ATOM      8  C   UNL     1       6.362   0.232  -0.540  1.00  0.00     0.004 A 
ATOM      9  C   UNL     1       5.379   0.698   1.545  1.00  0.00     0.004 A 
ATOM     10  C   UNL     1       5.859   1.427  -1.018  1.00  0.00     0.000 A 
ATOM     11  C   UNL     1       4.877   1.889   1.071  1.00  0.00     0.000 A 
ATOM     12  C   UNL     1       5.111   2.279  -0.232  1.00  0.00     0.000 A 
ENDBRANCH   6   7
ENDBRANCH   1   6
TORSDOF 4
ENDMDL
