@<TRIPOS>MOLECULE
/home/cewinharhar/GITHUB/reincatalyze/data/processed/docking_pred/2023-Apr-25-2033_maxeplen5_maxtrainstep200_exh16_gamma099_lrac3e-4_lrcr1e-3/2037f81c995398ea407fbfc0a5ecaefc5001139a_ligand_2.pdbqt
 12 12 0 0 0
SMALL
GASTEIGER

@<TRIPOS>ATOM
      1  C          8.4390   -0.6250   -2.1260 C.3     1  UNL1        0.1270
      2  C          8.4170   -1.9020   -2.8860 C.2     1  UNL1        0.3030
      3  O          7.3130   -2.4060   -3.2050 O.2     1  UNL1       -0.2520
      4  O          9.5810   -2.5680   -3.2620 O.3     1  UNL1       -0.4810
      5  H         10.2220   -2.1830   -3.9720 H       1  UNL1        0.2960
      6  C          7.0420   -0.0680   -2.1380 C.3     1  UNL1        0.0470
      7  C          6.4770    0.0790   -0.7710 C.2     1  UNL1       -0.0470
      8  C          6.5840   -0.9360    0.1600 C.2     1  UNL1        0.0040
      9  C          5.8240    1.2270   -0.3650 C.2     1  UNL1        0.0040
     10  C          6.0560   -0.7890    1.4280 C.2     1  UNL1        0.0000
     11  C          5.2960    1.3760    0.8990 C.2     1  UNL1        0.0000
     12  C          5.4040    0.3600    1.8270 C.2     1  UNL1        0.0000
@<TRIPOS>BOND
     1     5     4    1
     2     4     2    1
     3     3     2    2
     4     2     1    1
     5     6     1    1
     6     6     7    1
     7     7     9    2
     8     7     8    1
     9     9    11    1
    10     8    10    2
    11    11    12    2
    12    10    12    1
