@<TRIPOS>MOLECULE
/home/cewinharhar/GITHUB/reincatalyze/data/processed/docking_pred/2023-Apr-25-2033_maxeplen5_maxtrainstep200_exh16_gamma099_lrac3e-4_lrcr1e-3/22478e644e92021fed45641255b53d2cc77f0790_ligand_2.pdbqt
 12 12 0 0 0
SMALL
GASTEIGER

@<TRIPOS>ATOM
      1  C          8.4540   -0.6720   -2.0560 C.3     1  UNL1        0.1270
      2  C          8.4220   -1.9200   -2.8610 C.2     1  UNL1        0.3030
      3  O          7.3140   -2.4000   -3.2020 O.2     1  UNL1       -0.2520
      4  O          9.5800   -2.5850   -3.2560 O.3     1  UNL1       -0.4810
      5  H         10.0120   -3.3180   -2.6740 H       1  UNL1        0.2960
      6  C          7.0780   -0.0670   -2.1020 C.3     1  UNL1        0.0470
      7  C          6.4840    0.0950   -0.7490 C.2     1  UNL1       -0.0470
      8  C          5.8030    1.2460   -0.4000 C.2     1  UNL1        0.0040
      9  C          6.5800   -0.8870    0.2190 C.2     1  UNL1        0.0040
     10  C          5.2550    1.3870    0.8600 C.2     1  UNL1        0.0000
     11  C          6.0340   -0.7490    1.4760 C.2     1  UNL1        0.0000
     12  C          5.3550    0.4020    1.8220 C.2     1  UNL1        0.0000
@<TRIPOS>BOND
     1     4     2    1
     2     4     5    1
     3     3     2    2
     4     2     1    1
     5     6     1    1
     6     6     7    1
     7     7     8    2
     8     7     9    1
     9     8    10    1
    10     9    11    2
    11    10    12    2
    12    11    12    1
