@<TRIPOS>MOLECULE
/home/cewinharhar/GITHUB/reincatalyze/data/processed/docking_pred/2023-Apr-25-2033_maxeplen5_maxtrainstep200_exh16_gamma099_lrac3e-4_lrcr1e-3/22478e644e92021fed45641255b53d2cc77f0790_ligand_2.pdbqt
 12 12 0 0 0
SMALL
GASTEIGER

@<TRIPOS>ATOM
      1  C          4.9900    1.8010    0.7260 C.3     1  UNL1        0.1270
      2  C          4.4520    1.1220    1.9330 C.2     1  UNL1        0.3030
      3  O          5.1270    0.2160    2.4780 O.2     1  UNL1       -0.2520
      4  O          3.2190    1.4530    2.4890 O.3     1  UNL1       -0.4810
      5  H          2.4300    1.7780    1.9100 H       1  UNL1        0.2960
      6  C          6.4900    1.7790    0.8260 C.3     1  UNL1        0.0470
      7  C          7.1230    1.0360   -0.2950 C.2     1  UNL1       -0.0470
      8  C          6.4040    0.1270   -1.0470 C.2     1  UNL1        0.0040
      9  C          8.4500    1.2150   -0.6400 C.2     1  UNL1        0.0040
     10  C          7.0020   -0.5590   -2.0870 C.2     1  UNL1        0.0000
     11  C          9.0480    0.5330   -1.6760 C.2     1  UNL1        0.0000
     12  C          8.3270   -0.3750   -2.4250 C.2     1  UNL1        0.0000
@<TRIPOS>BOND
     1    12    10    2
     2    12    11    1
     3    10     8    1
     4    11     9    2
     5     8     7    2
     6     9     7    1
     7     7     6    1
     8     1     6    1
     9     1     2    1
    10     5     4    1
    11     2     3    2
    12     2     4    1
