@<TRIPOS>MOLECULE
/home/cewinharhar/GITHUB/reincatalyze/data/processed/docking_pred/2023-Apr-25-2033_maxeplen5_maxtrainstep200_exh16_gamma099_lrac3e-4_lrcr1e-3/22478e644e92021fed45641255b53d2cc77f0790_ligand_2.pdbqt
 12 12 0 0 0
SMALL
GASTEIGER

@<TRIPOS>ATOM
      1  C          8.3790   -0.8800   -1.9430 C.3     1  UNL1        0.1270
      2  C          8.4460   -2.0290   -2.8820 C.2     1  UNL1        0.3030
      3  O          9.5590   -2.5530   -3.1310 O.2     1  UNL1       -0.2520
      4  O          7.3150   -2.5540   -3.5020 O.3     1  UNL1       -0.4810
      5  H          6.3800   -2.1380   -3.3710 H       1  UNL1        0.2960
      6  C          7.6840   -1.3540   -0.6960 C.3     1  UNL1        0.0470
      7  C          6.7650   -0.3290   -0.1350 C.2     1  UNL1       -0.0470
      8  C          6.2390   -0.4600    1.1360 C.2     1  UNL1        0.0040
      9  C          6.3950    0.7960   -0.8470 C.2     1  UNL1        0.0040
     10  C          5.3860    0.4990    1.6480 C.2     1  UNL1        0.0000
     11  C          5.5450    1.7530   -0.3390 C.2     1  UNL1        0.0000
     12  C          5.0200    1.6190    0.9310 C.2     1  UNL1        0.0000
@<TRIPOS>BOND
     1     4     5    1
     2     4     2    1
     3     3     2    2
     4     2     1    1
     5     1     6    1
     6     9    11    1
     7     9     7    2
     8     6     7    1
     9    11    12    2
    10     7     8    1
    11    12    10    1
    12     8    10    2
