MODEL 1
REMARK VINA RESULT:      -7.3      0.000      0.000
REMARK SMILES O=C(O)CCc1ccccc1
REMARK SMILES IDX 4 1 2 2 1 3 3 4 5 6 6 7 7 8 11 9 8 10 10 11 9 12
REMARK H PARENT 3 5
REMARK Flexibility Score: inf
ROOT
ATOM      1  C   UNL     1       8.435  -0.539  -2.248  1.00  0.00     0.127 C 
ENDROOT
BRANCH   1   2
ATOM      2  C   UNL     1       8.462  -1.857  -2.933  1.00  0.00     0.303 C 
ATOM      3  O   UNL     1       9.559  -2.448  -3.080  1.00  0.00    -0.252 OA
BRANCH   2   4
ATOM      4  O   UNL     1       7.311  -2.469  -3.421  1.00  0.00    -0.481 OA
ATOM      5  H   UNL     1       6.858  -2.159  -4.294  1.00  0.00     0.296 HD
ENDBRANCH   2   4
ENDBRANCH   1   2
BRANCH   1   6
ATOM      6  C   UNL     1       7.005  -0.075  -2.215  1.00  0.00     0.047 C 
BRANCH   6   7
ATOM      7  C   UNL     1       6.482   0.053  -0.829  1.00  0.00    -0.047 A 
ATOM      8  C   UNL     1       6.594  -0.984   0.077  1.00  0.00     0.004 A 
ATOM      9  C   UNL     1       5.863   1.205  -0.380  1.00  0.00     0.004 A 
ATOM     10  C   UNL     1       6.104  -0.854   1.362  1.00  0.00     0.000 A 
ATOM     11  C   UNL     1       5.375   1.337   0.900  1.00  0.00     0.000 A 
ATOM     12  C   UNL     1       5.488   0.299   1.803  1.00  0.00     0.000 A 
ENDBRANCH   6   7
ENDBRANCH   1   6
TORSDOF 4
ENDMDL
MODEL 2
REMARK VINA RESULT:      -7.3      0.167      1.720
REMARK SMILES O=C(O)CCc1ccccc1
REMARK SMILES IDX 4 1 2 2 1 3 3 4 5 6 6 7 7 8 11 9 8 10 10 11 9 12
REMARK H PARENT 3 5
REMARK Flexibility Score: inf
ROOT
ATOM      1  C   UNL     1       8.454  -0.672  -2.056  1.00  0.00     0.127 C 
ENDROOT
BRANCH   1   2
ATOM      2  C   UNL     1       8.422  -1.920  -2.861  1.00  0.00     0.303 C 
ATOM      3  O   UNL     1       7.314  -2.400  -3.202  1.00  0.00    -0.252 OA
BRANCH   2   4
ATOM      4  O   UNL     1       9.580  -2.585  -3.256  1.00  0.00    -0.481 OA
ATOM      5  H   UNL     1      10.012  -3.318  -2.674  1.00  0.00     0.296 HD
ENDBRANCH   2   4
ENDBRANCH   1   2
BRANCH   1   6
ATOM      6  C   UNL     1       7.078  -0.067  -2.102  1.00  0.00     0.047 C 
BRANCH   6   7
ATOM      7  C   UNL     1       6.484   0.095  -0.749  1.00  0.00    -0.047 A 
ATOM      8  C   UNL     1       5.803   1.246  -0.400  1.00  0.00     0.004 A 
ATOM      9  C   UNL     1       6.580  -0.887   0.219  1.00  0.00     0.004 A 
ATOM     10  C   UNL     1       5.255   1.387   0.860  1.00  0.00     0.000 A 
ATOM     11  C   UNL     1       6.034  -0.749   1.476  1.00  0.00     0.000 A 
ATOM     12  C   UNL     1       5.355   0.402   1.822  1.00  0.00     0.000 A 
ENDBRANCH   6   7
ENDBRANCH   1   6
TORSDOF 4
ENDMDL
MODEL 3
REMARK VINA RESULT:      -7.1      0.664      1.147
REMARK SMILES O=C(O)CCc1ccccc1
REMARK SMILES IDX 4 1 2 2 1 3 3 4 5 6 6 7 7 8 11 9 8 10 10 11 9 12
REMARK H PARENT 3 5
REMARK Flexibility Score: inf
ROOT
ATOM      1  C   UNL     1       8.379  -0.880  -1.943  1.00  0.00     0.127 C 
ENDROOT
BRANCH   1   2
ATOM      2  C   UNL     1       8.446  -2.029  -2.882  1.00  0.00     0.303 C 
ATOM      3  O   UNL     1       9.559  -2.553  -3.131  1.00  0.00    -0.252 OA
BRANCH   2   4
ATOM      4  O   UNL     1       7.315  -2.554  -3.502  1.00  0.00    -0.481 OA
ATOM      5  H   UNL     1       6.380  -2.138  -3.371  1.00  0.00     0.296 HD
ENDBRANCH   2   4
ENDBRANCH   1   2
BRANCH   1   6
ATOM      6  C   UNL     1       7.684  -1.354  -0.696  1.00  0.00     0.047 C 
BRANCH   6   7
ATOM      7  C   UNL     1       6.765  -0.329  -0.135  1.00  0.00    -0.047 A 
ATOM      8  C   UNL     1       6.239  -0.460   1.136  1.00  0.00     0.004 A 
ATOM      9  C   UNL     1       6.395   0.796  -0.847  1.00  0.00     0.004 A 
ATOM     10  C   UNL     1       5.386   0.499   1.648  1.00  0.00     0.000 A 
ATOM     11  C   UNL     1       5.545   1.753  -0.339  1.00  0.00     0.000 A 
ATOM     12  C   UNL     1       5.020   1.619   0.931  1.00  0.00     0.000 A 
ENDBRANCH   6   7
ENDBRANCH   1   6
TORSDOF 4
ENDMDL
MODEL 4
REMARK VINA RESULT:      -7.0      0.989      1.905
REMARK SMILES O=C(O)CCc1ccccc1
REMARK SMILES IDX 4 1 2 2 1 3 3 4 5 6 6 7 7 8 11 9 8 10 10 11 9 12
REMARK H PARENT 3 5
REMARK Flexibility Score: inf
ROOT
ATOM      1  C   UNL     1       7.310  -1.195  -2.277  1.00  0.00     0.127 C 
ENDROOT
BRANCH   1   2
ATOM      2  C   UNL     1       8.765  -1.348  -2.537  1.00  0.00     0.303 C 
ATOM      3  O   UNL     1       9.564  -0.502  -2.066  1.00  0.00    -0.252 OA
BRANCH   2   4
ATOM      4  O   UNL     1       9.284  -2.401  -3.286  1.00  0.00    -0.481 OA
ATOM      5  H   UNL     1       9.286  -2.386  -4.318  1.00  0.00     0.296 HD
ENDBRANCH   2   4
ENDBRANCH   1   2
BRANCH   1   6
ATOM      6  C   UNL     1       7.088  -1.404  -0.805  1.00  0.00     0.047 C 
BRANCH   6   7
ATOM      7  C   UNL     1       6.362  -0.271  -0.174  1.00  0.00    -0.047 A 
ATOM      8  C   UNL     1       6.102   0.891  -0.874  1.00  0.00     0.004 A 
ATOM      9  C   UNL     1       5.913  -0.323   1.133  1.00  0.00     0.004 A 
ATOM     10  C   UNL     1       5.426   1.938  -0.277  1.00  0.00     0.000 A 
ATOM     11  C   UNL     1       5.238   0.719   1.730  1.00  0.00     0.000 A 
ATOM     12  C   UNL     1       4.981   1.880   1.028  1.00  0.00     0.000 A 
ENDBRANCH   6   7
ENDBRANCH   1   6
TORSDOF 4
ENDMDL
MODEL 5
REMARK VINA RESULT:      -6.8      3.392      5.076
REMARK SMILES O=C(O)CCc1ccccc1
REMARK SMILES IDX 4 1 2 2 1 3 3 4 5 6 6 7 7 8 11 9 8 10 10 11 9 12
REMARK H PARENT 3 5
REMARK Flexibility Score: inf
ROOT
ATOM      1  C   UNL     1       4.990   1.801   0.726  1.00  0.00     0.127 C 
ENDROOT
BRANCH   1   2
ATOM      2  C   UNL     1       4.452   1.122   1.933  1.00  0.00     0.303 C 
ATOM      3  O   UNL     1       5.127   0.216   2.478  1.00  0.00    -0.252 OA
BRANCH   2   4
ATOM      4  O   UNL     1       3.219   1.453   2.489  1.00  0.00    -0.481 OA
ATOM      5  H   UNL     1       2.430   1.778   1.910  1.00  0.00     0.296 HD
ENDBRANCH   2   4
ENDBRANCH   1   2
BRANCH   1   6
ATOM      6  C   UNL     1       6.490   1.779   0.826  1.00  0.00     0.047 C 
BRANCH   6   7
ATOM      7  C   UNL     1       7.123   1.036  -0.295  1.00  0.00    -0.047 A 
ATOM      8  C   UNL     1       6.404   0.127  -1.047  1.00  0.00     0.004 A 
ATOM      9  C   UNL     1       8.450   1.215  -0.640  1.00  0.00     0.004 A 
ATOM     10  C   UNL     1       7.002  -0.559  -2.087  1.00  0.00     0.000 A 
ATOM     11  C   UNL     1       9.048   0.533  -1.676  1.00  0.00     0.000 A 
ATOM     12  C   UNL     1       8.327  -0.375  -2.425  1.00  0.00     0.000 A 
ENDBRANCH   6   7
ENDBRANCH   1   6
TORSDOF 4
ENDMDL
