@<TRIPOS>MOLECULE
/home/cewinharhar/GITHUB/reincatalyze/data/processed/docking_pred/2023-Apr-25-2033_maxeplen5_maxtrainstep200_exh16_gamma099_lrac3e-4_lrcr1e-3/22478e644e92021fed45641255b53d2cc77f0790_ligand_2.pdbqt
 12 12 0 0 0
SMALL
GASTEIGER

@<TRIPOS>ATOM
      1  C          7.3100   -1.1950   -2.2770 C.3     1  UNL1        0.1270
      2  C          8.7650   -1.3480   -2.5370 C.2     1  UNL1        0.3030
      3  O          9.5640   -0.5020   -2.0660 O.2     1  UNL1       -0.2520
      4  O          9.2840   -2.4010   -3.2860 O.3     1  UNL1       -0.4810
      5  H          9.2860   -2.3860   -4.3180 H       1  UNL1        0.2960
      6  C          7.0880   -1.4040   -0.8050 C.3     1  UNL1        0.0470
      7  C          6.3620   -0.2710   -0.1740 C.2     1  UNL1       -0.0470
      8  C          6.1020    0.8910   -0.8740 C.2     1  UNL1        0.0040
      9  C          5.9130   -0.3230    1.1330 C.2     1  UNL1        0.0040
     10  C          5.4260    1.9380   -0.2770 C.2     1  UNL1        0.0000
     11  C          5.2380    0.7190    1.7300 C.2     1  UNL1        0.0000
     12  C          4.9810    1.8800    1.0280 C.2     1  UNL1        0.0000
@<TRIPOS>BOND
     1     5     4    1
     2     4     2    1
     3     2     1    1
     4     2     3    2
     5     1     6    1
     6     8    10    1
     7     8     7    2
     8     6     7    1
     9    10    12    2
    10     7     9    1
    11    12    11    1
    12     9    11    2
