@<TRIPOS>MOLECULE
/home/cewinharhar/GITHUB/reincatalyze/data/processed/docking_pred/2023-Apr-25-2033_maxeplen5_maxtrainstep200_exh16_gamma099_lrac3e-4_lrcr1e-3/22478e644e92021fed45641255b53d2cc77f0790_ligand_2.pdbqt
 12 12 0 0 0
SMALL
GASTEIGER

@<TRIPOS>ATOM
      1  C          8.4350   -0.5390   -2.2480 C.3     1  UNL1        0.1270
      2  C          8.4620   -1.8570   -2.9330 C.2     1  UNL1        0.3030
      3  O          9.5590   -2.4480   -3.0800 O.2     1  UNL1       -0.2520
      4  O          7.3110   -2.4690   -3.4210 O.3     1  UNL1       -0.4810
      5  H          6.8580   -2.1590   -4.2940 H       1  UNL1        0.2960
      6  C          7.0050   -0.0750   -2.2150 C.3     1  UNL1        0.0470
      7  C          6.4820    0.0530   -0.8290 C.2     1  UNL1       -0.0470
      8  C          6.5940   -0.9840    0.0770 C.2     1  UNL1        0.0040
      9  C          5.8630    1.2050   -0.3800 C.2     1  UNL1        0.0040
     10  C          6.1040   -0.8540    1.3620 C.2     1  UNL1        0.0000
     11  C          5.3750    1.3370    0.9000 C.2     1  UNL1        0.0000
     12  C          5.4880    0.2990    1.8030 C.2     1  UNL1        0.0000
@<TRIPOS>BOND
     1     5     4    1
     2     4     2    1
     3     3     2    2
     4     2     1    1
     5     1     6    1
     6     6     7    1
     7     7     9    2
     8     7     8    1
     9     9    11    1
    10     8    10    2
    11    11    12    2
    12    10    12    1
