@<TRIPOS>MOLECULE
/home/cewinharhar/GITHUB/reincatalyze/data/processed/docking_pred/2023-Apr-25-2033_maxeplen5_maxtrainstep200_exh16_gamma099_lrac3e-4_lrcr1e-3/225d7738cc918e3754e3779366d54ccb252183f1_ligand_2.pdbqt
 12 12 0 0 0
SMALL
GASTEIGER

@<TRIPOS>ATOM
      1  C          8.4330   -0.6220   -2.1280 C.3     1  UNL1        0.1270
      2  C          8.4110   -1.9090   -2.8710 C.2     1  UNL1        0.3030
      3  O          7.3070   -2.4070   -3.1990 O.2     1  UNL1       -0.2520
      4  O          9.5730   -2.5890   -3.2220 O.3     1  UNL1       -0.4810
      5  H         10.4750   -2.4010   -2.7580 H       1  UNL1        0.2960
      6  C          7.0360   -0.0650   -2.1450 C.3     1  UNL1        0.0470
      7  C          6.4710    0.0900   -0.7790 C.2     1  UNL1       -0.0470
      8  C          6.5710   -0.9220    0.1560 C.2     1  UNL1        0.0040
      9  C          5.8240    1.2440   -0.3770 C.2     1  UNL1        0.0040
     10  C          6.0420   -0.7680    1.4230 C.2     1  UNL1        0.0000
     11  C          5.2960    1.4000    0.8850 C.2     1  UNL1        0.0000
     12  C          5.3970    0.3870    1.8170 C.2     1  UNL1        0.0000
@<TRIPOS>BOND
     1     4     2    1
     2     4     5    1
     3     3     2    2
     4     2     1    1
     5     6     1    1
     6     6     7    1
     7     7     9    2
     8     7     8    1
     9     9    11    1
    10     8    10    2
    11    11    12    2
    12    10    12    1
