@<TRIPOS>MOLECULE
/home/cewinharhar/GITHUB/reincatalyze/data/processed/docking_pred/2023-Apr-25-2033_maxeplen5_maxtrainstep200_exh16_gamma099_lrac3e-4_lrcr1e-3/225d7738cc918e3754e3779366d54ccb252183f1_ligand_2.pdbqt
 12 12 0 0 0
SMALL
GASTEIGER

@<TRIPOS>ATOM
      1  C          8.2590    0.1690   -2.2410 C.3     1  UNL1        0.1270
      2  C          9.3790    0.3340   -1.2780 C.2     1  UNL1        0.3030
      3  O          9.4370   -0.4150   -0.2730 O.2     1  UNL1       -0.2520
      4  O         10.3750    1.2930   -1.4470 O.3     1  UNL1       -0.4810
      5  H         10.1630    2.2430   -1.7870 H       1  UNL1        0.2960
      6  C          7.1730   -0.6020   -1.5440 C.3     1  UNL1        0.0470
      7  C          6.3710    0.2510   -0.6270 C.2     1  UNL1       -0.0470
      8  C          5.8480    1.4590   -1.0470 C.2     1  UNL1        0.0040
      9  C          6.1100   -0.1170    0.6800 C.2     1  UNL1        0.0040
     10  C          5.1050    2.2430   -0.1860 C.2     1  UNL1        0.0000
     11  C          5.3700    0.6630    1.5390 C.2     1  UNL1        0.0000
     12  C          4.8480    1.8700    1.1170 C.2     1  UNL1        0.0000
@<TRIPOS>BOND
     1     1     6    1
     2     1     2    1
     3     5     4    1
     4     6     7    1
     5     4     2    1
     6     2     3    2
     7     8     7    2
     8     8    10    1
     9     7     9    1
    10    10    12    2
    11     9    11    2
    12    12    11    1
