@<TRIPOS>MOLECULE
/home/cewinharhar/GITHUB/reincatalyze/data/processed/docking_pred/2023-Apr-25-2033_maxeplen5_maxtrainstep200_exh16_gamma099_lrac3e-4_lrcr1e-3/225d7738cc918e3754e3779366d54ccb252183f1_ligand_2.pdbqt
 12 12 0 0 0
SMALL
GASTEIGER

@<TRIPOS>ATOM
      1  C          4.9990    1.7940    0.6900 C.3     1  UNL1        0.1270
      2  C          4.4770    1.1270    1.9110 C.2     1  UNL1        0.3030
      3  O          5.1660    0.2370    2.4650 O.2     1  UNL1       -0.2520
      4  O          3.2440    1.4530    2.4700 O.3     1  UNL1       -0.4810
      5  H          2.5440    2.0110    1.9580 H       1  UNL1        0.2960
      6  C          6.5000    1.7940    0.7810 C.3     1  UNL1        0.0470
      7  C          7.1360    1.0260   -0.3220 C.2     1  UNL1       -0.0470
      8  C          8.4610    1.2210   -0.6580 C.2     1  UNL1        0.0040
      9  C          6.4400    0.0870   -1.0610 C.2     1  UNL1        0.0040
     10  C          9.0420    0.5020   -1.6850 C.2     1  UNL1        0.0000
     11  C          7.0170   -0.6300   -2.0850 C.2     1  UNL1        0.0000
     12  C          8.3420   -0.4330   -2.4190 C.2     1  UNL1        0.0000
@<TRIPOS>BOND
     1    12    11    2
     2    12    10    1
     3    11     9    1
     4    10     8    2
     5     9     7    2
     6     8     7    1
     7     7     6    1
     8     1     6    1
     9     1     2    1
    10     2     3    2
    11     2     4    1
    12     5     4    1
