@<TRIPOS>MOLECULE
/home/cewinharhar/GITHUB/reincatalyze/data/processed/docking_pred/2023-Apr-25-2033_maxeplen5_maxtrainstep200_exh16_gamma099_lrac3e-4_lrcr1e-3/225d7738cc918e3754e3779366d54ccb252183f1_ligand_2.pdbqt
 12 12 0 0 0
SMALL
GASTEIGER

@<TRIPOS>ATOM
      1  C          5.3250    2.9530    0.0570 C.3     1  UNL1        0.1270
      2  C          6.2110    3.8490    0.8450 C.2     1  UNL1        0.3030
      3  O          6.8640    4.7410    0.2510 O.2     1  UNL1       -0.2520
      4  O          6.3470    3.7400    2.2260 O.3     1  UNL1       -0.4810
      5  H          7.0420    3.1110    2.6560 H       1  UNL1        0.2960
      6  C          5.2220    1.6510    0.8000 C.3     1  UNL1        0.0470
      7  C          6.0190    0.5690    0.1630 C.2     1  UNL1       -0.0470
      8  C          6.3250    0.6040   -1.1830 C.2     1  UNL1        0.0040
      9  C          6.4910   -0.5150    0.8790 C.2     1  UNL1        0.0040
     10  C          7.0670   -0.4060   -1.7650 C.2     1  UNL1        0.0000
     11  C          7.2300   -1.5230    0.3020 C.2     1  UNL1        0.0000
     12  C          7.5340   -1.4860   -1.0440 C.2     1  UNL1        0.0000
@<TRIPOS>BOND
     1    10     8    1
     2    10    12    2
     3     8     7    2
     4    12    11    1
     5     1     6    1
     6     1     2    1
     7     7     6    1
     8     7     9    1
     9     3     2    2
    10    11     9    2
    11     2     4    1
    12     4     5    1
