@<TRIPOS>MOLECULE
/home/cewinharhar/GITHUB/reincatalyze/data/processed/docking_pred/2023-Apr-25-2033_maxeplen5_maxtrainstep200_exh16_gamma099_lrac3e-4_lrcr1e-3/225d7738cc918e3754e3779366d54ccb252183f1_ligand_2.pdbqt
 12 12 0 0 0
SMALL
GASTEIGER

@<TRIPOS>ATOM
      1  C          8.4470   -0.6450   -2.0940 C.3     1  UNL1        0.1270
      2  C          8.4180   -1.9080   -2.8760 C.2     1  UNL1        0.3030
      3  O          7.3120   -2.3990   -3.2070 O.2     1  UNL1       -0.2520
      4  O          9.5780   -2.5760   -3.2610 O.3     1  UNL1       -0.4810
      5  H         10.5080   -2.2940   -2.9160 H       1  UNL1        0.2960
      6  C          7.0610   -0.0620   -2.1240 C.3     1  UNL1        0.0470
      7  C          6.4810    0.0930   -0.7650 C.2     1  UNL1       -0.0470
      8  C          5.8210    1.2500   -0.3960 C.2     1  UNL1        0.0040
      9  C          6.5700   -0.9020    0.1910 C.2     1  UNL1        0.0040
     10  C          5.2860    1.3840    0.8700 C.2     1  UNL1        0.0000
     11  C          6.0360   -0.7710    1.4540 C.2     1  UNL1        0.0000
     12  C          5.3780    0.3860    1.8190 C.2     1  UNL1        0.0000
@<TRIPOS>BOND
     1     4     5    1
     2     4     2    1
     3     3     2    2
     4     2     1    1
     5     6     1    1
     6     6     7    1
     7     7     8    2
     8     7     9    1
     9     8    10    1
    10     9    11    2
    11    10    12    2
    12    11    12    1
