@<TRIPOS>MOLECULE
/home/cewinharhar/GITHUB/reincatalyze/data/processed/docking_pred/2023-Apr-25-2033_maxeplen5_maxtrainstep200_exh16_gamma099_lrac3e-4_lrcr1e-3/2368d29bb7bbfa5e31d33bb3936e2ea89938fe66_ligand_2.pdbqt
 12 12 0 0 0
SMALL
GASTEIGER

@<TRIPOS>ATOM
      1  C          5.3850    2.7820    0.0340 C.3     1  UNL1        0.1270
      2  C          6.1600    3.7840    0.8110 C.2     1  UNL1        0.3030
      3  O          6.1210    3.7490    2.0650 O.2     1  UNL1       -0.2520
      4  O          6.9350    4.7660    0.2010 O.3     1  UNL1       -0.4810
      5  H          6.9900    5.7260    0.5750 H       1  UNL1        0.2960
      6  C          4.9080    1.7310    0.9980 C.3     1  UNL1        0.0470
      7  C          5.7590    0.5120    0.9740 C.2     1  UNL1       -0.0470
      8  C          5.7950   -0.3560    2.0490 C.2     1  UNL1        0.0040
      9  C          6.5480    0.1870   -0.1130 C.2     1  UNL1        0.0040
     10  C          6.5890   -1.4860    2.0160 C.2     1  UNL1        0.0000
     11  C          7.3400   -0.9390   -0.1480 C.2     1  UNL1        0.0000
     12  C          7.3750   -1.8040    0.9270 C.2     1  UNL1        0.0000
@<TRIPOS>BOND
     1    11     9    1
     2    11    12    2
     3     9     7    2
     4     1     2    1
     5     1     6    1
     6     4     5    1
     7     4     2    1
     8     2     3    2
     9    12    10    1
    10     7     6    1
    11     7     8    1
    12    10     8    2
