MODEL 1
REMARK VINA RESULT:      -7.3      0.000      0.000
REMARK SMILES O=C(O)CCc1ccccc1
REMARK SMILES IDX 4 1 2 2 1 3 3 4 5 6 6 7 7 8 11 9 8 10 10 11 9 12
REMARK H PARENT 3 5
REMARK Flexibility Score: inf
ROOT
ATOM      1  C   UNL     1       8.489  -0.653  -2.106  1.00  0.00     0.127 C 
ENDROOT
BRANCH   1   2
ATOM      2  C   UNL     1       8.470  -1.910  -2.899  1.00  0.00     0.303 C 
ATOM      3  O   UNL     1       9.543  -2.535  -3.080  1.00  0.00    -0.252 OA
BRANCH   2   4
ATOM      4  O   UNL     1       7.302  -2.427  -3.452  1.00  0.00    -0.481 OA
ATOM      5  H   UNL     1       6.375  -2.033  -3.232  1.00  0.00     0.296 HD
ENDBRANCH   2   4
ENDBRANCH   1   2
BRANCH   1   6
ATOM      6  C   UNL     1       7.096  -0.087  -2.123  1.00  0.00     0.047 C 
BRANCH   6   7
ATOM      7  C   UNL     1       6.518   0.037  -0.759  1.00  0.00    -0.047 A 
ATOM      8  C   UNL     1       6.640  -0.983   0.165  1.00  0.00     0.004 A 
ATOM      9  C   UNL     1       5.835   1.167  -0.350  1.00  0.00     0.004 A 
ATOM     10  C   UNL     1       6.098  -0.857   1.430  1.00  0.00     0.000 A 
ATOM     11  C   UNL     1       5.294   1.295   0.910  1.00  0.00     0.000 A 
ATOM     12  C   UNL     1       5.417   0.274   1.831  1.00  0.00     0.000 A 
ENDBRANCH   6   7
ENDBRANCH   1   6
TORSDOF 4
ENDMDL
MODEL 2
REMARK VINA RESULT:      -7.3      0.109      1.717
REMARK SMILES O=C(O)CCc1ccccc1
REMARK SMILES IDX 4 1 2 2 1 3 3 4 5 6 6 7 7 8 11 9 8 10 10 11 9 12
REMARK H PARENT 3 5
REMARK Flexibility Score: inf
ROOT
ATOM      1  C   UNL     1       8.442  -0.617  -2.135  1.00  0.00     0.127 C 
ENDROOT
BRANCH   1   2
ATOM      2  C   UNL     1       8.417  -1.898  -2.887  1.00  0.00     0.303 C 
ATOM      3  O   UNL     1       7.312  -2.399  -3.207  1.00  0.00    -0.252 OA
BRANCH   2   4
ATOM      4  O   UNL     1       9.579  -2.572  -3.255  1.00  0.00    -0.481 OA
ATOM      5  H   UNL     1      10.168  -2.252  -4.039  1.00  0.00     0.296 HD
ENDBRANCH   2   4
ENDBRANCH   1   2
BRANCH   1   6
ATOM      6  C   UNL     1       7.045  -0.060  -2.142  1.00  0.00     0.047 C 
BRANCH   6   7
ATOM      7  C   UNL     1       6.482   0.079  -0.773  1.00  0.00    -0.047 A 
ATOM      8  C   UNL     1       5.830   1.232  -0.381  1.00  0.00     0.004 A 
ATOM      9  C   UNL     1       6.580  -0.929   0.168  1.00  0.00     0.004 A 
ATOM     10  C   UNL     1       5.311   1.351   0.894  1.00  0.00     0.000 A 
ATOM     11  C   UNL     1       6.063  -0.813   1.439  1.00  0.00     0.000 A 
ATOM     12  C   UNL     1       5.413   0.341   1.828  1.00  0.00     0.000 A 
ENDBRANCH   6   7
ENDBRANCH   1   6
TORSDOF 4
ENDMDL
MODEL 3
REMARK VINA RESULT:      -6.8      3.388      5.089
REMARK SMILES O=C(O)CCc1ccccc1
REMARK SMILES IDX 4 1 2 2 1 3 3 4 5 6 6 7 7 8 11 9 8 10 10 11 9 12
REMARK H PARENT 3 5
REMARK Flexibility Score: inf
ROOT
ATOM      1  C   UNL     1       4.979   1.797   0.679  1.00  0.00     0.127 C 
ENDROOT
BRANCH   1   2
ATOM      2  C   UNL     1       4.468   1.131   1.905  1.00  0.00     0.303 C 
ATOM      3  O   UNL     1       5.164   0.243   2.455  1.00  0.00    -0.252 OA
BRANCH   2   4
ATOM      4  O   UNL     1       3.240   1.454   2.475  1.00  0.00    -0.481 OA
ATOM      5  H   UNL     1       2.382   1.540   1.908  1.00  0.00     0.296 HD
ENDBRANCH   2   4
ENDBRANCH   1   2
BRANCH   1   6
ATOM      6  C   UNL     1       6.479   1.824   0.770  1.00  0.00     0.047 C 
BRANCH   6   7
ATOM      7  C   UNL     1       7.129   1.062  -0.328  1.00  0.00    -0.047 A 
ATOM      8  C   UNL     1       6.411   0.171  -1.103  1.00  0.00     0.004 A 
ATOM      9  C   UNL     1       8.471   1.204  -0.628  1.00  0.00     0.004 A 
ATOM     10  C   UNL     1       7.025  -0.532  -2.121  1.00  0.00     0.000 A 
ATOM     11  C   UNL     1       9.085   0.504  -1.643  1.00  0.00     0.000 A 
ATOM     12  C   UNL     1       8.365  -0.386  -2.415  1.00  0.00     0.000 A 
ENDBRANCH   6   7
ENDBRANCH   1   6
TORSDOF 4
ENDMDL
MODEL 4
REMARK VINA RESULT:      -6.7      1.042      1.686
REMARK SMILES O=C(O)CCc1ccccc1
REMARK SMILES IDX 4 1 2 2 1 3 3 4 5 6 6 7 7 8 11 9 8 10 10 11 9 12
REMARK H PARENT 3 5
REMARK Flexibility Score: inf
ROOT
ATOM      1  C   UNL     1       7.410  -1.634  -1.949  1.00  0.00     0.127 C 
ENDROOT
BRANCH   1   2
ATOM      2  C   UNL     1       8.814  -1.498  -2.417  1.00  0.00     0.303 C 
ATOM      3  O   UNL     1       9.292  -2.369  -3.183  1.00  0.00    -0.252 OA
BRANCH   2   4
ATOM      4  O   UNL     1       9.629  -0.434  -2.036  1.00  0.00    -0.481 OA
ATOM      5  H   UNL     1       9.323   0.546  -2.131  1.00  0.00     0.296 HD
ENDBRANCH   2   4
ENDBRANCH   1   2
BRANCH   1   6
ATOM      6  C   UNL     1       7.414  -1.477  -0.454  1.00  0.00     0.047 C 
BRANCH   6   7
ATOM      7  C   UNL     1       6.567  -0.343  -0.000  1.00  0.00    -0.047 A 
ATOM      8  C   UNL     1       6.039  -0.310   1.276  1.00  0.00     0.004 A 
ATOM      9  C   UNL     1       6.270   0.728  -0.823  1.00  0.00     0.004 A 
ATOM     10  C   UNL     1       5.253   0.750   1.687  1.00  0.00     0.000 A 
ATOM     11  C   UNL     1       5.488   1.785  -0.415  1.00  0.00     0.000 A 
ATOM     12  C   UNL     1       4.960   1.815   0.860  1.00  0.00     0.000 A 
ENDBRANCH   6   7
ENDBRANCH   1   6
TORSDOF 4
ENDMDL
MODEL 5
REMARK VINA RESULT:      -6.6      3.811      4.941
REMARK SMILES O=C(O)CCc1ccccc1
REMARK SMILES IDX 4 1 2 2 1 3 3 4 5 6 6 7 7 8 11 9 8 10 10 11 9 12
REMARK H PARENT 3 5
REMARK Flexibility Score: inf
ROOT
ATOM      1  C   UNL     1       5.385   2.782   0.034  1.00  0.00     0.127 C 
ENDROOT
BRANCH   1   2
ATOM      2  C   UNL     1       6.160   3.784   0.811  1.00  0.00     0.303 C 
ATOM      3  O   UNL     1       6.121   3.749   2.065  1.00  0.00    -0.252 OA
BRANCH   2   4
ATOM      4  O   UNL     1       6.935   4.766   0.201  1.00  0.00    -0.481 OA
ATOM      5  H   UNL     1       6.990   5.726   0.575  1.00  0.00     0.296 HD
ENDBRANCH   2   4
ENDBRANCH   1   2
BRANCH   1   6
ATOM      6  C   UNL     1       4.908   1.731   0.998  1.00  0.00     0.047 C 
BRANCH   6   7
ATOM      7  C   UNL     1       5.759   0.512   0.974  1.00  0.00    -0.047 A 
ATOM      8  C   UNL     1       5.795  -0.356   2.049  1.00  0.00     0.004 A 
ATOM      9  C   UNL     1       6.548   0.187  -0.113  1.00  0.00     0.004 A 
ATOM     10  C   UNL     1       6.589  -1.486   2.016  1.00  0.00     0.000 A 
ATOM     11  C   UNL     1       7.340  -0.939  -0.148  1.00  0.00     0.000 A 
ATOM     12  C   UNL     1       7.375  -1.804   0.927  1.00  0.00     0.000 A 
ENDBRANCH   6   7
ENDBRANCH   1   6
TORSDOF 4
ENDMDL
