@<TRIPOS>MOLECULE
/home/cewinharhar/GITHUB/reincatalyze/data/processed/docking_pred/2023-Apr-25-2033_maxeplen5_maxtrainstep200_exh16_gamma099_lrac3e-4_lrcr1e-3/2368d29bb7bbfa5e31d33bb3936e2ea89938fe66_ligand_2.pdbqt
 12 12 0 0 0
SMALL
GASTEIGER

@<TRIPOS>ATOM
      1  C          8.4420   -0.6170   -2.1350 C.3     1  UNL1        0.1270
      2  C          8.4170   -1.8980   -2.8870 C.2     1  UNL1        0.3030
      3  O          7.3120   -2.3990   -3.2070 O.2     1  UNL1       -0.2520
      4  O          9.5790   -2.5720   -3.2550 O.3     1  UNL1       -0.4810
      5  H         10.1680   -2.2520   -4.0390 H       1  UNL1        0.2960
      6  C          7.0450   -0.0600   -2.1420 C.3     1  UNL1        0.0470
      7  C          6.4820    0.0790   -0.7730 C.2     1  UNL1       -0.0470
      8  C          5.8300    1.2320   -0.3810 C.2     1  UNL1        0.0040
      9  C          6.5800   -0.9290    0.1680 C.2     1  UNL1        0.0040
     10  C          5.3110    1.3510    0.8940 C.2     1  UNL1        0.0000
     11  C          6.0630   -0.8130    1.4390 C.2     1  UNL1        0.0000
     12  C          5.4130    0.3410    1.8280 C.2     1  UNL1        0.0000
@<TRIPOS>BOND
     1     5     4    1
     2     4     2    1
     3     3     2    2
     4     2     1    1
     5     6     1    1
     6     6     7    1
     7     7     8    2
     8     7     9    1
     9     8    10    1
    10     9    11    2
    11    10    12    2
    12    11    12    1
