@<TRIPOS>MOLECULE
/home/cewinharhar/GITHUB/reincatalyze/data/processed/docking_pred/2023-Apr-25-2033_maxeplen5_maxtrainstep200_exh16_gamma099_lrac3e-4_lrcr1e-3/2368d29bb7bbfa5e31d33bb3936e2ea89938fe66_ligand_2.pdbqt
 12 12 0 0 0
SMALL
GASTEIGER

@<TRIPOS>ATOM
      1  C          4.9790    1.7970    0.6790 C.3     1  UNL1        0.1270
      2  C          4.4680    1.1310    1.9050 C.2     1  UNL1        0.3030
      3  O          5.1640    0.2430    2.4550 O.2     1  UNL1       -0.2520
      4  O          3.2400    1.4540    2.4750 O.3     1  UNL1       -0.4810
      5  H          2.3820    1.5400    1.9080 H       1  UNL1        0.2960
      6  C          6.4790    1.8240    0.7700 C.3     1  UNL1        0.0470
      7  C          7.1290    1.0620   -0.3280 C.2     1  UNL1       -0.0470
      8  C          6.4110    0.1710   -1.1030 C.2     1  UNL1        0.0040
      9  C          8.4710    1.2040   -0.6280 C.2     1  UNL1        0.0040
     10  C          7.0250   -0.5320   -2.1210 C.2     1  UNL1        0.0000
     11  C          9.0850    0.5040   -1.6430 C.2     1  UNL1        0.0000
     12  C          8.3650   -0.3860   -2.4150 C.2     1  UNL1        0.0000
@<TRIPOS>BOND
     1    12    10    2
     2    12    11    1
     3    10     8    1
     4    11     9    2
     5     8     7    2
     6     9     7    1
     7     7     6    1
     8     1     6    1
     9     1     2    1
    10     2     3    2
    11     2     4    1
    12     5     4    1
