@<TRIPOS>MOLECULE
/home/cewinharhar/GITHUB/reincatalyze/data/processed/docking_pred/2023-Apr-25-2033_maxeplen5_maxtrainstep200_exh16_gamma099_lrac3e-4_lrcr1e-3/2368d29bb7bbfa5e31d33bb3936e2ea89938fe66_ligand_2.pdbqt
 12 12 0 0 0
SMALL
GASTEIGER

@<TRIPOS>ATOM
      1  C          8.4890   -0.6530   -2.1060 C.3     1  UNL1        0.1270
      2  C          8.4700   -1.9100   -2.8990 C.2     1  UNL1        0.3030
      3  O          9.5430   -2.5350   -3.0800 O.2     1  UNL1       -0.2520
      4  O          7.3020   -2.4270   -3.4520 O.3     1  UNL1       -0.4810
      5  H          6.3750   -2.0330   -3.2320 H       1  UNL1        0.2960
      6  C          7.0960   -0.0870   -2.1230 C.3     1  UNL1        0.0470
      7  C          6.5180    0.0370   -0.7590 C.2     1  UNL1       -0.0470
      8  C          6.6400   -0.9830    0.1650 C.2     1  UNL1        0.0040
      9  C          5.8350    1.1670   -0.3500 C.2     1  UNL1        0.0040
     10  C          6.0980   -0.8570    1.4300 C.2     1  UNL1        0.0000
     11  C          5.2940    1.2950    0.9100 C.2     1  UNL1        0.0000
     12  C          5.4170    0.2740    1.8310 C.2     1  UNL1        0.0000
@<TRIPOS>BOND
     1     4     5    1
     2     4     2    1
     3     3     2    2
     4     2     1    1
     5     6     1    1
     6     6     7    1
     7     7     9    2
     8     7     8    1
     9     9    11    1
    10     8    10    2
    11    11    12    2
    12    10    12    1
