@<TRIPOS>MOLECULE
/home/cewinharhar/GITHUB/reincatalyze/data/processed/docking_pred/2023-Apr-25-2033_maxeplen5_maxtrainstep200_exh16_gamma099_lrac3e-4_lrcr1e-3/2368d29bb7bbfa5e31d33bb3936e2ea89938fe66_ligand_2.pdbqt
 12 12 0 0 0
SMALL
GASTEIGER

@<TRIPOS>ATOM
      1  C          7.4100   -1.6340   -1.9490 C.3     1  UNL1        0.1270
      2  C          8.8140   -1.4980   -2.4170 C.2     1  UNL1        0.3030
      3  O          9.2920   -2.3690   -3.1830 O.2     1  UNL1       -0.2520
      4  O          9.6290   -0.4340   -2.0360 O.3     1  UNL1       -0.4810
      5  H          9.3230    0.5460   -2.1310 H       1  UNL1        0.2960
      6  C          7.4140   -1.4770   -0.4540 C.3     1  UNL1        0.0470
      7  C          6.5670   -0.3430   -0.0000 C.2     1  UNL1       -0.0470
      8  C          6.0390   -0.3100    1.2760 C.2     1  UNL1        0.0040
      9  C          6.2700    0.7280   -0.8230 C.2     1  UNL1        0.0040
     10  C          5.2530    0.7500    1.6870 C.2     1  UNL1        0.0000
     11  C          5.4880    1.7850   -0.4150 C.2     1  UNL1        0.0000
     12  C          4.9600    1.8150    0.8600 C.2     1  UNL1        0.0000
@<TRIPOS>BOND
     1     3     2    2
     2     2     4    1
     3     2     1    1
     4     5     4    1
     5     1     6    1
     6     9    11    1
     7     9     7    2
     8     6     7    1
     9    11    12    2
    10     7     8    1
    11    12    10    1
    12     8    10    2
