MODEL 1
REMARK VINA RESULT:      -7.3      0.000      0.000
REMARK SMILES O=C(O)CCc1ccccc1
REMARK SMILES IDX 4 1 2 2 1 3 3 4 5 6 6 7 7 8 11 9 8 10 10 11 9 12
REMARK H PARENT 3 5
REMARK Flexibility Score: inf
ROOT
ATOM      1  C   UNL     1       8.454  -0.628  -2.145  1.00  0.00     0.127 C 
ENDROOT
BRANCH   1   2
ATOM      2  C   UNL     1       8.458  -1.903  -2.909  1.00  0.00     0.303 C 
ATOM      3  O   UNL     1       9.545  -2.503  -3.092  1.00  0.00    -0.252 OA
BRANCH   2   4
ATOM      4  O   UNL     1       7.297  -2.465  -3.433  1.00  0.00    -0.481 OA
ATOM      5  H   UNL     1       6.965  -3.397  -3.144  1.00  0.00     0.296 HD
ENDBRANCH   2   4
ENDBRANCH   1   2
BRANCH   1   6
ATOM      6  C   UNL     1       7.045  -0.104  -2.149  1.00  0.00     0.047 C 
BRANCH   6   7
ATOM      7  C   UNL     1       6.490   0.043  -0.778  1.00  0.00    -0.047 A 
ATOM      8  C   UNL     1       5.843   1.200  -0.388  1.00  0.00     0.004 A 
ATOM      9  C   UNL     1       6.590  -0.961   0.167  1.00  0.00     0.004 A 
ATOM     10  C   UNL     1       5.331   1.325   0.889  1.00  0.00     0.000 A 
ATOM     11  C   UNL     1       6.080  -0.838   1.440  1.00  0.00     0.000 A 
ATOM     12  C   UNL     1       5.435   0.319   1.828  1.00  0.00     0.000 A 
ENDBRANCH   6   7
ENDBRANCH   1   6
TORSDOF 4
ENDMDL
MODEL 2
REMARK VINA RESULT:      -7.3      0.018      1.419
REMARK SMILES O=C(O)CCc1ccccc1
REMARK SMILES IDX 4 1 2 2 1 3 3 4 5 6 6 7 7 8 11 9 8 10 10 11 9 12
REMARK H PARENT 3 5
REMARK Flexibility Score: inf
ROOT
ATOM      1  C   UNL     1       8.460  -0.625  -2.145  1.00  0.00     0.127 C 
ENDROOT
BRANCH   1   2
ATOM      2  C   UNL     1       8.466  -1.902  -2.905  1.00  0.00     0.303 C 
ATOM      3  O   UNL     1       9.555  -2.497  -3.094  1.00  0.00    -0.252 OA
BRANCH   2   4
ATOM      4  O   UNL     1       7.304  -2.471  -3.420  1.00  0.00    -0.481 OA
ATOM      5  H   UNL     1       7.300  -2.982  -4.315  1.00  0.00     0.296 HD
ENDBRANCH   2   4
ENDBRANCH   1   2
BRANCH   1   6
ATOM      6  C   UNL     1       7.050  -0.103  -2.148  1.00  0.00     0.047 C 
BRANCH   6   7
ATOM      7  C   UNL     1       6.493   0.037  -0.778  1.00  0.00    -0.047 A 
ATOM      8  C   UNL     1       6.602  -0.984   0.147  1.00  0.00     0.004 A 
ATOM      9  C   UNL     1       5.845   1.185  -0.361  1.00  0.00     0.004 A 
ATOM     10  C   UNL     1       6.080  -0.843   1.419  1.00  0.00     0.000 A 
ATOM     11  C   UNL     1       5.325   1.328   0.906  1.00  0.00     0.000 A 
ATOM     12  C   UNL     1       5.434   0.306   1.827  1.00  0.00     0.000 A 
ENDBRANCH   6   7
ENDBRANCH   1   6
TORSDOF 4
ENDMDL
MODEL 3
REMARK VINA RESULT:      -6.8      3.386      5.102
REMARK SMILES O=C(O)CCc1ccccc1
REMARK SMILES IDX 4 1 2 2 1 3 3 4 5 6 6 7 7 8 11 9 8 10 10 11 9 12
REMARK H PARENT 3 5
REMARK Flexibility Score: inf
ROOT
ATOM      1  C   UNL     1       4.978   1.787   0.681  1.00  0.00     0.127 C 
ENDROOT
BRANCH   1   2
ATOM      2  C   UNL     1       4.462   1.124   1.907  1.00  0.00     0.303 C 
ATOM      3  O   UNL     1       5.152   0.232   2.457  1.00  0.00    -0.252 OA
BRANCH   2   4
ATOM      4  O   UNL     1       3.235   1.455   2.475  1.00  0.00    -0.481 OA
ATOM      5  H   UNL     1       2.547   0.734   2.742  1.00  0.00     0.296 HD
ENDBRANCH   2   4
ENDBRANCH   1   2
BRANCH   1   6
ATOM      6  C   UNL     1       6.479   1.807   0.775  1.00  0.00     0.047 C 
BRANCH   6   7
ATOM      7  C   UNL     1       7.126   1.047  -0.327  1.00  0.00    -0.047 A 
ATOM      8  C   UNL     1       6.408   0.153  -1.097  1.00  0.00     0.004 A 
ATOM      9  C   UNL     1       8.466   1.195  -0.634  1.00  0.00     0.004 A 
ATOM     10  C   UNL     1       7.020  -0.549  -2.119  1.00  0.00     0.000 A 
ATOM     11  C   UNL     1       9.077   0.498  -1.652  1.00  0.00     0.000 A 
ATOM     12  C   UNL     1       8.358  -0.396  -2.420  1.00  0.00     0.000 A 
ENDBRANCH   6   7
ENDBRANCH   1   6
TORSDOF 4
ENDMDL
MODEL 4
REMARK VINA RESULT:      -6.6      3.828      4.986
REMARK SMILES O=C(O)CCc1ccccc1
REMARK SMILES IDX 4 1 2 2 1 3 3 4 5 6 6 7 7 8 11 9 8 10 10 11 9 12
REMARK H PARENT 3 5
REMARK Flexibility Score: inf
ROOT
ATOM      1  C   UNL     1       5.467   2.768  -0.002  1.00  0.00     0.127 C 
ENDROOT
BRANCH   1   2
ATOM      2  C   UNL     1       6.203   3.772   0.809  1.00  0.00     0.303 C 
ATOM      3  O   UNL     1       6.127   3.723   2.061  1.00  0.00    -0.252 OA
BRANCH   2   4
ATOM      4  O   UNL     1       6.980   4.774   0.234  1.00  0.00    -0.481 OA
ATOM      5  H   UNL     1       6.747   5.183  -0.684  1.00  0.00     0.296 HD
ENDBRANCH   2   4
ENDBRANCH   1   2
BRANCH   1   6
ATOM      6  C   UNL     1       4.918   1.736   0.944  1.00  0.00     0.047 C 
BRANCH   6   7
ATOM      7  C   UNL     1       5.734   0.494   0.966  1.00  0.00    -0.047 A 
ATOM      8  C   UNL     1       5.755  -0.329   2.075  1.00  0.00     0.004 A 
ATOM      9  C   UNL     1       6.505   0.102  -0.113  1.00  0.00     0.004 A 
ATOM     10  C   UNL     1       6.518  -1.482   2.084  1.00  0.00     0.000 A 
ATOM     11  C   UNL     1       7.266  -1.046  -0.106  1.00  0.00     0.000 A 
ATOM     12  C   UNL     1       7.285  -1.866   1.004  1.00  0.00     0.000 A 
ENDBRANCH   6   7
ENDBRANCH   1   6
TORSDOF 4
ENDMDL
MODEL 5
REMARK VINA RESULT:      -6.6      1.992      2.712
REMARK SMILES O=C(O)CCc1ccccc1
REMARK SMILES IDX 4 1 2 2 1 3 3 4 5 6 6 7 7 8 11 9 8 10 10 11 9 12
REMARK H PARENT 3 5
REMARK Flexibility Score: inf
ROOT
ATOM      1  C   UNL     1       8.381   0.285  -2.052  1.00  0.00     0.127 C 
ENDROOT
BRANCH   1   2
ATOM      2  C   UNL     1       9.501   0.374  -1.080  1.00  0.00     0.303 C 
ATOM      3  O   UNL     1       9.513  -0.393  -0.087  1.00  0.00    -0.252 OA
BRANCH   2   4
ATOM      4  O   UNL     1      10.548   1.281  -1.226  1.00  0.00    -0.481 OA
ATOM      5  H   UNL     1      10.640   2.109  -0.617  1.00  0.00     0.296 HD
ENDBRANCH   2   4
ENDBRANCH   1   2
BRANCH   1   6
ATOM      6  C   UNL     1       7.308  -0.564  -1.429  1.00  0.00     0.047 C 
BRANCH   6   7
ATOM      7  C   UNL     1       6.445   0.207  -0.496  1.00  0.00    -0.047 A 
ATOM      8  C   UNL     1       6.176  -0.256   0.778  1.00  0.00     0.004 A 
ATOM      9  C   UNL     1       5.874   1.415  -0.850  1.00  0.00     0.004 A 
ATOM     10  C   UNL     1       5.373   0.468   1.637  1.00  0.00     0.000 A 
ATOM     11  C   UNL     1       5.073   2.139   0.005  1.00  0.00     0.000 A 
ATOM     12  C   UNL     1       4.806   1.673   1.277  1.00  0.00     0.000 A 
ENDBRANCH   6   7
ENDBRANCH   1   6
TORSDOF 4
ENDMDL
