@<TRIPOS>MOLECULE
/home/cewinharhar/GITHUB/reincatalyze/data/processed/docking_pred/2023-Apr-25-2033_maxeplen5_maxtrainstep200_exh16_gamma099_lrac3e-4_lrcr1e-3/25f547df8c587039729a955c6f4cb3c83005f49c_ligand_2.pdbqt
 12 12 0 0 0
SMALL
GASTEIGER

@<TRIPOS>ATOM
      1  C          5.4670    2.7680   -0.0020 C.3     1  UNL1        0.1270
      2  C          6.2030    3.7720    0.8090 C.2     1  UNL1        0.3030
      3  O          6.1270    3.7230    2.0610 O.2     1  UNL1       -0.2520
      4  O          6.9800    4.7740    0.2340 O.3     1  UNL1       -0.4810
      5  H          6.7470    5.1830   -0.6840 H       1  UNL1        0.2960
      6  C          4.9180    1.7360    0.9440 C.3     1  UNL1        0.0470
      7  C          5.7340    0.4940    0.9660 C.2     1  UNL1       -0.0470
      8  C          5.7550   -0.3290    2.0750 C.2     1  UNL1        0.0040
      9  C          6.5050    0.1020   -0.1130 C.2     1  UNL1        0.0040
     10  C          6.5180   -1.4820    2.0840 C.2     1  UNL1        0.0000
     11  C          7.2660   -1.0460   -0.1060 C.2     1  UNL1        0.0000
     12  C          7.2850   -1.8660    1.0040 C.2     1  UNL1        0.0000
@<TRIPOS>BOND
     1     5     4    1
     2     9    11    1
     3     9     7    2
     4    11    12    2
     5     1     2    1
     6     1     6    1
     7     4     2    1
     8     2     3    2
     9     6     7    1
    10     7     8    1
    11    12    10    1
    12     8    10    2
