@<TRIPOS>MOLECULE
/home/cewinharhar/GITHUB/reincatalyze/data/processed/docking_pred/2023-Apr-25-2033_maxeplen5_maxtrainstep200_exh16_gamma099_lrac3e-4_lrcr1e-3/25f547df8c587039729a955c6f4cb3c83005f49c_ligand_2.pdbqt
 12 12 0 0 0
SMALL
GASTEIGER

@<TRIPOS>ATOM
      1  C          8.4540   -0.6280   -2.1450 C.3     1  UNL1        0.1270
      2  C          8.4580   -1.9030   -2.9090 C.2     1  UNL1        0.3030
      3  O          9.5450   -2.5030   -3.0920 O.2     1  UNL1       -0.2520
      4  O          7.2970   -2.4650   -3.4330 O.3     1  UNL1       -0.4810
      5  H          6.9650   -3.3970   -3.1440 H       1  UNL1        0.2960
      6  C          7.0450   -0.1040   -2.1490 C.3     1  UNL1        0.0470
      7  C          6.4900    0.0430   -0.7780 C.2     1  UNL1       -0.0470
      8  C          5.8430    1.2000   -0.3880 C.2     1  UNL1        0.0040
      9  C          6.5900   -0.9610    0.1670 C.2     1  UNL1        0.0040
     10  C          5.3310    1.3250    0.8890 C.2     1  UNL1        0.0000
     11  C          6.0800   -0.8380    1.4400 C.2     1  UNL1        0.0000
     12  C          5.4350    0.3190    1.8280 C.2     1  UNL1        0.0000
@<TRIPOS>BOND
     1     4     5    1
     2     4     2    1
     3     3     2    2
     4     2     1    1
     5     6     1    1
     6     6     7    1
     7     7     8    2
     8     7     9    1
     9     8    10    1
    10     9    11    2
    11    10    12    2
    12    11    12    1
