@<TRIPOS>MOLECULE
/home/cewinharhar/GITHUB/reincatalyze/data/processed/docking_pred/2023-Apr-25-2033_maxeplen5_maxtrainstep200_exh16_gamma099_lrac3e-4_lrcr1e-3/25f547df8c587039729a955c6f4cb3c83005f49c_ligand_2.pdbqt
 12 12 0 0 0
SMALL
GASTEIGER

@<TRIPOS>ATOM
      1  C          8.4600   -0.6250   -2.1450 C.3     1  UNL1        0.1270
      2  C          8.4660   -1.9020   -2.9050 C.2     1  UNL1        0.3030
      3  O          9.5550   -2.4970   -3.0940 O.2     1  UNL1       -0.2520
      4  O          7.3040   -2.4710   -3.4200 O.3     1  UNL1       -0.4810
      5  H          7.3000   -2.9820   -4.3150 H       1  UNL1        0.2960
      6  C          7.0500   -0.1030   -2.1480 C.3     1  UNL1        0.0470
      7  C          6.4930    0.0370   -0.7780 C.2     1  UNL1       -0.0470
      8  C          6.6020   -0.9840    0.1470 C.2     1  UNL1        0.0040
      9  C          5.8450    1.1850   -0.3610 C.2     1  UNL1        0.0040
     10  C          6.0800   -0.8430    1.4190 C.2     1  UNL1        0.0000
     11  C          5.3250    1.3280    0.9060 C.2     1  UNL1        0.0000
     12  C          5.4340    0.3060    1.8270 C.2     1  UNL1        0.0000
@<TRIPOS>BOND
     1     5     4    1
     2     4     2    1
     3     3     2    2
     4     2     1    1
     5     6     1    1
     6     6     7    1
     7     7     9    2
     8     7     8    1
     9     9    11    1
    10     8    10    2
    11    11    12    2
    12    10    12    1
