@<TRIPOS>MOLECULE
/home/cewinharhar/GITHUB/reincatalyze/data/processed/docking_pred/2023-Apr-25-2033_maxeplen5_maxtrainstep200_exh16_gamma099_lrac3e-4_lrcr1e-3/25f547df8c587039729a955c6f4cb3c83005f49c_ligand_2.pdbqt
 12 12 0 0 0
SMALL
GASTEIGER

@<TRIPOS>ATOM
      1  C          8.3810    0.2850   -2.0520 C.3     1  UNL1        0.1270
      2  C          9.5010    0.3740   -1.0800 C.2     1  UNL1        0.3030
      3  O          9.5130   -0.3930   -0.0870 O.2     1  UNL1       -0.2520
      4  O         10.5480    1.2810   -1.2260 O.3     1  UNL1       -0.4810
      5  H         10.6400    2.1090   -0.6170 H       1  UNL1        0.2960
      6  C          7.3080   -0.5640   -1.4290 C.3     1  UNL1        0.0470
      7  C          6.4450    0.2070   -0.4960 C.2     1  UNL1       -0.0470
      8  C          6.1760   -0.2560    0.7780 C.2     1  UNL1        0.0040
      9  C          5.8740    1.4150   -0.8500 C.2     1  UNL1        0.0040
     10  C          5.3730    0.4680    1.6370 C.2     1  UNL1        0.0000
     11  C          5.0730    2.1390    0.0050 C.2     1  UNL1        0.0000
     12  C          4.8060    1.6730    1.2770 C.2     1  UNL1        0.0000
@<TRIPOS>BOND
     1     1     6    1
     2     1     2    1
     3     6     7    1
     4     4     2    1
     5     4     5    1
     6     2     3    2
     7     9     7    2
     8     9    11    1
     9     7     8    1
    10    11    12    2
    11     8    10    2
    12    12    10    1
