@<TRIPOS>MOLECULE
/home/cewinharhar/GITHUB/reincatalyze/data/processed/docking_pred/2023-Apr-25-2033_maxeplen5_maxtrainstep200_exh16_gamma099_lrac3e-4_lrcr1e-3/2734134eb9e7fe1a9a1e6734a306fe03ba38cdbb_ligand_2.pdbqt
 12 12 0 0 0
SMALL
GASTEIGER

@<TRIPOS>ATOM
      1  C          5.4580    2.8920    0.0020 C.3     1  UNL1        0.1270
      2  C          6.2590    3.8360    0.8240 C.2     1  UNL1        0.3030
      3  O          6.8890    4.7610    0.2560 O.2     1  UNL1       -0.2520
      4  O          6.3390    3.7370    2.2110 O.3     1  UNL1       -0.4810
      5  H          6.3430    4.5720    2.8170 H       1  UNL1        0.2960
      6  C          4.8930    1.8520    0.9290 C.3     1  UNL1        0.0470
      7  C          5.7160    0.6140    0.9630 C.2     1  UNL1       -0.0470
      8  C          6.4440    0.2100   -0.1390 C.2     1  UNL1        0.0040
      9  C          5.7940   -0.1860    2.0870 C.2     1  UNL1        0.0040
     10  C          7.2060   -0.9430   -0.0970 C.2     1  UNL1        0.0000
     11  C          6.5530   -1.3350    2.1310 C.2     1  UNL1        0.0000
     12  C          7.2790   -1.7370    1.0280 C.2     1  UNL1        0.0000
@<TRIPOS>BOND
     1     8    10    1
     2     8     7    2
     3    10    12    2
     4     1     2    1
     5     1     6    1
     6     3     2    2
     7     2     4    1
     8     6     7    1
     9     7     9    1
    10    12    11    1
    11     9    11    2
    12     4     5    1
