@<TRIPOS>MOLECULE
/home/cewinharhar/GITHUB/reincatalyze/data/processed/docking_pred/2023-Apr-25-2033_maxeplen5_maxtrainstep200_exh16_gamma099_lrac3e-4_lrcr1e-3/2734134eb9e7fe1a9a1e6734a306fe03ba38cdbb_ligand_2.pdbqt
 12 12 0 0 0
SMALL
GASTEIGER

@<TRIPOS>ATOM
      1  C          8.4490   -0.6490   -2.0900 C.3     1  UNL1        0.1270
      2  C          8.4220   -1.9100   -2.8760 C.2     1  UNL1        0.3030
      3  O          7.3150   -2.3990   -3.2110 O.2     1  UNL1       -0.2520
      4  O          9.5820   -2.5770   -3.2600 O.3     1  UNL1       -0.4810
      5  H         10.4140   -2.6150   -2.6520 H       1  UNL1        0.2960
      6  C          7.0650   -0.0620   -2.1270 C.3     1  UNL1        0.0470
      7  C          6.4810    0.1000   -0.7700 C.2     1  UNL1       -0.0470
      8  C          6.5800   -0.9020    0.1760 C.2     1  UNL1        0.0040
      9  C          5.8180    1.2510   -0.3880 C.2     1  UNL1        0.0040
     10  C          6.0340   -0.7400    1.4350 C.2     1  UNL1        0.0000
     11  C          5.2730    1.4150    0.8660 C.2     1  UNL1        0.0000
     12  C          5.3720    0.4120    1.8090 C.2     1  UNL1        0.0000
@<TRIPOS>BOND
     1     4     2    1
     2     4     5    1
     3     3     2    2
     4     2     1    1
     5     6     1    1
     6     6     7    1
     7     7     9    2
     8     7     8    1
     9     9    11    1
    10     8    10    2
    11    11    12    2
    12    10    12    1
