@<TRIPOS>MOLECULE
/home/cewinharhar/GITHUB/reincatalyze/data/processed/docking_pred/2023-Apr-25-2033_maxeplen5_maxtrainstep200_exh16_gamma099_lrac3e-4_lrcr1e-3/2734134eb9e7fe1a9a1e6734a306fe03ba38cdbb_ligand_2.pdbqt
 12 12 0 0 0
SMALL
GASTEIGER

@<TRIPOS>ATOM
      1  C          8.3370    0.2940   -2.0980 C.3     1  UNL1        0.1270
      2  C          9.4720    0.3920   -1.1440 C.2     1  UNL1        0.3030
      3  O          9.5080   -0.3780   -0.1540 O.2     1  UNL1       -0.2520
      4  O         10.5070    1.3090   -1.3050 O.3     1  UNL1       -0.4810
      5  H         10.3330    2.2750   -1.6250 H       1  UNL1        0.2960
      6  C          7.2870   -0.5760   -1.4650 C.3     1  UNL1        0.0470
      7  C          6.4430    0.1690   -0.4940 C.2     1  UNL1       -0.0470
      8  C          5.8740    1.3830   -0.8250 C.2     1  UNL1        0.0040
      9  C          6.1860   -0.3110    0.7770 C.2     1  UNL1        0.0040
     10  C          5.0910    2.0670    0.0860 C.2     1  UNL1        0.0000
     11  C          5.4060    0.3680    1.6860 C.2     1  UNL1        0.0000
     12  C          4.8390    1.5820    1.3520 C.2     1  UNL1        0.0000
@<TRIPOS>BOND
     1     1     6    1
     2     1     2    1
     3     5     4    1
     4     6     7    1
     5     4     2    1
     6     2     3    2
     7     8     7    2
     8     8    10    1
     9     7     9    1
    10    10    12    2
    11     9    11    2
    12    12    11    1
