@<TRIPOS>MOLECULE
/home/cewinharhar/GITHUB/reincatalyze/data/processed/docking_pred/2023-Apr-25-2033_maxeplen5_maxtrainstep200_exh16_gamma099_lrac3e-4_lrcr1e-3/2734134eb9e7fe1a9a1e6734a306fe03ba38cdbb_ligand_2.pdbqt
 12 12 0 0 0
SMALL
GASTEIGER

@<TRIPOS>ATOM
      1  C          5.0000    1.7770    0.7150 C.3     1  UNL1        0.1270
      2  C          4.4600    1.1120    1.9290 C.2     1  UNL1        0.3030
      3  O          5.1330    0.2090    2.4840 O.2     1  UNL1       -0.2520
      4  O          3.2280    1.4520    2.4820 O.3     1  UNL1       -0.4810
      5  H          2.9100    2.4310    2.5410 H       1  UNL1        0.2960
      6  C          6.5000    1.7560    0.8170 C.3     1  UNL1        0.0470
      7  C          7.1350    1.0120   -0.3030 C.2     1  UNL1       -0.0470
      8  C          6.4210    0.0930   -1.0470 C.2     1  UNL1        0.0040
      9  C          8.4580    1.2020   -0.6550 C.2     1  UNL1        0.0040
     10  C          7.0210   -0.5920   -2.0860 C.2     1  UNL1        0.0000
     11  C          9.0590    0.5200   -1.6900 C.2     1  UNL1        0.0000
     12  C          8.3430   -0.3980   -2.4310 C.2     1  UNL1        0.0000
@<TRIPOS>BOND
     1    12    10    2
     2    12    11    1
     3    10     8    1
     4    11     9    2
     5     8     7    2
     6     9     7    1
     7     7     6    1
     8     1     6    1
     9     1     2    1
    10     2     4    1
    11     2     3    2
    12     4     5    1
