@<TRIPOS>MOLECULE
/home/cewinharhar/GITHUB/reincatalyze/data/processed/docking_pred/2023-Apr-25-2033_maxeplen5_maxtrainstep200_exh16_gamma099_lrac3e-4_lrcr1e-3/2734134eb9e7fe1a9a1e6734a306fe03ba38cdbb_ligand_2.pdbqt
 12 12 0 0 0
SMALL
GASTEIGER

@<TRIPOS>ATOM
      1  C          8.4040   -0.5660   -2.2040 C.3     1  UNL1        0.1270
      2  C          8.3900   -1.8760   -2.9050 C.2     1  UNL1        0.3030
      3  O          7.2900   -2.3840   -3.2320 O.2     1  UNL1       -0.2520
      4  O          9.5570   -2.5700   -3.2150 O.3     1  UNL1       -0.4810
      5  H          9.7920   -2.8330   -4.1850 H       1  UNL1        0.2960
      6  C          6.9900   -0.0570   -2.1670 C.3     1  UNL1        0.0470
      7  C          6.4640    0.0560   -0.7810 C.2     1  UNL1       -0.0470
      8  C          5.8150    1.1990   -0.3540 C.2     1  UNL1        0.0040
      9  C          6.5950   -0.9650    0.1410 C.2     1  UNL1        0.0040
     10  C          5.3300    1.2940    0.9370 C.2     1  UNL1        0.0000
     11  C          6.1130   -0.8730    1.4280 C.2     1  UNL1        0.0000
     12  C          5.4650    0.2700    1.8530 C.2     1  UNL1        0.0000
@<TRIPOS>BOND
     1     5     4    1
     2     3     2    2
     3     4     2    1
     4     2     1    1
     5     1     6    1
     6     6     7    1
     7     7     8    2
     8     7     9    1
     9     8    10    1
    10     9    11    2
    11    10    12    2
    12    11    12    1
