@<TRIPOS>MOLECULE
/home/cewinharhar/GITHUB/reincatalyze/data/processed/docking_pred/2023-Apr-25-2033_maxeplen5_maxtrainstep200_exh16_gamma099_lrac3e-4_lrcr1e-3/2b611616233e02901686b2fc0a6dd8ec9c570ff2_ligand_2.pdbqt
 12 12 0 0 0
SMALL
GASTEIGER

@<TRIPOS>ATOM
      1  C          5.0330    1.7890    0.7450 C.3     1  UNL1        0.1270
      2  C          4.4610    1.1080    1.9360 C.2     1  UNL1        0.3030
      3  O          5.1080    0.1820    2.4810 O.2     1  UNL1       -0.2520
      4  O          3.2270    1.4600    2.4770 O.3     1  UNL1       -0.4810
      5  H          2.7550    2.3420    2.2270 H       1  UNL1        0.2960
      6  C          6.5300    1.7050    0.8510 C.3     1  UNL1        0.0470
      7  C          7.1390    0.9600   -0.2820 C.2     1  UNL1       -0.0470
      8  C          8.4330    1.2150   -0.6940 C.2     1  UNL1        0.0040
      9  C          6.4490   -0.0180   -0.9740 C.2     1  UNL1        0.0040
     10  C          8.9890    0.5160   -1.7480 C.2     1  UNL1        0.0000
     11  C          7.0010   -0.7160   -2.0250 C.2     1  UNL1        0.0000
     12  C          8.2940   -0.4580   -2.4350 C.2     1  UNL1        0.0000
@<TRIPOS>BOND
     1    12    11    2
     2    12    10    1
     3    11     9    1
     4    10     8    2
     5     9     7    2
     6     8     7    1
     7     7     6    1
     8     1     6    1
     9     1     2    1
    10     2     4    1
    11     2     3    2
    12     5     4    1
