@<TRIPOS>MOLECULE
/home/cewinharhar/GITHUB/reincatalyze/data/processed/docking_pred/2023-Apr-25-2033_maxeplen5_maxtrainstep200_exh16_gamma099_lrac3e-4_lrcr1e-3/2b611616233e02901686b2fc0a6dd8ec9c570ff2_ligand_2.pdbqt
 12 12 0 0 0
SMALL
GASTEIGER

@<TRIPOS>ATOM
      1  C          8.4600   -0.6090   -2.1400 C.3     1  UNL1        0.1270
      2  C          8.4250   -1.8960   -2.8820 C.2     1  UNL1        0.3030
      3  O          7.3160   -2.3900   -3.1980 O.2     1  UNL1       -0.2520
      4  O          9.5820   -2.5800   -3.2460 O.3     1  UNL1       -0.4810
      5  H          9.6470   -3.6080   -3.1880 H       1  UNL1        0.2960
      6  C          7.0660   -0.0450   -2.1460 C.3     1  UNL1        0.0470
      7  C          6.5000    0.0850   -0.7780 C.2     1  UNL1       -0.0470
      8  C          5.8460    1.2350   -0.3810 C.2     1  UNL1        0.0040
      9  C          6.5960   -0.9280    0.1570 C.2     1  UNL1        0.0040
     10  C          5.3230    1.3450    0.8930 C.2     1  UNL1        0.0000
     11  C          6.0760   -0.8210    1.4270 C.2     1  UNL1        0.0000
     12  C          5.4230    0.3300    1.8220 C.2     1  UNL1        0.0000
@<TRIPOS>BOND
     1     4     5    1
     2     4     2    1
     3     3     2    2
     4     2     1    1
     5     6     1    1
     6     6     7    1
     7     7     8    2
     8     7     9    1
     9     8    10    1
    10     9    11    2
    11    10    12    2
    12    11    12    1
