@<TRIPOS>MOLECULE
/home/cewinharhar/GITHUB/reincatalyze/data/processed/docking_pred/2023-Apr-25-2033_maxeplen5_maxtrainstep200_exh16_gamma099_lrac3e-4_lrcr1e-3/2b611616233e02901686b2fc0a6dd8ec9c570ff2_ligand_2.pdbqt
 12 12 0 0 0
SMALL
GASTEIGER

@<TRIPOS>ATOM
      1  C          8.3280   -1.0610   -1.6600 C.3     1  UNL1        0.1270
      2  C          8.4250   -2.0300   -2.7830 C.2     1  UNL1        0.3030
      3  O          9.5540   -2.4580   -3.1260 O.2     1  UNL1       -0.2520
      4  O          7.3070   -2.4860   -3.4750 O.3     1  UNL1       -0.4810
      5  H          7.2000   -2.3440   -4.4910 H       1  UNL1        0.2960
      6  C          7.2140   -1.5210   -0.7600 C.3     1  UNL1        0.0470
      7  C          6.4620   -0.3870   -0.1620 C.2     1  UNL1       -0.0470
      8  C          6.0310   -0.4280    1.1500 C.2     1  UNL1        0.0040
      9  C          6.1610    0.7550   -0.8790 C.2     1  UNL1        0.0040
     10  C          5.3330    0.6320    1.6970 C.2     1  UNL1        0.0000
     11  C          5.4650    1.8130   -0.3370 C.2     1  UNL1        0.0000
     12  C          5.0350    1.7690    0.9740 C.2     1  UNL1        0.0000
@<TRIPOS>BOND
     1     5     4    1
     2     4     2    1
     3     3     2    2
     4     2     1    1
     5     1     6    1
     6     9    11    1
     7     9     7    2
     8     6     7    1
     9    11    12    2
    10     7     8    1
    11    12    10    1
    12     8    10    2
