@<TRIPOS>MOLECULE
/home/cewinharhar/GITHUB/reincatalyze/data/processed/docking_pred/2023-Apr-25-2033_maxeplen5_maxtrainstep200_exh16_gamma099_lrac3e-4_lrcr1e-3/2b611616233e02901686b2fc0a6dd8ec9c570ff2_ligand_2.pdbqt
 12 12 0 0 0
SMALL
GASTEIGER

@<TRIPOS>ATOM
      1  C          8.4470   -0.6500   -2.0930 C.3     1  UNL1        0.1270
      2  C          8.4180   -1.9160   -2.8710 C.2     1  UNL1        0.3030
      3  O          7.3120   -2.4060   -3.2020 O.2     1  UNL1       -0.2520
      4  O          9.5780   -2.5850   -3.2520 O.3     1  UNL1       -0.4810
      5  H          9.6320   -3.6150   -3.2690 H       1  UNL1        0.2960
      6  C          7.0580   -0.0730   -2.1160 C.3     1  UNL1        0.0470
      7  C          6.4830    0.0760   -0.7530 C.2     1  UNL1       -0.0470
      8  C          6.5880   -0.9340    0.1830 C.2     1  UNL1        0.0040
      9  C          5.8210    1.2230   -0.3560 C.2     1  UNL1        0.0040
     10  C          6.0500   -0.7850    1.4470 C.2     1  UNL1        0.0000
     11  C          5.2840    1.3750    0.9030 C.2     1  UNL1        0.0000
     12  C          5.3900    0.3630    1.8360 C.2     1  UNL1        0.0000
@<TRIPOS>BOND
     1     5     4    1
     2     4     2    1
     3     3     2    2
     4     2     1    1
     5     6     1    1
     6     6     7    1
     7     7     9    2
     8     7     8    1
     9     9    11    1
    10     8    10    2
    11    11    12    2
    12    10    12    1
