MODEL 1
REMARK VINA RESULT:      -7.3      0.000      0.000
REMARK SMILES O=C(O)CCc1ccccc1
REMARK SMILES IDX 4 1 2 2 1 3 3 4 5 6 6 7 7 8 11 9 8 10 10 11 9 12
REMARK H PARENT 3 5
REMARK Flexibility Score: inf
ROOT
ATOM      1  C   UNL     1       8.447  -0.650  -2.093  1.00  0.00     0.127 C 
ENDROOT
BRANCH   1   2
ATOM      2  C   UNL     1       8.418  -1.916  -2.871  1.00  0.00     0.303 C 
ATOM      3  O   UNL     1       7.312  -2.406  -3.202  1.00  0.00    -0.252 OA
BRANCH   2   4
ATOM      4  O   UNL     1       9.578  -2.585  -3.252  1.00  0.00    -0.481 OA
ATOM      5  H   UNL     1       9.632  -3.615  -3.269  1.00  0.00     0.296 HD
ENDBRANCH   2   4
ENDBRANCH   1   2
BRANCH   1   6
ATOM      6  C   UNL     1       7.058  -0.073  -2.116  1.00  0.00     0.047 C 
BRANCH   6   7
ATOM      7  C   UNL     1       6.483   0.076  -0.753  1.00  0.00    -0.047 A 
ATOM      8  C   UNL     1       6.588  -0.934   0.183  1.00  0.00     0.004 A 
ATOM      9  C   UNL     1       5.821   1.223  -0.356  1.00  0.00     0.004 A 
ATOM     10  C   UNL     1       6.050  -0.785   1.447  1.00  0.00     0.000 A 
ATOM     11  C   UNL     1       5.284   1.375   0.903  1.00  0.00     0.000 A 
ATOM     12  C   UNL     1       5.390   0.363   1.836  1.00  0.00     0.000 A 
ENDBRANCH   6   7
ENDBRANCH   1   6
TORSDOF 4
ENDMDL
MODEL 2
REMARK VINA RESULT:      -7.2      0.039      1.420
REMARK SMILES O=C(O)CCc1ccccc1
REMARK SMILES IDX 4 1 2 2 1 3 3 4 5 6 6 7 7 8 11 9 8 10 10 11 9 12
REMARK H PARENT 3 5
REMARK Flexibility Score: inf
ROOT
ATOM      1  C   UNL     1       8.460  -0.609  -2.140  1.00  0.00     0.127 C 
ENDROOT
BRANCH   1   2
ATOM      2  C   UNL     1       8.425  -1.896  -2.882  1.00  0.00     0.303 C 
ATOM      3  O   UNL     1       7.316  -2.390  -3.198  1.00  0.00    -0.252 OA
BRANCH   2   4
ATOM      4  O   UNL     1       9.582  -2.580  -3.246  1.00  0.00    -0.481 OA
ATOM      5  H   UNL     1       9.647  -3.608  -3.188  1.00  0.00     0.296 HD
ENDBRANCH   2   4
ENDBRANCH   1   2
BRANCH   1   6
ATOM      6  C   UNL     1       7.066  -0.045  -2.146  1.00  0.00     0.047 C 
BRANCH   6   7
ATOM      7  C   UNL     1       6.500   0.085  -0.778  1.00  0.00    -0.047 A 
ATOM      8  C   UNL     1       5.846   1.235  -0.381  1.00  0.00     0.004 A 
ATOM      9  C   UNL     1       6.596  -0.928   0.157  1.00  0.00     0.004 A 
ATOM     10  C   UNL     1       5.323   1.345   0.893  1.00  0.00     0.000 A 
ATOM     11  C   UNL     1       6.076  -0.821   1.427  1.00  0.00     0.000 A 
ATOM     12  C   UNL     1       5.423   0.330   1.822  1.00  0.00     0.000 A 
ENDBRANCH   6   7
ENDBRANCH   1   6
TORSDOF 4
ENDMDL
MODEL 3
REMARK VINA RESULT:      -7.1      0.695      1.492
REMARK SMILES O=C(O)CCc1ccccc1
REMARK SMILES IDX 4 1 2 2 1 3 3 4 5 6 6 7 7 8 11 9 8 10 10 11 9 12
REMARK H PARENT 3 5
REMARK Flexibility Score: inf
ROOT
ATOM      1  C   UNL     1       8.328  -1.061  -1.660  1.00  0.00     0.127 C 
ENDROOT
BRANCH   1   2
ATOM      2  C   UNL     1       8.425  -2.030  -2.783  1.00  0.00     0.303 C 
ATOM      3  O   UNL     1       9.554  -2.458  -3.126  1.00  0.00    -0.252 OA
BRANCH   2   4
ATOM      4  O   UNL     1       7.307  -2.486  -3.475  1.00  0.00    -0.481 OA
ATOM      5  H   UNL     1       7.200  -2.344  -4.491  1.00  0.00     0.296 HD
ENDBRANCH   2   4
ENDBRANCH   1   2
BRANCH   1   6
ATOM      6  C   UNL     1       7.214  -1.521  -0.760  1.00  0.00     0.047 C 
BRANCH   6   7
ATOM      7  C   UNL     1       6.462  -0.387  -0.162  1.00  0.00    -0.047 A 
ATOM      8  C   UNL     1       6.031  -0.428   1.150  1.00  0.00     0.004 A 
ATOM      9  C   UNL     1       6.161   0.755  -0.879  1.00  0.00     0.004 A 
ATOM     10  C   UNL     1       5.333   0.632   1.697  1.00  0.00     0.000 A 
ATOM     11  C   UNL     1       5.465   1.813  -0.337  1.00  0.00     0.000 A 
ATOM     12  C   UNL     1       5.035   1.769   0.974  1.00  0.00     0.000 A 
ENDBRANCH   6   7
ENDBRANCH   1   6
TORSDOF 4
ENDMDL
MODEL 4
REMARK VINA RESULT:      -6.8      3.303      5.183
REMARK SMILES O=C(O)CCc1ccccc1
REMARK SMILES IDX 4 1 2 2 1 3 3 4 5 6 6 7 7 8 11 9 8 10 10 11 9 12
REMARK H PARENT 3 5
REMARK Flexibility Score: inf
ROOT
ATOM      1  C   UNL     1       5.033   1.789   0.745  1.00  0.00     0.127 C 
ENDROOT
BRANCH   1   2
ATOM      2  C   UNL     1       4.461   1.108   1.936  1.00  0.00     0.303 C 
ATOM      3  O   UNL     1       5.108   0.182   2.481  1.00  0.00    -0.252 OA
BRANCH   2   4
ATOM      4  O   UNL     1       3.227   1.460   2.477  1.00  0.00    -0.481 OA
ATOM      5  H   UNL     1       2.755   2.342   2.227  1.00  0.00     0.296 HD
ENDBRANCH   2   4
ENDBRANCH   1   2
BRANCH   1   6
ATOM      6  C   UNL     1       6.530   1.705   0.851  1.00  0.00     0.047 C 
BRANCH   6   7
ATOM      7  C   UNL     1       7.139   0.960  -0.282  1.00  0.00    -0.047 A 
ATOM      8  C   UNL     1       8.433   1.215  -0.694  1.00  0.00     0.004 A 
ATOM      9  C   UNL     1       6.449  -0.018  -0.974  1.00  0.00     0.004 A 
ATOM     10  C   UNL     1       8.989   0.516  -1.748  1.00  0.00     0.000 A 
ATOM     11  C   UNL     1       7.001  -0.716  -2.025  1.00  0.00     0.000 A 
ATOM     12  C   UNL     1       8.294  -0.458  -2.435  1.00  0.00     0.000 A 
ENDBRANCH   6   7
ENDBRANCH   1   6
TORSDOF 4
ENDMDL
MODEL 5
REMARK VINA RESULT:      -6.6      1.900      2.564
REMARK SMILES O=C(O)CCc1ccccc1
REMARK SMILES IDX 4 1 2 2 1 3 3 4 5 6 6 7 7 8 11 9 8 10 10 11 9 12
REMARK H PARENT 3 5
REMARK Flexibility Score: inf
ROOT
ATOM      1  C   UNL     1       8.197   0.241  -2.205  1.00  0.00     0.127 C 
ENDROOT
BRANCH   1   2
ATOM      2  C   UNL     1       9.338   0.356  -1.260  1.00  0.00     0.303 C 
ATOM      3  O   UNL     1       9.413  -0.437  -0.291  1.00  0.00    -0.252 OA
BRANCH   2   4
ATOM      4  O   UNL     1      10.335   1.317  -1.406  1.00  0.00    -0.481 OA
ATOM      5  H   UNL     1      10.914   1.626  -0.610  1.00  0.00     0.296 HD
ENDBRANCH   2   4
ENDBRANCH   1   2
BRANCH   1   6
ATOM      6  C   UNL     1       7.133  -0.581  -1.531  1.00  0.00     0.047 C 
BRANCH   6   7
ATOM      7  C   UNL     1       6.342   0.208  -0.551  1.00  0.00    -0.047 A 
ATOM      8  C   UNL     1       5.816   1.441  -0.883  1.00  0.00     0.004 A 
ATOM      9  C   UNL     1       6.093  -0.248   0.731  1.00  0.00     0.004 A 
ATOM     10  C   UNL     1       5.082   2.166   0.036  1.00  0.00     0.000 A 
ATOM     11  C   UNL     1       5.362   0.473   1.648  1.00  0.00     0.000 A 
ATOM     12  C   UNL     1       4.838   1.705   1.314  1.00  0.00     0.000 A 
ENDBRANCH   6   7
ENDBRANCH   1   6
TORSDOF 4
ENDMDL
