@<TRIPOS>MOLECULE
/home/cewinharhar/GITHUB/reincatalyze/data/processed/docking_pred/2023-Apr-25-2033_maxeplen5_maxtrainstep200_exh16_gamma099_lrac3e-4_lrcr1e-3/2b611616233e02901686b2fc0a6dd8ec9c570ff2_ligand_2.pdbqt
 12 12 0 0 0
SMALL
GASTEIGER

@<TRIPOS>ATOM
      1  C          8.1970    0.2410   -2.2050 C.3     1  UNL1        0.1270
      2  C          9.3380    0.3560   -1.2600 C.2     1  UNL1        0.3030
      3  O          9.4130   -0.4370   -0.2910 O.2     1  UNL1       -0.2520
      4  O         10.3350    1.3170   -1.4060 O.3     1  UNL1       -0.4810
      5  H         10.9140    1.6260   -0.6100 H       1  UNL1        0.2960
      6  C          7.1330   -0.5810   -1.5310 C.3     1  UNL1        0.0470
      7  C          6.3420    0.2080   -0.5510 C.2     1  UNL1       -0.0470
      8  C          5.8160    1.4410   -0.8830 C.2     1  UNL1        0.0040
      9  C          6.0930   -0.2480    0.7310 C.2     1  UNL1        0.0040
     10  C          5.0820    2.1660    0.0360 C.2     1  UNL1        0.0000
     11  C          5.3620    0.4730    1.6480 C.2     1  UNL1        0.0000
     12  C          4.8380    1.7050    1.3140 C.2     1  UNL1        0.0000
@<TRIPOS>BOND
     1     1     6    1
     2     1     2    1
     3     6     7    1
     4     4     2    1
     5     4     5    1
     6     2     3    2
     7     8     7    2
     8     8    10    1
     9     7     9    1
    10    10    12    2
    11     9    11    2
    12    12    11    1
