MODEL 1
REMARK VINA RESULT:      -7.3      0.000      0.000
REMARK SMILES O=C(O)CCc1ccccc1
REMARK SMILES IDX 4 1 2 2 1 3 3 4 5 6 6 7 7 8 11 9 8 10 10 11 9 12
REMARK H PARENT 3 5
REMARK Flexibility Score: inf
ROOT
ATOM      1  C   UNL     1       8.457  -0.597  -2.185  1.00  0.00     0.127 C 
ENDROOT
BRANCH   1   2
ATOM      2  C   UNL     1       8.466  -1.893  -2.913  1.00  0.00     0.303 C 
ATOM      3  O   UNL     1       9.555  -2.494  -3.080  1.00  0.00    -0.252 OA
BRANCH   2   4
ATOM      4  O   UNL     1       7.306  -2.472  -3.421  1.00  0.00    -0.481 OA
ATOM      5  H   UNL     1       7.313  -3.404  -3.863  1.00  0.00     0.296 HD
ENDBRANCH   2   4
ENDBRANCH   1   2
BRANCH   1   6
ATOM      6  C   UNL     1       7.041  -0.092  -2.176  1.00  0.00     0.047 C 
BRANCH   6   7
ATOM      7  C   UNL     1       6.497   0.047  -0.800  1.00  0.00    -0.047 A 
ATOM      8  C   UNL     1       5.856   1.203  -0.398  1.00  0.00     0.004 A 
ATOM      9  C   UNL     1       6.601  -0.964   0.137  1.00  0.00     0.004 A 
ATOM     10  C   UNL     1       5.354   1.321   0.884  1.00  0.00     0.000 A 
ATOM     11  C   UNL     1       6.101  -0.848   1.415  1.00  0.00     0.000 A 
ATOM     12  C   UNL     1       5.462   0.309   1.815  1.00  0.00     0.000 A 
ENDBRANCH   6   7
ENDBRANCH   1   6
TORSDOF 4
ENDMDL
MODEL 2
REMARK VINA RESULT:      -7.3      0.129      1.719
REMARK SMILES O=C(O)CCc1ccccc1
REMARK SMILES IDX 4 1 2 2 1 3 3 4 5 6 6 7 7 8 11 9 8 10 10 11 9 12
REMARK H PARENT 3 5
REMARK Flexibility Score: inf
ROOT
ATOM      1  C   UNL     1       8.456  -0.653  -2.082  1.00  0.00     0.127 C 
ENDROOT
BRANCH   1   2
ATOM      2  C   UNL     1       8.431  -1.911  -2.872  1.00  0.00     0.303 C 
ATOM      3  O   UNL     1       7.326  -2.404  -3.205  1.00  0.00    -0.252 OA
BRANCH   2   4
ATOM      4  O   UNL     1       9.593  -2.573  -3.261  1.00  0.00    -0.481 OA
ATOM      5  H   UNL     1       9.889  -2.617  -4.248  1.00  0.00     0.296 HD
ENDBRANCH   2   4
ENDBRANCH   1   2
BRANCH   1   6
ATOM      6  C   UNL     1       7.072  -0.065  -2.124  1.00  0.00     0.047 C 
BRANCH   6   7
ATOM      7  C   UNL     1       6.485   0.100  -0.769  1.00  0.00    -0.047 A 
ATOM      8  C   UNL     1       6.581  -0.900   0.180  1.00  0.00     0.004 A 
ATOM      9  C   UNL     1       5.819   1.251  -0.391  1.00  0.00     0.004 A 
ATOM     10  C   UNL     1       6.032  -0.736   1.437  1.00  0.00     0.000 A 
ATOM     11  C   UNL     1       5.271   1.417   0.861  1.00  0.00     0.000 A 
ATOM     12  C   UNL     1       5.368   0.416   1.807  1.00  0.00     0.000 A 
ENDBRANCH   6   7
ENDBRANCH   1   6
TORSDOF 4
ENDMDL
MODEL 3
REMARK VINA RESULT:      -6.8      3.388      5.075
REMARK SMILES O=C(O)CCc1ccccc1
REMARK SMILES IDX 4 1 2 2 1 3 3 4 5 6 6 7 7 8 11 9 8 10 10 11 9 12
REMARK H PARENT 3 5
REMARK Flexibility Score: inf
ROOT
ATOM      1  C   UNL     1       5.006   1.778   0.720  1.00  0.00     0.127 C 
ENDROOT
BRANCH   1   2
ATOM      2  C   UNL     1       4.460   1.114   1.932  1.00  0.00     0.303 C 
ATOM      3  O   UNL     1       5.130   0.211   2.489  1.00  0.00    -0.252 OA
BRANCH   2   4
ATOM      4  O   UNL     1       3.227   1.456   2.481  1.00  0.00    -0.481 OA
ATOM      5  H   UNL     1       2.736   2.324   2.217  1.00  0.00     0.296 HD
ENDBRANCH   2   4
ENDBRANCH   1   2
BRANCH   1   6
ATOM      6  C   UNL     1       6.506   1.741   0.819  1.00  0.00     0.047 C 
BRANCH   6   7
ATOM      7  C   UNL     1       7.131   0.993  -0.302  1.00  0.00    -0.047 A 
ATOM      8  C   UNL     1       8.445   1.215  -0.667  1.00  0.00     0.004 A 
ATOM      9  C   UNL     1       6.438   0.044  -1.030  1.00  0.00     0.004 A 
ATOM     10  C   UNL     1       9.016   0.514  -1.711  1.00  0.00     0.000 A 
ATOM     11  C   UNL     1       7.005  -0.657  -2.071  1.00  0.00     0.000 A 
ATOM     12  C   UNL     1       8.318  -0.432  -2.433  1.00  0.00     0.000 A 
ENDBRANCH   6   7
ENDBRANCH   1   6
TORSDOF 4
ENDMDL
MODEL 4
REMARK VINA RESULT:      -6.6      1.947      2.669
REMARK SMILES O=C(O)CCc1ccccc1
REMARK SMILES IDX 4 1 2 2 1 3 3 4 5 6 6 7 7 8 11 9 8 10 10 11 9 12
REMARK H PARENT 3 5
REMARK Flexibility Score: inf
ROOT
ATOM      1  C   UNL     1       8.295   0.136  -2.173  1.00  0.00     0.127 C 
ENDROOT
BRANCH   1   2
ATOM      2  C   UNL     1       9.417   0.361  -1.224  1.00  0.00     0.303 C 
ATOM      3  O   UNL     1       9.509  -0.362  -0.202  1.00  0.00    -0.252 OA
BRANCH   2   4
ATOM      4  O   UNL     1      10.378   1.348  -1.424  1.00  0.00    -0.481 OA
ATOM      5  H   UNL     1      11.386   1.130  -1.442  1.00  0.00     0.296 HD
ENDBRANCH   2   4
ENDBRANCH   1   2
BRANCH   1   6
ATOM      6  C   UNL     1       7.244  -0.661  -1.450  1.00  0.00     0.047 C 
BRANCH   6   7
ATOM      7  C   UNL     1       6.417   0.179  -0.545  1.00  0.00    -0.047 A 
ATOM      8  C   UNL     1       6.142  -0.221   0.749  1.00  0.00     0.004 A 
ATOM      9  C   UNL     1       5.889   1.392  -0.946  1.00  0.00     0.004 A 
ATOM     10  C   UNL     1       5.372   0.568   1.582  1.00  0.00     0.000 A 
ATOM     11  C   UNL     1       5.121   2.180  -0.117  1.00  0.00     0.000 A 
ATOM     12  C   UNL     1       4.847   1.777   1.175  1.00  0.00     0.000 A 
ENDBRANCH   6   7
ENDBRANCH   1   6
TORSDOF 4
ENDMDL
MODEL 5
REMARK VINA RESULT:      -6.5      3.734      4.974
REMARK SMILES O=C(O)CCc1ccccc1
REMARK SMILES IDX 4 1 2 2 1 3 3 4 5 6 6 7 7 8 11 9 8 10 10 11 9 12
REMARK H PARENT 3 5
REMARK Flexibility Score: inf
ROOT
ATOM      1  C   UNL     1       5.332   2.942   0.064  1.00  0.00     0.127 C 
ENDROOT
BRANCH   1   2
ATOM      2  C   UNL     1       6.205   3.858   0.844  1.00  0.00     0.303 C 
ATOM      3  O   UNL     1       6.854   4.746   0.240  1.00  0.00    -0.252 OA
BRANCH   2   4
ATOM      4  O   UNL     1       6.333   3.771   2.227  1.00  0.00    -0.481 OA
ATOM      5  H   UNL     1       5.774   3.107   2.785  1.00  0.00     0.296 HD
ENDBRANCH   2   4
ENDBRANCH   1   2
BRANCH   1   6
ATOM      6  C   UNL     1       5.233   1.651   0.828  1.00  0.00     0.047 C 
BRANCH   6   7
ATOM      7  C   UNL     1       6.022   0.558   0.202  1.00  0.00    -0.047 A 
ATOM      8  C   UNL     1       6.334   0.582  -1.143  1.00  0.00     0.004 A 
ATOM      9  C   UNL     1       6.481  -0.526   0.926  1.00  0.00     0.004 A 
ATOM     10  C   UNL     1       7.069  -0.439  -1.716  1.00  0.00     0.000 A 
ATOM     11  C   UNL     1       7.213  -1.545   0.359  1.00  0.00     0.000 A 
ATOM     12  C   UNL     1       7.523  -1.519  -0.986  1.00  0.00     0.000 A 
ENDBRANCH   6   7
ENDBRANCH   1   6
TORSDOF 4
ENDMDL
