@<TRIPOS>MOLECULE
/home/cewinharhar/GITHUB/reincatalyze/data/processed/docking_pred/2023-Apr-25-2033_maxeplen5_maxtrainstep200_exh16_gamma099_lrac3e-4_lrcr1e-3/2cf69de7cf34ef354308742c6722c88054a527ce_ligand_2.pdbqt
 12 12 0 0 0
SMALL
GASTEIGER

@<TRIPOS>ATOM
      1  C          8.2950    0.1360   -2.1730 C.3     1  UNL1        0.1270
      2  C          9.4170    0.3610   -1.2240 C.2     1  UNL1        0.3030
      3  O          9.5090   -0.3620   -0.2020 O.2     1  UNL1       -0.2520
      4  O         10.3780    1.3480   -1.4240 O.3     1  UNL1       -0.4810
      5  H         11.3860    1.1300   -1.4420 H       1  UNL1        0.2960
      6  C          7.2440   -0.6610   -1.4500 C.3     1  UNL1        0.0470
      7  C          6.4170    0.1790   -0.5450 C.2     1  UNL1       -0.0470
      8  C          6.1420   -0.2210    0.7490 C.2     1  UNL1        0.0040
      9  C          5.8890    1.3920   -0.9460 C.2     1  UNL1        0.0040
     10  C          5.3720    0.5680    1.5820 C.2     1  UNL1        0.0000
     11  C          5.1210    2.1800   -0.1170 C.2     1  UNL1        0.0000
     12  C          4.8470    1.7770    1.1750 C.2     1  UNL1        0.0000
@<TRIPOS>BOND
     1     1     6    1
     2     1     2    1
     3     6     7    1
     4     5     4    1
     5     4     2    1
     6     2     3    2
     7     9     7    2
     8     9    11    1
     9     7     8    1
    10    11    12    2
    11     8    10    2
    12    12    10    1
