@<TRIPOS>MOLECULE
/home/cewinharhar/GITHUB/reincatalyze/data/processed/docking_pred/2023-Apr-25-2033_maxeplen5_maxtrainstep200_exh16_gamma099_lrac3e-4_lrcr1e-3/2cf69de7cf34ef354308742c6722c88054a527ce_ligand_2.pdbqt
 12 12 0 0 0
SMALL
GASTEIGER

@<TRIPOS>ATOM
      1  C          5.3320    2.9420    0.0640 C.3     1  UNL1        0.1270
      2  C          6.2050    3.8580    0.8440 C.2     1  UNL1        0.3030
      3  O          6.8540    4.7460    0.2400 O.2     1  UNL1       -0.2520
      4  O          6.3330    3.7710    2.2270 O.3     1  UNL1       -0.4810
      5  H          5.7740    3.1070    2.7850 H       1  UNL1        0.2960
      6  C          5.2330    1.6510    0.8280 C.3     1  UNL1        0.0470
      7  C          6.0220    0.5580    0.2020 C.2     1  UNL1       -0.0470
      8  C          6.3340    0.5820   -1.1430 C.2     1  UNL1        0.0040
      9  C          6.4810   -0.5260    0.9260 C.2     1  UNL1        0.0040
     10  C          7.0690   -0.4390   -1.7160 C.2     1  UNL1        0.0000
     11  C          7.2130   -1.5450    0.3590 C.2     1  UNL1        0.0000
     12  C          7.5230   -1.5190   -0.9860 C.2     1  UNL1        0.0000
@<TRIPOS>BOND
     1    10     8    1
     2    10    12    2
     3     8     7    2
     4    12    11    1
     5     1     6    1
     6     1     2    1
     7     7     6    1
     8     7     9    1
     9     3     2    2
    10    11     9    2
    11     2     4    1
    12     4     5    1
