@<TRIPOS>MOLECULE
/home/cewinharhar/GITHUB/reincatalyze/data/processed/docking_pred/2023-Apr-25-2033_maxeplen5_maxtrainstep200_exh16_gamma099_lrac3e-4_lrcr1e-3/2cf69de7cf34ef354308742c6722c88054a527ce_ligand_2.pdbqt
 12 12 0 0 0
SMALL
GASTEIGER

@<TRIPOS>ATOM
      1  C          8.4560   -0.6530   -2.0820 C.3     1  UNL1        0.1270
      2  C          8.4310   -1.9110   -2.8720 C.2     1  UNL1        0.3030
      3  O          7.3260   -2.4040   -3.2050 O.2     1  UNL1       -0.2520
      4  O          9.5930   -2.5730   -3.2610 O.3     1  UNL1       -0.4810
      5  H          9.8890   -2.6170   -4.2480 H       1  UNL1        0.2960
      6  C          7.0720   -0.0650   -2.1240 C.3     1  UNL1        0.0470
      7  C          6.4850    0.1000   -0.7690 C.2     1  UNL1       -0.0470
      8  C          6.5810   -0.9000    0.1800 C.2     1  UNL1        0.0040
      9  C          5.8190    1.2510   -0.3910 C.2     1  UNL1        0.0040
     10  C          6.0320   -0.7360    1.4370 C.2     1  UNL1        0.0000
     11  C          5.2710    1.4170    0.8610 C.2     1  UNL1        0.0000
     12  C          5.3680    0.4160    1.8070 C.2     1  UNL1        0.0000
@<TRIPOS>BOND
     1     5     4    1
     2     4     2    1
     3     3     2    2
     4     2     1    1
     5     6     1    1
     6     6     7    1
     7     7     9    2
     8     7     8    1
     9     9    11    1
    10     8    10    2
    11    11    12    2
    12    10    12    1
