@<TRIPOS>MOLECULE
/home/cewinharhar/GITHUB/reincatalyze/data/processed/docking_pred/2023-Apr-25-2033_maxeplen5_maxtrainstep200_exh16_gamma099_lrac3e-4_lrcr1e-3/2cf69de7cf34ef354308742c6722c88054a527ce_ligand_2.pdbqt
 12 12 0 0 0
SMALL
GASTEIGER

@<TRIPOS>ATOM
      1  C          5.0060    1.7780    0.7200 C.3     1  UNL1        0.1270
      2  C          4.4600    1.1140    1.9320 C.2     1  UNL1        0.3030
      3  O          5.1300    0.2110    2.4890 O.2     1  UNL1       -0.2520
      4  O          3.2270    1.4560    2.4810 O.3     1  UNL1       -0.4810
      5  H          2.7360    2.3240    2.2170 H       1  UNL1        0.2960
      6  C          6.5060    1.7410    0.8190 C.3     1  UNL1        0.0470
      7  C          7.1310    0.9930   -0.3020 C.2     1  UNL1       -0.0470
      8  C          8.4450    1.2150   -0.6670 C.2     1  UNL1        0.0040
      9  C          6.4380    0.0440   -1.0300 C.2     1  UNL1        0.0040
     10  C          9.0160    0.5140   -1.7110 C.2     1  UNL1        0.0000
     11  C          7.0050   -0.6570   -2.0710 C.2     1  UNL1        0.0000
     12  C          8.3180   -0.4320   -2.4330 C.2     1  UNL1        0.0000
@<TRIPOS>BOND
     1    12    11    2
     2    12    10    1
     3    11     9    1
     4    10     8    2
     5     9     7    2
     6     8     7    1
     7     7     6    1
     8     1     6    1
     9     1     2    1
    10     2     4    1
    11     2     3    2
    12     5     4    1
