@<TRIPOS>MOLECULE
/home/cewinharhar/GITHUB/reincatalyze/data/processed/docking_pred/2023-Apr-25-2033_maxeplen5_maxtrainstep200_exh16_gamma099_lrac3e-4_lrcr1e-3/2d2d9026ea33a6842fa37a74e1533968fe9c5ac5_ligand_2.pdbqt
 12 12 0 0 0
SMALL
GASTEIGER

@<TRIPOS>ATOM
      1  C          8.1710    0.2750   -2.1790 C.3     1  UNL1        0.1270
      2  C          9.3280    0.3920   -1.2540 C.2     1  UNL1        0.3030
      3  O          9.4250   -0.4050   -0.2900 O.2     1  UNL1       -0.2520
      4  O         10.3180    1.3580   -1.4150 O.3     1  UNL1       -0.4810
      5  H         11.1450    1.3980   -0.7990 H       1  UNL1        0.2960
      6  C          7.1370   -0.5820   -1.5030 C.3     1  UNL1        0.0470
      7  C          6.3490    0.1710   -0.4930 C.2     1  UNL1       -0.0470
      8  C          6.1430   -0.3350    0.7760 C.2     1  UNL1        0.0040
      9  C          5.7880    1.4040   -0.7680 C.2     1  UNL1        0.0040
     10  C          5.4080    0.3730    1.7080 C.2     1  UNL1        0.0000
     11  C          5.0560    2.1120    0.1590 C.2     1  UNL1        0.0000
     12  C          4.8510    1.6030    1.4260 C.2     1  UNL1        0.0000
@<TRIPOS>BOND
     1     1     6    1
     2     1     2    1
     3     6     7    1
     4     4     2    1
     5     4     5    1
     6     2     3    2
     7     9     7    2
     8     9    11    1
     9     7     8    1
    10    11    12    2
    11     8    10    2
    12    12    10    1
