@<TRIPOS>MOLECULE
/home/cewinharhar/GITHUB/reincatalyze/data/processed/docking_pred/2023-Apr-25-2033_maxeplen5_maxtrainstep200_exh16_gamma099_lrac3e-4_lrcr1e-3/2d2d9026ea33a6842fa37a74e1533968fe9c5ac5_ligand_2.pdbqt
 12 12 0 0 0
SMALL
GASTEIGER

@<TRIPOS>ATOM
      1  C          8.4100   -0.5810   -2.1820 C.3     1  UNL1        0.1270
      2  C          8.3910   -1.8810   -2.9010 C.2     1  UNL1        0.3030
      3  O          7.2880   -2.3870   -3.2230 O.2     1  UNL1       -0.2520
      4  O          9.5550   -2.5680   -3.2350 O.3     1  UNL1       -0.4810
      5  H          9.5810   -3.2510   -4.0080 H       1  UNL1        0.2960
      6  C          7.0000   -0.0590   -2.1530 C.3     1  UNL1        0.0470
      7  C          6.4670    0.0590   -0.7700 C.2     1  UNL1       -0.0470
      8  C          5.8300    1.2080   -0.3440 C.2     1  UNL1        0.0040
      9  C          6.5810   -0.9650    0.1520 C.2     1  UNL1        0.0040
     10  C          5.3380    1.3070    0.9430 C.2     1  UNL1        0.0000
     11  C          6.0920   -0.8690    1.4360 C.2     1  UNL1        0.0000
     12  C          5.4560    0.2810    1.8580 C.2     1  UNL1        0.0000
@<TRIPOS>BOND
     1     5     4    1
     2     4     2    1
     3     3     2    2
     4     2     1    1
     5     1     6    1
     6     6     7    1
     7     7     8    2
     8     7     9    1
     9     8    10    1
    10     9    11    2
    11    10    12    2
    12    11    12    1
