@<TRIPOS>MOLECULE
/home/cewinharhar/GITHUB/reincatalyze/data/processed/docking_pred/2023-Apr-25-2033_maxeplen5_maxtrainstep200_exh16_gamma099_lrac3e-4_lrcr1e-3/2d2d9026ea33a6842fa37a74e1533968fe9c5ac5_ligand_2.pdbqt
 12 12 0 0 0
SMALL
GASTEIGER

@<TRIPOS>ATOM
      1  C          8.4300   -0.6550   -2.0880 C.3     1  UNL1        0.1270
      2  C          8.4120   -1.9140   -2.8780 C.2     1  UNL1        0.3030
      3  O          7.3090   -2.4140   -3.2080 O.2     1  UNL1       -0.2520
      4  O          9.5780   -2.5660   -3.2700 O.3     1  UNL1       -0.4810
      5  H          9.8720   -2.6080   -4.2580 H       1  UNL1        0.2960
      6  C          7.0390   -0.0850   -2.1130 C.3     1  UNL1        0.0470
      7  C          6.4670    0.0740   -0.7500 C.2     1  UNL1       -0.0470
      8  C          6.5760   -0.9280    0.1940 C.2     1  UNL1        0.0040
      9  C          5.8040    1.2240   -0.3600 C.2     1  UNL1        0.0040
     10  C          6.0410   -0.7690    1.4580 C.2     1  UNL1        0.0000
     11  C          5.2710    1.3840    0.8990 C.2     1  UNL1        0.0000
     12  C          5.3810    0.3810    1.8400 C.2     1  UNL1        0.0000
@<TRIPOS>BOND
     1     5     4    1
     2     4     2    1
     3     3     2    2
     4     2     1    1
     5     6     1    1
     6     6     7    1
     7     7     9    2
     8     7     8    1
     9     9    11    1
    10     8    10    2
    11    11    12    2
    12    10    12    1
