MODEL 1
REMARK VINA RESULT:      -7.3      0.000      0.000
REMARK SMILES O=C(O)CCc1ccccc1
REMARK SMILES IDX 4 1 2 2 1 3 3 4 5 6 6 7 7 8 11 9 8 10 10 11 9 12
REMARK H PARENT 3 5
REMARK Flexibility Score: inf
ROOT
ATOM      1  C   UNL     1       8.430  -0.655  -2.088  1.00  0.00     0.127 C 
ENDROOT
BRANCH   1   2
ATOM      2  C   UNL     1       8.412  -1.914  -2.878  1.00  0.00     0.303 C 
ATOM      3  O   UNL     1       7.309  -2.414  -3.208  1.00  0.00    -0.252 OA
BRANCH   2   4
ATOM      4  O   UNL     1       9.578  -2.566  -3.270  1.00  0.00    -0.481 OA
ATOM      5  H   UNL     1       9.872  -2.608  -4.258  1.00  0.00     0.296 HD
ENDBRANCH   2   4
ENDBRANCH   1   2
BRANCH   1   6
ATOM      6  C   UNL     1       7.039  -0.085  -2.113  1.00  0.00     0.047 C 
BRANCH   6   7
ATOM      7  C   UNL     1       6.467   0.074  -0.750  1.00  0.00    -0.047 A 
ATOM      8  C   UNL     1       6.576  -0.928   0.194  1.00  0.00     0.004 A 
ATOM      9  C   UNL     1       5.804   1.224  -0.360  1.00  0.00     0.004 A 
ATOM     10  C   UNL     1       6.041  -0.769   1.458  1.00  0.00     0.000 A 
ATOM     11  C   UNL     1       5.271   1.384   0.899  1.00  0.00     0.000 A 
ATOM     12  C   UNL     1       5.381   0.381   1.840  1.00  0.00     0.000 A 
ENDBRANCH   6   7
ENDBRANCH   1   6
TORSDOF 4
ENDMDL
MODEL 2
REMARK VINA RESULT:      -7.2      0.080      1.421
REMARK SMILES O=C(O)CCc1ccccc1
REMARK SMILES IDX 4 1 2 2 1 3 3 4 5 6 6 7 7 8 11 9 8 10 10 11 9 12
REMARK H PARENT 3 5
REMARK Flexibility Score: inf
ROOT
ATOM      1  C   UNL     1       8.410  -0.581  -2.182  1.00  0.00     0.127 C 
ENDROOT
BRANCH   1   2
ATOM      2  C   UNL     1       8.391  -1.881  -2.901  1.00  0.00     0.303 C 
ATOM      3  O   UNL     1       7.288  -2.387  -3.223  1.00  0.00    -0.252 OA
BRANCH   2   4
ATOM      4  O   UNL     1       9.555  -2.568  -3.235  1.00  0.00    -0.481 OA
ATOM      5  H   UNL     1       9.581  -3.251  -4.008  1.00  0.00     0.296 HD
ENDBRANCH   2   4
ENDBRANCH   1   2
BRANCH   1   6
ATOM      6  C   UNL     1       7.000  -0.059  -2.153  1.00  0.00     0.047 C 
BRANCH   6   7
ATOM      7  C   UNL     1       6.467   0.059  -0.770  1.00  0.00    -0.047 A 
ATOM      8  C   UNL     1       5.830   1.208  -0.344  1.00  0.00     0.004 A 
ATOM      9  C   UNL     1       6.581  -0.965   0.152  1.00  0.00     0.004 A 
ATOM     10  C   UNL     1       5.338   1.307   0.943  1.00  0.00     0.000 A 
ATOM     11  C   UNL     1       6.092  -0.869   1.436  1.00  0.00     0.000 A 
ATOM     12  C   UNL     1       5.456   0.281   1.858  1.00  0.00     0.000 A 
ENDBRANCH   6   7
ENDBRANCH   1   6
TORSDOF 4
ENDMDL
MODEL 3
REMARK VINA RESULT:      -6.8      3.307      5.182
REMARK SMILES O=C(O)CCc1ccccc1
REMARK SMILES IDX 4 1 2 2 1 3 3 4 5 6 6 7 7 8 11 9 8 10 10 11 9 12
REMARK H PARENT 3 5
REMARK Flexibility Score: inf
ROOT
ATOM      1  C   UNL     1       4.992   1.779   0.694  1.00  0.00     0.127 C 
ENDROOT
BRANCH   1   2
ATOM      2  C   UNL     1       4.464   1.118   1.916  1.00  0.00     0.303 C 
ATOM      3  O   UNL     1       5.146   0.222   2.470  1.00  0.00    -0.252 OA
BRANCH   2   4
ATOM      4  O   UNL     1       3.235   1.455   2.476  1.00  0.00    -0.481 OA
ATOM      5  H   UNL     1       3.057   2.388   2.877  1.00  0.00     0.296 HD
ENDBRANCH   2   4
ENDBRANCH   1   2
BRANCH   1   6
ATOM      6  C   UNL     1       6.492   1.775   0.790  1.00  0.00     0.047 C 
BRANCH   6   7
ATOM      7  C   UNL     1       7.129   1.018  -0.320  1.00  0.00    -0.047 A 
ATOM      8  C   UNL     1       8.455   1.216  -0.652  1.00  0.00     0.004 A 
ATOM      9  C   UNL     1       6.435   0.085  -1.067  1.00  0.00     0.004 A 
ATOM     10  C   UNL     1       9.038   0.507  -1.686  1.00  0.00     0.000 A 
ATOM     11  C   UNL     1       7.013  -0.623  -2.097  1.00  0.00     0.000 A 
ATOM     12  C   UNL     1       8.338  -0.423  -2.428  1.00  0.00     0.000 A 
ENDBRANCH   6   7
ENDBRANCH   1   6
TORSDOF 4
ENDMDL
MODEL 4
REMARK VINA RESULT:      -6.6      3.264      5.036
REMARK SMILES O=C(O)CCc1ccccc1
REMARK SMILES IDX 4 1 2 2 1 3 3 4 5 6 6 7 7 8 11 9 8 10 10 11 9 12
REMARK H PARENT 3 5
REMARK Flexibility Score: inf
ROOT
ATOM      1  C   UNL     1       5.011   1.792   0.714  1.00  0.00     0.127 C 
ENDROOT
BRANCH   1   2
ATOM      2  C   UNL     1       4.550   1.069   1.927  1.00  0.00     0.303 C 
ATOM      3  O   UNL     1       3.428   1.346   2.416  1.00  0.00    -0.252 OA
BRANCH   2   4
ATOM      4  O   UNL     1       5.317   0.087   2.549  1.00  0.00    -0.481 OA
ATOM      5  H   UNL     1       4.888  -0.668   3.105  1.00  0.00     0.296 HD
ENDBRANCH   2   4
ENDBRANCH   1   2
BRANCH   1   6
ATOM      6  C   UNL     1       6.513   1.844   0.762  1.00  0.00     0.047 C 
BRANCH   6   7
ATOM      7  C   UNL     1       7.143   1.058  -0.331  1.00  0.00    -0.047 A 
ATOM      8  C   UNL     1       6.416   0.137  -1.060  1.00  0.00     0.004 A 
ATOM      9  C   UNL     1       8.474   1.208  -0.672  1.00  0.00     0.004 A 
ATOM     10  C   UNL     1       7.012  -0.589  -2.074  1.00  0.00     0.000 A 
ATOM     11  C   UNL     1       9.070   0.487  -1.682  1.00  0.00     0.000 A 
ATOM     12  C   UNL     1       8.342  -0.434  -2.409  1.00  0.00     0.000 A 
ENDBRANCH   6   7
ENDBRANCH   1   6
TORSDOF 4
ENDMDL
MODEL 5
REMARK VINA RESULT:      -6.6      1.902      2.190
REMARK SMILES O=C(O)CCc1ccccc1
REMARK SMILES IDX 4 1 2 2 1 3 3 4 5 6 6 7 7 8 11 9 8 10 10 11 9 12
REMARK H PARENT 3 5
REMARK Flexibility Score: inf
ROOT
ATOM      1  C   UNL     1       8.171   0.275  -2.179  1.00  0.00     0.127 C 
ENDROOT
BRANCH   1   2
ATOM      2  C   UNL     1       9.328   0.392  -1.254  1.00  0.00     0.303 C 
ATOM      3  O   UNL     1       9.425  -0.405  -0.290  1.00  0.00    -0.252 OA
BRANCH   2   4
ATOM      4  O   UNL     1      10.318   1.358  -1.415  1.00  0.00    -0.481 OA
ATOM      5  H   UNL     1      11.145   1.398  -0.799  1.00  0.00     0.296 HD
ENDBRANCH   2   4
ENDBRANCH   1   2
BRANCH   1   6
ATOM      6  C   UNL     1       7.137  -0.582  -1.503  1.00  0.00     0.047 C 
BRANCH   6   7
ATOM      7  C   UNL     1       6.349   0.171  -0.493  1.00  0.00    -0.047 A 
ATOM      8  C   UNL     1       6.143  -0.335   0.776  1.00  0.00     0.004 A 
ATOM      9  C   UNL     1       5.788   1.404  -0.768  1.00  0.00     0.004 A 
ATOM     10  C   UNL     1       5.408   0.373   1.708  1.00  0.00     0.000 A 
ATOM     11  C   UNL     1       5.056   2.112   0.159  1.00  0.00     0.000 A 
ATOM     12  C   UNL     1       4.851   1.603   1.426  1.00  0.00     0.000 A 
ENDBRANCH   6   7
ENDBRANCH   1   6
TORSDOF 4
ENDMDL
