@<TRIPOS>MOLECULE
/home/cewinharhar/GITHUB/reincatalyze/data/processed/docking_pred/2023-Apr-25-2033_maxeplen5_maxtrainstep200_exh16_gamma099_lrac3e-4_lrcr1e-3/2d2d9026ea33a6842fa37a74e1533968fe9c5ac5_ligand_2.pdbqt
 12 12 0 0 0
SMALL
GASTEIGER

@<TRIPOS>ATOM
      1  C          4.9920    1.7790    0.6940 C.3     1  UNL1        0.1270
      2  C          4.4640    1.1180    1.9160 C.2     1  UNL1        0.3030
      3  O          5.1460    0.2220    2.4700 O.2     1  UNL1       -0.2520
      4  O          3.2350    1.4550    2.4760 O.3     1  UNL1       -0.4810
      5  H          3.0570    2.3880    2.8770 H       1  UNL1        0.2960
      6  C          6.4920    1.7750    0.7900 C.3     1  UNL1        0.0470
      7  C          7.1290    1.0180   -0.3200 C.2     1  UNL1       -0.0470
      8  C          8.4550    1.2160   -0.6520 C.2     1  UNL1        0.0040
      9  C          6.4350    0.0850   -1.0670 C.2     1  UNL1        0.0040
     10  C          9.0380    0.5070   -1.6860 C.2     1  UNL1        0.0000
     11  C          7.0130   -0.6230   -2.0970 C.2     1  UNL1        0.0000
     12  C          8.3380   -0.4230   -2.4280 C.2     1  UNL1        0.0000
@<TRIPOS>BOND
     1    12    11    2
     2    12    10    1
     3    11     9    1
     4    10     8    2
     5     9     7    2
     6     8     7    1
     7     7     6    1
     8     1     6    1
     9     1     2    1
    10     2     3    2
    11     2     4    1
    12     4     5    1
