@<TRIPOS>MOLECULE
/home/cewinharhar/GITHUB/reincatalyze/data/processed/docking_pred/2023-Apr-25-2033_maxeplen5_maxtrainstep200_exh16_gamma099_lrac3e-4_lrcr1e-3/2d2d9026ea33a6842fa37a74e1533968fe9c5ac5_ligand_2.pdbqt
 12 12 0 0 0
SMALL
GASTEIGER

@<TRIPOS>ATOM
      1  C          5.0110    1.7920    0.7140 C.3     1  UNL1        0.1270
      2  C          4.5500    1.0690    1.9270 C.2     1  UNL1        0.3030
      3  O          3.4280    1.3460    2.4160 O.2     1  UNL1       -0.2520
      4  O          5.3170    0.0870    2.5490 O.3     1  UNL1       -0.4810
      5  H          4.8880   -0.6680    3.1050 H       1  UNL1        0.2960
      6  C          6.5130    1.8440    0.7620 C.3     1  UNL1        0.0470
      7  C          7.1430    1.0580   -0.3310 C.2     1  UNL1       -0.0470
      8  C          6.4160    0.1370   -1.0600 C.2     1  UNL1        0.0040
      9  C          8.4740    1.2080   -0.6720 C.2     1  UNL1        0.0040
     10  C          7.0120   -0.5890   -2.0740 C.2     1  UNL1        0.0000
     11  C          9.0700    0.4870   -1.6820 C.2     1  UNL1        0.0000
     12  C          8.3420   -0.4340   -2.4090 C.2     1  UNL1        0.0000
@<TRIPOS>BOND
     1    12    10    2
     2    12    11    1
     3    10     8    1
     4    11     9    2
     5     8     7    2
     6     9     7    1
     7     7     6    1
     8     1     6    1
     9     1     2    1
    10     2     3    2
    11     2     4    1
    12     4     5    1
