@<TRIPOS>MOLECULE
/home/cewinharhar/GITHUB/reincatalyze/data/processed/docking_pred/2023-Apr-25-2033_maxeplen5_maxtrainstep200_exh16_gamma099_lrac3e-4_lrcr1e-3/2d863d4e78c56822cb27942f8f89755da93ab859_ligand_2.pdbqt
 12 12 0 0 0
SMALL
GASTEIGER

@<TRIPOS>ATOM
      1  C          8.4620   -0.6020   -2.1770 C.3     1  UNL1        0.1270
      2  C          8.4660   -1.8870   -2.9230 C.2     1  UNL1        0.3030
      3  O          9.5510   -2.4940   -3.0920 O.2     1  UNL1       -0.2520
      4  O          7.3050   -2.4510   -3.4460 O.3     1  UNL1       -0.4810
      5  H          6.3780   -2.2700   -3.0320 H       1  UNL1        0.2960
      6  C          7.0510   -0.0830   -2.1750 C.3     1  UNL1        0.0470
      7  C          6.4980    0.0540   -0.8020 C.2     1  UNL1       -0.0470
      8  C          5.8520    1.2090   -0.4040 C.2     1  UNL1        0.0040
      9  C          6.6000   -0.9560    0.1360 C.2     1  UNL1        0.0040
     10  C          5.3420    1.3260    0.8750 C.2     1  UNL1        0.0000
     11  C          6.0920   -0.8410    1.4110 C.2     1  UNL1        0.0000
     12  C          5.4480    0.3140    1.8070 C.2     1  UNL1        0.0000
@<TRIPOS>BOND
     1     4     5    1
     2     4     2    1
     3     3     2    2
     4     2     1    1
     5     1     6    1
     6     6     7    1
     7     7     8    2
     8     7     9    1
     9     8    10    1
    10     9    11    2
    11    10    12    2
    12    11    12    1
