@<TRIPOS>MOLECULE
/home/cewinharhar/GITHUB/reincatalyze/data/processed/docking_pred/2023-Apr-25-2033_maxeplen5_maxtrainstep200_exh16_gamma099_lrac3e-4_lrcr1e-3/2d863d4e78c56822cb27942f8f89755da93ab859_ligand_2.pdbqt
 12 12 0 0 0
SMALL
GASTEIGER

@<TRIPOS>ATOM
      1  C          8.4330   -0.6140   -2.1680 C.3     1  UNL1        0.1270
      2  C          8.4510   -1.8980   -2.9150 C.2     1  UNL1        0.3030
      3  O          9.5450   -2.4850   -3.0960 O.2     1  UNL1       -0.2520
      4  O          7.2950   -2.4820   -3.4250 O.3     1  UNL1       -0.4810
      5  H          6.8310   -2.1210   -4.2730 H       1  UNL1        0.2960
      6  C          7.0130   -0.1180   -2.1550 C.3     1  UNL1        0.0470
      7  C          6.4740    0.0240   -0.7770 C.2     1  UNL1       -0.0470
      8  C          6.6000   -0.9930    0.1490 C.2     1  UNL1        0.0040
      9  C          5.8270    1.1700   -0.3550 C.2     1  UNL1        0.0040
     10  C          6.0960   -0.8510    1.4270 C.2     1  UNL1        0.0000
     11  C          5.3230    1.3150    0.9190 C.2     1  UNL1        0.0000
     12  C          5.4500    0.2960    1.8420 C.2     1  UNL1        0.0000
@<TRIPOS>BOND
     1     5     4    1
     2     4     2    1
     3     3     2    2
     4     2     1    1
     5     1     6    1
     6     6     7    1
     7     7     9    2
     8     7     8    1
     9     9    11    1
    10     8    10    2
    11    11    12    2
    12    10    12    1
