@<TRIPOS>MOLECULE
/home/cewinharhar/GITHUB/reincatalyze/data/processed/docking_pred/2023-Apr-25-2033_maxeplen5_maxtrainstep200_exh16_gamma099_lrac3e-4_lrcr1e-3/2d863d4e78c56822cb27942f8f89755da93ab859_ligand_2.pdbqt
 12 12 0 0 0
SMALL
GASTEIGER

@<TRIPOS>ATOM
      1  C          5.5950    2.8550   -0.1580 C.3     1  UNL1        0.1270
      2  C          6.1970    3.8920    0.7200 C.2     1  UNL1        0.3030
      3  O          6.9420    4.7650    0.2140 O.2     1  UNL1       -0.2520
      4  O          5.9670    3.9340    2.0930 O.3     1  UNL1       -0.4810
      5  H          5.2850    4.5860    2.5100 H       1  UNL1        0.2960
      6  C          4.9450    1.8310    0.7310 C.3     1  UNL1        0.0470
      7  C          5.7640    0.5980    0.8690 C.2     1  UNL1       -0.0470
      8  C          6.6020    0.1780   -0.1460 C.2     1  UNL1        0.0040
      9  C          5.7310   -0.1830    2.0100 C.2     1  UNL1        0.0040
     10  C          7.3590   -0.9690   -0.0070 C.2     1  UNL1        0.0000
     11  C          6.4850   -1.3270    2.1510 C.2     1  UNL1        0.0000
     12  C          7.3200   -1.7440    1.1340 C.2     1  UNL1        0.0000
@<TRIPOS>BOND
     1     1     2    1
     2     1     6    1
     3     8    10    1
     4     8     7    2
     5    10    12    2
     6     3     2    2
     7     2     4    1
     8     6     7    1
     9     7     9    1
    10    12    11    1
    11     9    11    2
    12     4     5    1
