MODEL 1
REMARK VINA RESULT:      -7.3      0.000      0.000
REMARK SMILES O=C(O)CCc1ccccc1
REMARK SMILES IDX 4 1 2 2 1 3 3 4 5 6 6 7 7 8 11 9 8 10 10 11 9 12
REMARK H PARENT 3 5
REMARK Flexibility Score: inf
ROOT
ATOM      1  C   UNL     1       8.462  -0.602  -2.177  1.00  0.00     0.127 C 
ENDROOT
BRANCH   1   2
ATOM      2  C   UNL     1       8.466  -1.887  -2.923  1.00  0.00     0.303 C 
ATOM      3  O   UNL     1       9.551  -2.494  -3.092  1.00  0.00    -0.252 OA
BRANCH   2   4
ATOM      4  O   UNL     1       7.305  -2.451  -3.446  1.00  0.00    -0.481 OA
ATOM      5  H   UNL     1       6.378  -2.270  -3.032  1.00  0.00     0.296 HD
ENDBRANCH   2   4
ENDBRANCH   1   2
BRANCH   1   6
ATOM      6  C   UNL     1       7.051  -0.083  -2.175  1.00  0.00     0.047 C 
BRANCH   6   7
ATOM      7  C   UNL     1       6.498   0.054  -0.802  1.00  0.00    -0.047 A 
ATOM      8  C   UNL     1       5.852   1.209  -0.404  1.00  0.00     0.004 A 
ATOM      9  C   UNL     1       6.600  -0.956   0.136  1.00  0.00     0.004 A 
ATOM     10  C   UNL     1       5.342   1.326   0.875  1.00  0.00     0.000 A 
ATOM     11  C   UNL     1       6.092  -0.841   1.411  1.00  0.00     0.000 A 
ATOM     12  C   UNL     1       5.448   0.314   1.807  1.00  0.00     0.000 A 
ENDBRANCH   6   7
ENDBRANCH   1   6
TORSDOF 4
ENDMDL
MODEL 2
REMARK VINA RESULT:      -7.3      0.041      1.420
REMARK SMILES O=C(O)CCc1ccccc1
REMARK SMILES IDX 4 1 2 2 1 3 3 4 5 6 6 7 7 8 11 9 8 10 10 11 9 12
REMARK H PARENT 3 5
REMARK Flexibility Score: inf
ROOT
ATOM      1  C   UNL     1       8.433  -0.614  -2.168  1.00  0.00     0.127 C 
ENDROOT
BRANCH   1   2
ATOM      2  C   UNL     1       8.451  -1.898  -2.915  1.00  0.00     0.303 C 
ATOM      3  O   UNL     1       9.545  -2.485  -3.096  1.00  0.00    -0.252 OA
BRANCH   2   4
ATOM      4  O   UNL     1       7.295  -2.482  -3.425  1.00  0.00    -0.481 OA
ATOM      5  H   UNL     1       6.831  -2.121  -4.273  1.00  0.00     0.296 HD
ENDBRANCH   2   4
ENDBRANCH   1   2
BRANCH   1   6
ATOM      6  C   UNL     1       7.013  -0.118  -2.155  1.00  0.00     0.047 C 
BRANCH   6   7
ATOM      7  C   UNL     1       6.474   0.024  -0.777  1.00  0.00    -0.047 A 
ATOM      8  C   UNL     1       6.600  -0.993   0.149  1.00  0.00     0.004 A 
ATOM      9  C   UNL     1       5.827   1.170  -0.355  1.00  0.00     0.004 A 
ATOM     10  C   UNL     1       6.096  -0.851   1.427  1.00  0.00     0.000 A 
ATOM     11  C   UNL     1       5.323   1.315   0.919  1.00  0.00     0.000 A 
ATOM     12  C   UNL     1       5.450   0.296   1.842  1.00  0.00     0.000 A 
ENDBRANCH   6   7
ENDBRANCH   1   6
TORSDOF 4
ENDMDL
MODEL 3
REMARK VINA RESULT:      -6.8      3.392      5.102
REMARK SMILES O=C(O)CCc1ccccc1
REMARK SMILES IDX 4 1 2 2 1 3 3 4 5 6 6 7 7 8 11 9 8 10 10 11 9 12
REMARK H PARENT 3 5
REMARK Flexibility Score: inf
ROOT
ATOM      1  C   UNL     1       4.973   1.803   0.698  1.00  0.00     0.127 C 
ENDROOT
BRANCH   1   2
ATOM      2  C   UNL     1       4.461   1.128   1.918  1.00  0.00     0.303 C 
ATOM      3  O   UNL     1       5.158   0.238   2.463  1.00  0.00    -0.252 OA
BRANCH   2   4
ATOM      4  O   UNL     1       3.231   1.444   2.488  1.00  0.00    -0.481 OA
ATOM      5  H   UNL     1       2.445   0.776   2.492  1.00  0.00     0.296 HD
ENDBRANCH   2   4
ENDBRANCH   1   2
BRANCH   1   6
ATOM      6  C   UNL     1       6.474   1.826   0.789  1.00  0.00     0.047 C 
BRANCH   6   7
ATOM      7  C   UNL     1       7.121   1.072  -0.317  1.00  0.00    -0.047 A 
ATOM      8  C   UNL     1       6.400   0.192  -1.100  1.00  0.00     0.004 A 
ATOM      9  C   UNL     1       8.464   1.213  -0.615  1.00  0.00     0.004 A 
ATOM     10  C   UNL     1       7.012  -0.503  -2.126  1.00  0.00     0.000 A 
ATOM     11  C   UNL     1       9.075   0.521  -1.637  1.00  0.00     0.000 A 
ATOM     12  C   UNL     1       8.353  -0.359  -2.418  1.00  0.00     0.000 A 
ENDBRANCH   6   7
ENDBRANCH   1   6
TORSDOF 4
ENDMDL
MODEL 4
REMARK VINA RESULT:      -6.6      1.928      2.664
REMARK SMILES O=C(O)CCc1ccccc1
REMARK SMILES IDX 4 1 2 2 1 3 3 4 5 6 6 7 7 8 11 9 8 10 10 11 9 12
REMARK H PARENT 3 5
REMARK Flexibility Score: inf
ROOT
ATOM      1  C   UNL     1       8.231   0.280  -2.205  1.00  0.00     0.127 C 
ENDROOT
BRANCH   1   2
ATOM      2  C   UNL     1       9.373   0.372  -1.259  1.00  0.00     0.303 C 
ATOM      3  O   UNL     1       9.428  -0.420  -0.287  1.00  0.00    -0.252 OA
BRANCH   2   4
ATOM      4  O   UNL     1      10.393   1.307  -1.408  1.00  0.00    -0.481 OA
ATOM      5  H   UNL     1      10.598   1.749  -2.318  1.00  0.00     0.296 HD
ENDBRANCH   2   4
ENDBRANCH   1   2
BRANCH   1   6
ATOM      6  C   UNL     1       7.154  -0.530  -1.538  1.00  0.00     0.047 C 
BRANCH   6   7
ATOM      7  C   UNL     1       6.346   0.276  -0.584  1.00  0.00    -0.047 A 
ATOM      8  C   UNL     1       6.110  -0.164   0.704  1.00  0.00     0.004 A 
ATOM      9  C   UNL     1       5.797   1.495  -0.934  1.00  0.00     0.004 A 
ATOM     10  C   UNL     1       5.358   0.593   1.582  1.00  0.00     0.000 A 
ATOM     11  C   UNL     1       5.048   2.252  -0.061  1.00  0.00     0.000 A 
ATOM     12  C   UNL     1       4.813   1.809   1.226  1.00  0.00     0.000 A 
ENDBRANCH   6   7
ENDBRANCH   1   6
TORSDOF 4
ENDMDL
MODEL 5
REMARK VINA RESULT:      -6.6      3.832      4.915
REMARK SMILES O=C(O)CCc1ccccc1
REMARK SMILES IDX 4 1 2 2 1 3 3 4 5 6 6 7 7 8 11 9 8 10 10 11 9 12
REMARK H PARENT 3 5
REMARK Flexibility Score: inf
ROOT
ATOM      1  C   UNL     1       5.595   2.855  -0.158  1.00  0.00     0.127 C 
ENDROOT
BRANCH   1   2
ATOM      2  C   UNL     1       6.197   3.892   0.720  1.00  0.00     0.303 C 
ATOM      3  O   UNL     1       6.942   4.765   0.214  1.00  0.00    -0.252 OA
BRANCH   2   4
ATOM      4  O   UNL     1       5.967   3.934   2.093  1.00  0.00    -0.481 OA
ATOM      5  H   UNL     1       5.285   4.586   2.510  1.00  0.00     0.296 HD
ENDBRANCH   2   4
ENDBRANCH   1   2
BRANCH   1   6
ATOM      6  C   UNL     1       4.945   1.831   0.731  1.00  0.00     0.047 C 
BRANCH   6   7
ATOM      7  C   UNL     1       5.764   0.598   0.869  1.00  0.00    -0.047 A 
ATOM      8  C   UNL     1       6.602   0.178  -0.146  1.00  0.00     0.004 A 
ATOM      9  C   UNL     1       5.731  -0.183   2.010  1.00  0.00     0.004 A 
ATOM     10  C   UNL     1       7.359  -0.969  -0.007  1.00  0.00     0.000 A 
ATOM     11  C   UNL     1       6.485  -1.327   2.151  1.00  0.00     0.000 A 
ATOM     12  C   UNL     1       7.320  -1.744   1.134  1.00  0.00     0.000 A 
ENDBRANCH   6   7
ENDBRANCH   1   6
TORSDOF 4
ENDMDL
