@<TRIPOS>MOLECULE
/home/cewinharhar/GITHUB/reincatalyze/data/processed/docking_pred/2023-Apr-25-2033_maxeplen5_maxtrainstep200_exh16_gamma099_lrac3e-4_lrcr1e-3/2d863d4e78c56822cb27942f8f89755da93ab859_ligand_2.pdbqt
 12 12 0 0 0
SMALL
GASTEIGER

@<TRIPOS>ATOM
      1  C          4.9730    1.8030    0.6980 C.3     1  UNL1        0.1270
      2  C          4.4610    1.1280    1.9180 C.2     1  UNL1        0.3030
      3  O          5.1580    0.2380    2.4630 O.2     1  UNL1       -0.2520
      4  O          3.2310    1.4440    2.4880 O.3     1  UNL1       -0.4810
      5  H          2.4450    0.7760    2.4920 H       1  UNL1        0.2960
      6  C          6.4740    1.8260    0.7890 C.3     1  UNL1        0.0470
      7  C          7.1210    1.0720   -0.3170 C.2     1  UNL1       -0.0470
      8  C          6.4000    0.1920   -1.1000 C.2     1  UNL1        0.0040
      9  C          8.4640    1.2130   -0.6150 C.2     1  UNL1        0.0040
     10  C          7.0120   -0.5030   -2.1260 C.2     1  UNL1        0.0000
     11  C          9.0750    0.5210   -1.6370 C.2     1  UNL1        0.0000
     12  C          8.3530   -0.3590   -2.4180 C.2     1  UNL1        0.0000
@<TRIPOS>BOND
     1    12    10    2
     2    12    11    1
     3    10     8    1
     4    11     9    2
     5     8     7    2
     6     9     7    1
     7     7     6    1
     8     1     6    1
     9     1     2    1
    10     2     3    2
    11     2     4    1
    12     4     5    1
