@<TRIPOS>MOLECULE
/home/cewinharhar/GITHUB/reincatalyze/data/processed/docking_pred/2023-Apr-25-2033_maxeplen5_maxtrainstep200_exh16_gamma099_lrac3e-4_lrcr1e-3/2d863d4e78c56822cb27942f8f89755da93ab859_ligand_2.pdbqt
 12 12 0 0 0
SMALL
GASTEIGER

@<TRIPOS>ATOM
      1  C          8.2310    0.2800   -2.2050 C.3     1  UNL1        0.1270
      2  C          9.3730    0.3720   -1.2590 C.2     1  UNL1        0.3030
      3  O          9.4280   -0.4200   -0.2870 O.2     1  UNL1       -0.2520
      4  O         10.3930    1.3070   -1.4080 O.3     1  UNL1       -0.4810
      5  H         10.5980    1.7490   -2.3180 H       1  UNL1        0.2960
      6  C          7.1540   -0.5300   -1.5380 C.3     1  UNL1        0.0470
      7  C          6.3460    0.2760   -0.5840 C.2     1  UNL1       -0.0470
      8  C          6.1100   -0.1640    0.7040 C.2     1  UNL1        0.0040
      9  C          5.7970    1.4950   -0.9340 C.2     1  UNL1        0.0040
     10  C          5.3580    0.5930    1.5820 C.2     1  UNL1        0.0000
     11  C          5.0480    2.2520   -0.0610 C.2     1  UNL1        0.0000
     12  C          4.8130    1.8090    1.2260 C.2     1  UNL1        0.0000
@<TRIPOS>BOND
     1     5     4    1
     2     1     6    1
     3     1     2    1
     4     6     7    1
     5     4     2    1
     6     2     3    2
     7     9     7    2
     8     9    11    1
     9     7     8    1
    10    11    12    2
    11     8    10    2
    12    12    10    1
