@<TRIPOS>MOLECULE
/home/cewinharhar/GITHUB/reincatalyze/data/processed/docking_pred/2023-Apr-25-2033_maxeplen5_maxtrainstep200_exh16_gamma099_lrac3e-4_lrcr1e-3/2f41e52dfc6618f39d2325611a45b0a1c53476a0_ligand_2.pdbqt
 12 12 0 0 0
SMALL
GASTEIGER

@<TRIPOS>ATOM
      1  C          8.4380   -0.6450   -2.0930 C.3     1  UNL1        0.1270
      2  C          8.4140   -1.9090   -2.8740 C.2     1  UNL1        0.3030
      3  O          7.3100   -2.4030   -3.2060 O.2     1  UNL1       -0.2520
      4  O          9.5770   -2.5740   -3.2560 O.3     1  UNL1       -0.4810
      5  H          9.8640   -3.4630   -2.8180 H       1  UNL1        0.2960
      6  C          7.0460   -0.0770   -2.1080 C.3     1  UNL1        0.0470
      7  C          6.4760    0.0630   -0.7430 C.2     1  UNL1       -0.0470
      8  C          5.8220    1.2170   -0.3560 C.2     1  UNL1        0.0040
      9  C          6.5680   -0.9440    0.2000 C.2     1  UNL1        0.0040
     10  C          5.2950    1.3370    0.9160 C.2     1  UNL1        0.0000
     11  C          6.0440   -0.8260    1.4680 C.2     1  UNL1        0.0000
     12  C          5.3910    0.3280    1.8520 C.2     1  UNL1        0.0000
@<TRIPOS>BOND
     1     4     2    1
     2     4     5    1
     3     3     2    2
     4     2     1    1
     5     6     1    1
     6     6     7    1
     7     7     8    2
     8     7     9    1
     9     8    10    1
    10     9    11    2
    11    10    12    2
    12    11    12    1
