MODEL 1
REMARK VINA RESULT:      -7.3      0.000      0.000
REMARK SMILES O=C(O)CCc1ccccc1
REMARK SMILES IDX 4 1 2 2 1 3 3 4 5 6 6 7 7 8 11 9 8 10 10 11 9 12
REMARK H PARENT 3 5
REMARK Flexibility Score: inf
ROOT
ATOM      1  C   UNL     1       8.461  -0.654  -2.080  1.00  0.00     0.127 C 
ENDROOT
BRANCH   1   2
ATOM      2  C   UNL     1       8.429  -1.910  -2.873  1.00  0.00     0.303 C 
ATOM      3  O   UNL     1       7.321  -2.393  -3.211  1.00  0.00    -0.252 OA
BRANCH   2   4
ATOM      4  O   UNL     1       9.586  -2.579  -3.262  1.00  0.00    -0.481 OA
ATOM      5  H   UNL     1       9.863  -3.479  -2.839  1.00  0.00     0.296 HD
ENDBRANCH   2   4
ENDBRANCH   1   2
BRANCH   1   6
ATOM      6  C   UNL     1       7.082  -0.056  -2.123  1.00  0.00     0.047 C 
BRANCH   6   7
ATOM      7  C   UNL     1       6.492   0.107  -0.768  1.00  0.00    -0.047 A 
ATOM      8  C   UNL     1       6.592  -0.892   0.181  1.00  0.00     0.004 A 
ATOM      9  C   UNL     1       5.820   1.255  -0.392  1.00  0.00     0.004 A 
ATOM     10  C   UNL     1       6.040  -0.731   1.437  1.00  0.00     0.000 A 
ATOM     11  C   UNL     1       5.268   1.418   0.859  1.00  0.00     0.000 A 
ATOM     12  C   UNL     1       5.370   0.418   1.805  1.00  0.00     0.000 A 
ENDBRANCH   6   7
ENDBRANCH   1   6
TORSDOF 4
ENDMDL
MODEL 2
REMARK VINA RESULT:      -7.3      0.063      1.421
REMARK SMILES O=C(O)CCc1ccccc1
REMARK SMILES IDX 4 1 2 2 1 3 3 4 5 6 6 7 7 8 11 9 8 10 10 11 9 12
REMARK H PARENT 3 5
REMARK Flexibility Score: inf
ROOT
ATOM      1  C   UNL     1       8.438  -0.645  -2.093  1.00  0.00     0.127 C 
ENDROOT
BRANCH   1   2
ATOM      2  C   UNL     1       8.414  -1.909  -2.874  1.00  0.00     0.303 C 
ATOM      3  O   UNL     1       7.310  -2.403  -3.206  1.00  0.00    -0.252 OA
BRANCH   2   4
ATOM      4  O   UNL     1       9.577  -2.574  -3.256  1.00  0.00    -0.481 OA
ATOM      5  H   UNL     1       9.864  -3.463  -2.818  1.00  0.00     0.296 HD
ENDBRANCH   2   4
ENDBRANCH   1   2
BRANCH   1   6
ATOM      6  C   UNL     1       7.046  -0.077  -2.108  1.00  0.00     0.047 C 
BRANCH   6   7
ATOM      7  C   UNL     1       6.476   0.063  -0.743  1.00  0.00    -0.047 A 
ATOM      8  C   UNL     1       5.822   1.217  -0.356  1.00  0.00     0.004 A 
ATOM      9  C   UNL     1       6.568  -0.944   0.200  1.00  0.00     0.004 A 
ATOM     10  C   UNL     1       5.295   1.337   0.916  1.00  0.00     0.000 A 
ATOM     11  C   UNL     1       6.044  -0.826   1.468  1.00  0.00     0.000 A 
ATOM     12  C   UNL     1       5.391   0.328   1.852  1.00  0.00     0.000 A 
ENDBRANCH   6   7
ENDBRANCH   1   6
TORSDOF 4
ENDMDL
MODEL 3
REMARK VINA RESULT:      -7.1      0.552      1.110
REMARK SMILES O=C(O)CCc1ccccc1
REMARK SMILES IDX 4 1 2 2 1 3 3 4 5 6 6 7 7 8 11 9 8 10 10 11 9 12
REMARK H PARENT 3 5
REMARK Flexibility Score: inf
ROOT
ATOM      1  C   UNL     1       8.052  -1.366  -1.491  1.00  0.00     0.127 C 
ENDROOT
BRANCH   1   2
ATOM      2  C   UNL     1       8.254  -2.155  -2.734  1.00  0.00     0.303 C 
ATOM      3  O   UNL     1       9.408  -2.554  -3.025  1.00  0.00    -0.252 OA
BRANCH   2   4
ATOM      4  O   UNL     1       7.208  -2.475  -3.595  1.00  0.00    -0.481 OA
ATOM      5  H   UNL     1       6.223  -2.300  -3.343  1.00  0.00     0.296 HD
ENDBRANCH   2   4
ENDBRANCH   1   2
BRANCH   1   6
ATOM      6  C   UNL     1       7.051  -0.287  -1.799  1.00  0.00     0.047 C 
BRANCH   6   7
ATOM      7  C   UNL     1       6.346   0.197  -0.583  1.00  0.00    -0.047 A 
ATOM      8  C   UNL     1       6.311  -0.560   0.573  1.00  0.00     0.004 A 
ATOM      9  C   UNL     1       5.697   1.417  -0.545  1.00  0.00     0.004 A 
ATOM     10  C   UNL     1       5.653  -0.101   1.698  1.00  0.00     0.000 A 
ATOM     11  C   UNL     1       5.041   1.877   0.575  1.00  0.00     0.000 A 
ATOM     12  C   UNL     1       5.007   1.118   1.728  1.00  0.00     0.000 A 
ENDBRANCH   6   7
ENDBRANCH   1   6
TORSDOF 4
ENDMDL
MODEL 4
REMARK VINA RESULT:      -6.8      3.291      5.168
REMARK SMILES O=C(O)CCc1ccccc1
REMARK SMILES IDX 4 1 2 2 1 3 3 4 5 6 6 7 7 8 11 9 8 10 10 11 9 12
REMARK H PARENT 3 5
REMARK Flexibility Score: inf
ROOT
ATOM      1  C   UNL     1       4.991   1.782   0.669  1.00  0.00     0.127 C 
ENDROOT
BRANCH   1   2
ATOM      2  C   UNL     1       4.477   1.120   1.896  1.00  0.00     0.303 C 
ATOM      3  O   UNL     1       5.167   0.226   2.445  1.00  0.00    -0.252 OA
BRANCH   2   4
ATOM      4  O   UNL     1       3.251   1.453   2.467  1.00  0.00    -0.481 OA
ATOM      5  H   UNL     1       3.154   2.239   3.127  1.00  0.00     0.296 HD
ENDBRANCH   2   4
ENDBRANCH   1   2
BRANCH   1   6
ATOM      6  C   UNL     1       6.493   1.793   0.757  1.00  0.00     0.047 C 
BRANCH   6   7
ATOM      7  C   UNL     1       7.131   1.011  -0.334  1.00  0.00    -0.047 A 
ATOM      8  C   UNL     1       8.452   1.217  -0.683  1.00  0.00     0.004 A 
ATOM      9  C   UNL     1       6.444   0.048  -1.048  1.00  0.00     0.004 A 
ATOM     10  C   UNL     1       9.036   0.484  -1.698  1.00  0.00     0.000 A 
ATOM     11  C   UNL     1       7.023  -0.684  -2.060  1.00  0.00     0.000 A 
ATOM     12  C   UNL     1       8.343  -0.476  -2.407  1.00  0.00     0.000 A 
ENDBRANCH   6   7
ENDBRANCH   1   6
TORSDOF 4
ENDMDL
MODEL 5
REMARK VINA RESULT:      -6.6      3.807      4.941
REMARK SMILES O=C(O)CCc1ccccc1
REMARK SMILES IDX 4 1 2 2 1 3 3 4 5 6 6 7 7 8 11 9 8 10 10 11 9 12
REMARK H PARENT 3 5
REMARK Flexibility Score: inf
ROOT
ATOM      1  C   UNL     1       5.593   2.807  -0.114  1.00  0.00     0.127 C 
ENDROOT
BRANCH   1   2
ATOM      2  C   UNL     1       6.231   3.863   0.715  1.00  0.00     0.303 C 
ATOM      3  O   UNL     1       6.882   4.775   0.150  1.00  0.00    -0.252 OA
BRANCH   2   4
ATOM      4  O   UNL     1       6.133   3.884   2.104  1.00  0.00    -0.481 OA
ATOM      5  H   UNL     1       6.028   3.018   2.655  1.00  0.00     0.296 HD
ENDBRANCH   2   4
ENDBRANCH   1   2
BRANCH   1   6
ATOM      6  C   UNL     1       4.988   1.799   0.824  1.00  0.00     0.047 C 
BRANCH   6   7
ATOM      7  C   UNL     1       5.777   0.541   0.891  1.00  0.00    -0.047 A 
ATOM      8  C   UNL     1       5.816  -0.218   2.044  1.00  0.00     0.004 A 
ATOM      9  C   UNL     1       6.504   0.071  -0.187  1.00  0.00     0.004 A 
ATOM     10  C   UNL     1       6.553  -1.386   2.096  1.00  0.00     0.000 A 
ATOM     11  C   UNL     1       7.239  -1.093  -0.138  1.00  0.00     0.000 A 
ATOM     12  C   UNL     1       7.276  -1.849   1.016  1.00  0.00     0.000 A 
ENDBRANCH   6   7
ENDBRANCH   1   6
TORSDOF 4
ENDMDL
