@<TRIPOS>MOLECULE
/home/cewinharhar/GITHUB/reincatalyze/data/processed/docking_pred/2023-Apr-25-2033_maxeplen5_maxtrainstep200_exh16_gamma099_lrac3e-4_lrcr1e-3/2f41e52dfc6618f39d2325611a45b0a1c53476a0_ligand_2.pdbqt
 12 12 0 0 0
SMALL
GASTEIGER

@<TRIPOS>ATOM
      1  C          4.9910    1.7820    0.6690 C.3     1  UNL1        0.1270
      2  C          4.4770    1.1200    1.8960 C.2     1  UNL1        0.3030
      3  O          5.1670    0.2260    2.4450 O.2     1  UNL1       -0.2520
      4  O          3.2510    1.4530    2.4670 O.3     1  UNL1       -0.4810
      5  H          3.1540    2.2390    3.1270 H       1  UNL1        0.2960
      6  C          6.4930    1.7930    0.7570 C.3     1  UNL1        0.0470
      7  C          7.1310    1.0110   -0.3340 C.2     1  UNL1       -0.0470
      8  C          8.4520    1.2170   -0.6830 C.2     1  UNL1        0.0040
      9  C          6.4440    0.0480   -1.0480 C.2     1  UNL1        0.0040
     10  C          9.0360    0.4840   -1.6980 C.2     1  UNL1        0.0000
     11  C          7.0230   -0.6840   -2.0600 C.2     1  UNL1        0.0000
     12  C          8.3430   -0.4760   -2.4070 C.2     1  UNL1        0.0000
@<TRIPOS>BOND
     1    12    11    2
     2    12    10    1
     3    11     9    1
     4    10     8    2
     5     9     7    2
     6     8     7    1
     7     7     6    1
     8     1     6    1
     9     1     2    1
    10     2     3    2
    11     2     4    1
    12     4     5    1
