@<TRIPOS>MOLECULE
/home/cewinharhar/GITHUB/reincatalyze/data/processed/docking_pred/2023-Apr-25-2033_maxeplen5_maxtrainstep200_exh16_gamma099_lrac3e-4_lrcr1e-3/2f41e52dfc6618f39d2325611a45b0a1c53476a0_ligand_2.pdbqt
 12 12 0 0 0
SMALL
GASTEIGER

@<TRIPOS>ATOM
      1  C          5.5930    2.8070   -0.1140 C.3     1  UNL1        0.1270
      2  C          6.2310    3.8630    0.7150 C.2     1  UNL1        0.3030
      3  O          6.8820    4.7750    0.1500 O.2     1  UNL1       -0.2520
      4  O          6.1330    3.8840    2.1040 O.3     1  UNL1       -0.4810
      5  H          6.0280    3.0180    2.6550 H       1  UNL1        0.2960
      6  C          4.9880    1.7990    0.8240 C.3     1  UNL1        0.0470
      7  C          5.7770    0.5410    0.8910 C.2     1  UNL1       -0.0470
      8  C          5.8160   -0.2180    2.0440 C.2     1  UNL1        0.0040
      9  C          6.5040    0.0710   -0.1870 C.2     1  UNL1        0.0040
     10  C          6.5530   -1.3860    2.0960 C.2     1  UNL1        0.0000
     11  C          7.2390   -1.0930   -0.1380 C.2     1  UNL1        0.0000
     12  C          7.2760   -1.8490    1.0160 C.2     1  UNL1        0.0000
@<TRIPOS>BOND
     1     9    11    1
     2     9     7    2
     3    11    12    2
     4     1     2    1
     5     1     6    1
     6     3     2    2
     7     2     4    1
     8     6     7    1
     9     7     8    1
    10    12    10    1
    11     8    10    2
    12     4     5    1
