@<TRIPOS>MOLECULE
/home/cewinharhar/GITHUB/reincatalyze/data/processed/docking_pred/2023-Apr-25-2033_maxeplen5_maxtrainstep200_exh16_gamma099_lrac3e-4_lrcr1e-3/2f41e52dfc6618f39d2325611a45b0a1c53476a0_ligand_2.pdbqt
 12 12 0 0 0
SMALL
GASTEIGER

@<TRIPOS>ATOM
      1  C          8.4610   -0.6540   -2.0800 C.3     1  UNL1        0.1270
      2  C          8.4290   -1.9100   -2.8730 C.2     1  UNL1        0.3030
      3  O          7.3210   -2.3930   -3.2110 O.2     1  UNL1       -0.2520
      4  O          9.5860   -2.5790   -3.2620 O.3     1  UNL1       -0.4810
      5  H          9.8630   -3.4790   -2.8390 H       1  UNL1        0.2960
      6  C          7.0820   -0.0560   -2.1230 C.3     1  UNL1        0.0470
      7  C          6.4920    0.1070   -0.7680 C.2     1  UNL1       -0.0470
      8  C          6.5920   -0.8920    0.1810 C.2     1  UNL1        0.0040
      9  C          5.8200    1.2550   -0.3920 C.2     1  UNL1        0.0040
     10  C          6.0400   -0.7310    1.4370 C.2     1  UNL1        0.0000
     11  C          5.2680    1.4180    0.8590 C.2     1  UNL1        0.0000
     12  C          5.3700    0.4180    1.8050 C.2     1  UNL1        0.0000
@<TRIPOS>BOND
     1     4     2    1
     2     4     5    1
     3     3     2    2
     4     2     1    1
     5     6     1    1
     6     6     7    1
     7     7     9    2
     8     7     8    1
     9     9    11    1
    10     8    10    2
    11    11    12    2
    12    10    12    1
