@<TRIPOS>MOLECULE
/home/cewinharhar/GITHUB/reincatalyze/data/processed/docking_pred/2023-Apr-25-2033_maxeplen5_maxtrainstep200_exh16_gamma099_lrac3e-4_lrcr1e-3/2f41e52dfc6618f39d2325611a45b0a1c53476a0_ligand_2.pdbqt
 12 12 0 0 0
SMALL
GASTEIGER

@<TRIPOS>ATOM
      1  C          8.0520   -1.3660   -1.4910 C.3     1  UNL1        0.1270
      2  C          8.2540   -2.1550   -2.7340 C.2     1  UNL1        0.3030
      3  O          9.4080   -2.5540   -3.0250 O.2     1  UNL1       -0.2520
      4  O          7.2080   -2.4750   -3.5950 O.3     1  UNL1       -0.4810
      5  H          6.2230   -2.3000   -3.3430 H       1  UNL1        0.2960
      6  C          7.0510   -0.2870   -1.7990 C.3     1  UNL1        0.0470
      7  C          6.3460    0.1970   -0.5830 C.2     1  UNL1       -0.0470
      8  C          6.3110   -0.5600    0.5730 C.2     1  UNL1        0.0040
      9  C          5.6970    1.4170   -0.5450 C.2     1  UNL1        0.0040
     10  C          5.6530   -0.1010    1.6980 C.2     1  UNL1        0.0000
     11  C          5.0410    1.8770    0.5750 C.2     1  UNL1        0.0000
     12  C          5.0070    1.1180    1.7280 C.2     1  UNL1        0.0000
@<TRIPOS>BOND
     1     4     5    1
     2     4     2    1
     3     3     2    2
     4     2     1    1
     5     6     1    1
     6     6     7    1
     7     7     9    2
     8     7     8    1
     9     9    11    1
    10     8    10    2
    11    11    12    2
    12    10    12    1
