@<TRIPOS>MOLECULE
/home/cewinharhar/GITHUB/reincatalyze/data/processed/docking_pred/2023-Apr-25-2033_maxeplen5_maxtrainstep200_exh16_gamma099_lrac3e-4_lrcr1e-3/306d1dfeb5e1085b4f3e24b09348dc81ae645662_ligand_2.pdbqt
 12 12 0 0 0
SMALL
GASTEIGER

@<TRIPOS>ATOM
      1  C          8.4690   -0.7230   -2.0140 C.3     1  UNL1        0.1270
      2  C          8.4540   -1.9490   -2.8550 C.2     1  UNL1        0.3030
      3  O          9.5300   -2.5580   -3.0690 O.2     1  UNL1       -0.2520
      4  O          7.2850   -2.4530   -3.4190 O.3     1  UNL1       -0.4810
      5  H          6.4640   -2.6970   -2.8440 H       1  UNL1        0.2960
      6  C          7.0930   -0.1210   -2.0680 C.3     1  UNL1        0.0470
      7  C          6.4930    0.0440   -0.7180 C.2     1  UNL1       -0.0470
      8  C          6.5750   -0.9590    0.2290 C.2     1  UNL1        0.0040
      9  C          5.8300    1.1980   -0.3430 C.2     1  UNL1        0.0040
     10  C          6.0140   -0.7950    1.4810 C.2     1  UNL1        0.0000
     11  C          5.2700    1.3640    0.9040 C.2     1  UNL1        0.0000
     12  C          5.3530    0.3590    1.8480 C.2     1  UNL1        0.0000
@<TRIPOS>BOND
     1     4     2    1
     2     4     5    1
     3     3     2    2
     4     2     1    1
     5     6     1    1
     6     6     7    1
     7     7     9    2
     8     7     8    1
     9     9    11    1
    10     8    10    2
    11    11    12    2
    12    10    12    1
