@<TRIPOS>MOLECULE
/home/cewinharhar/GITHUB/reincatalyze/data/processed/docking_pred/2023-Apr-25-2033_maxeplen5_maxtrainstep200_exh16_gamma099_lrac3e-4_lrcr1e-3/306d1dfeb5e1085b4f3e24b09348dc81ae645662_ligand_2.pdbqt
 12 12 0 0 0
SMALL
GASTEIGER

@<TRIPOS>ATOM
      1  C          8.3480   -0.9920   -1.7550 C.3     1  UNL1        0.1270
      2  C          8.3770   -2.0460   -2.8020 C.2     1  UNL1        0.3030
      3  O          7.2970   -2.4450   -3.3000 O.2     1  UNL1       -0.2520
      4  O          9.5640   -2.6140   -3.2580 O.3     1  UNL1       -0.4810
      5  H          9.7330   -2.7920   -4.2600 H       1  UNL1        0.2960
      6  C          7.4210   -1.4610   -0.6680 C.3     1  UNL1        0.0470
      7  C          6.5800   -0.3610   -0.1260 C.2     1  UNL1       -0.0470
      8  C          6.2600    0.7400   -0.8950 C.2     1  UNL1        0.0040
      9  C          6.0800   -0.3840    1.1630 C.2     1  UNL1        0.0040
     10  C          5.4770    1.7570   -0.3820 C.2     1  UNL1        0.0000
     11  C          5.3000    0.6270    1.6770 C.2     1  UNL1        0.0000
     12  C          4.9820    1.7270    0.9060 C.2     1  UNL1        0.0000
@<TRIPOS>BOND
     1     5     4    1
     2     3     2    2
     3     4     2    1
     4     2     1    1
     5     1     6    1
     6     8    10    1
     7     8     7    2
     8     6     7    1
     9    10    12    2
    10     7     9    1
    11    12    11    1
    12     9    11    2
