@<TRIPOS>MOLECULE
/home/cewinharhar/GITHUB/reincatalyze/data/processed/docking_pred/2023-Apr-25-2033_maxeplen5_maxtrainstep200_exh16_gamma099_lrac3e-4_lrcr1e-3/306d1dfeb5e1085b4f3e24b09348dc81ae645662_ligand_2.pdbqt
 12 12 0 0 0
SMALL
GASTEIGER

@<TRIPOS>ATOM
      1  C          5.0200    1.7500    0.6840 C.3     1  UNL1        0.1270
      2  C          4.4760    1.1030    1.9060 C.2     1  UNL1        0.3030
      3  O          5.1400    0.1990    2.4680 O.2     1  UNL1       -0.2520
      4  O          3.2490    1.4630    2.4580 O.3     1  UNL1       -0.4810
      5  H          2.9520    1.1290    3.3880 H       1  UNL1        0.2960
      6  C          6.5200    1.7170    0.7850 C.3     1  UNL1        0.0470
      7  C          7.1470    0.9490   -0.3230 C.2     1  UNL1       -0.0470
      8  C          8.4500    1.1900   -0.7130 C.2     1  UNL1        0.0040
      9  C          6.4650   -0.0370   -1.0120 C.2     1  UNL1        0.0040
     10  C          9.0230    0.4700   -1.7450 C.2     1  UNL1        0.0000
     11  C          7.0340   -0.7560   -2.0400 C.2     1  UNL1        0.0000
     12  C          8.3360   -0.5120   -2.4280 C.2     1  UNL1        0.0000
@<TRIPOS>BOND
     1    12    11    2
     2    12    10    1
     3    11     9    1
     4    10     8    2
     5     9     7    2
     6     8     7    1
     7     7     6    1
     8     1     6    1
     9     1     2    1
    10     2     4    1
    11     2     3    2
    12     4     5    1
