@<TRIPOS>MOLECULE
/home/cewinharhar/GITHUB/reincatalyze/data/processed/docking_pred/2023-Apr-25-2033_maxeplen5_maxtrainstep200_exh16_gamma099_lrac3e-4_lrcr1e-3/306d1dfeb5e1085b4f3e24b09348dc81ae645662_ligand_2.pdbqt
 12 12 0 0 0
SMALL
GASTEIGER

@<TRIPOS>ATOM
      1  C          8.4560   -0.7200   -2.0430 C.3     1  UNL1        0.1270
      2  C          8.4730   -1.9470   -2.8810 C.2     1  UNL1        0.3030
      3  O          9.5670   -2.5160   -3.1130 O.2     1  UNL1       -0.2520
      4  O          7.3140   -2.4960   -3.4250 O.3     1  UNL1       -0.4810
      5  H          6.7840   -3.2370   -2.9410 H       1  UNL1        0.2960
      6  C          7.0630   -0.1580   -2.0900 C.3     1  UNL1        0.0470
      7  C          6.4770    0.0220   -0.7360 C.2     1  UNL1       -0.0470
      8  C          5.8300    1.1910   -0.3860 C.2     1  UNL1        0.0040
      9  C          6.5460   -0.9630    0.2320 C.2     1  UNL1        0.0040
     10  C          5.2890    1.3480    0.8760 C.2     1  UNL1        0.0000
     11  C          6.0070   -0.8090    1.4900 C.2     1  UNL1        0.0000
     12  C          5.3630    0.3610    1.8370 C.2     1  UNL1        0.0000
@<TRIPOS>BOND
     1     4     5    1
     2     4     2    1
     3     3     2    2
     4     2     1    1
     5     6     1    1
     6     6     7    1
     7     7     8    2
     8     7     9    1
     9     8    10    1
    10     9    11    2
    11    10    12    2
    12    11    12    1
