MODEL 1
REMARK VINA RESULT:      -7.3      0.000      0.000
REMARK SMILES O=C(O)CCc1ccccc1
REMARK SMILES IDX 4 1 2 2 1 3 3 4 5 6 6 7 7 8 11 9 8 10 10 11 9 12
REMARK H PARENT 3 5
REMARK Flexibility Score: inf
ROOT
ATOM      1  C   UNL     1       8.469  -0.723  -2.014  1.00  0.00     0.127 C 
ENDROOT
BRANCH   1   2
ATOM      2  C   UNL     1       8.454  -1.949  -2.855  1.00  0.00     0.303 C 
ATOM      3  O   UNL     1       9.530  -2.558  -3.069  1.00  0.00    -0.252 OA
BRANCH   2   4
ATOM      4  O   UNL     1       7.285  -2.453  -3.419  1.00  0.00    -0.481 OA
ATOM      5  H   UNL     1       6.464  -2.697  -2.844  1.00  0.00     0.296 HD
ENDBRANCH   2   4
ENDBRANCH   1   2
BRANCH   1   6
ATOM      6  C   UNL     1       7.093  -0.121  -2.068  1.00  0.00     0.047 C 
BRANCH   6   7
ATOM      7  C   UNL     1       6.493   0.044  -0.718  1.00  0.00    -0.047 A 
ATOM      8  C   UNL     1       6.575  -0.959   0.229  1.00  0.00     0.004 A 
ATOM      9  C   UNL     1       5.830   1.198  -0.343  1.00  0.00     0.004 A 
ATOM     10  C   UNL     1       6.014  -0.795   1.481  1.00  0.00     0.000 A 
ATOM     11  C   UNL     1       5.270   1.364   0.904  1.00  0.00     0.000 A 
ATOM     12  C   UNL     1       5.353   0.359   1.848  1.00  0.00     0.000 A 
ENDBRANCH   6   7
ENDBRANCH   1   6
TORSDOF 4
ENDMDL
MODEL 2
REMARK VINA RESULT:      -7.3      0.041      1.420
REMARK SMILES O=C(O)CCc1ccccc1
REMARK SMILES IDX 4 1 2 2 1 3 3 4 5 6 6 7 7 8 11 9 8 10 10 11 9 12
REMARK H PARENT 3 5
REMARK Flexibility Score: inf
ROOT
ATOM      1  C   UNL     1       8.456  -0.720  -2.043  1.00  0.00     0.127 C 
ENDROOT
BRANCH   1   2
ATOM      2  C   UNL     1       8.473  -1.947  -2.881  1.00  0.00     0.303 C 
ATOM      3  O   UNL     1       9.567  -2.516  -3.113  1.00  0.00    -0.252 OA
BRANCH   2   4
ATOM      4  O   UNL     1       7.314  -2.496  -3.425  1.00  0.00    -0.481 OA
ATOM      5  H   UNL     1       6.784  -3.237  -2.941  1.00  0.00     0.296 HD
ENDBRANCH   2   4
ENDBRANCH   1   2
BRANCH   1   6
ATOM      6  C   UNL     1       7.063  -0.158  -2.090  1.00  0.00     0.047 C 
BRANCH   6   7
ATOM      7  C   UNL     1       6.477   0.022  -0.736  1.00  0.00    -0.047 A 
ATOM      8  C   UNL     1       5.830   1.191  -0.386  1.00  0.00     0.004 A 
ATOM      9  C   UNL     1       6.546  -0.963   0.232  1.00  0.00     0.004 A 
ATOM     10  C   UNL     1       5.289   1.348   0.876  1.00  0.00     0.000 A 
ATOM     11  C   UNL     1       6.007  -0.809   1.490  1.00  0.00     0.000 A 
ATOM     12  C   UNL     1       5.363   0.361   1.837  1.00  0.00     0.000 A 
ENDBRANCH   6   7
ENDBRANCH   1   6
TORSDOF 4
ENDMDL
MODEL 3
REMARK VINA RESULT:      -7.1      0.653      1.865
REMARK SMILES O=C(O)CCc1ccccc1
REMARK SMILES IDX 4 1 2 2 1 3 3 4 5 6 6 7 7 8 11 9 8 10 10 11 9 12
REMARK H PARENT 3 5
REMARK Flexibility Score: inf
ROOT
ATOM      1  C   UNL     1       8.348  -0.992  -1.755  1.00  0.00     0.127 C 
ENDROOT
BRANCH   1   2
ATOM      2  C   UNL     1       8.377  -2.046  -2.802  1.00  0.00     0.303 C 
ATOM      3  O   UNL     1       7.297  -2.445  -3.300  1.00  0.00    -0.252 OA
BRANCH   2   4
ATOM      4  O   UNL     1       9.564  -2.614  -3.258  1.00  0.00    -0.481 OA
ATOM      5  H   UNL     1       9.733  -2.792  -4.260  1.00  0.00     0.296 HD
ENDBRANCH   2   4
ENDBRANCH   1   2
BRANCH   1   6
ATOM      6  C   UNL     1       7.421  -1.461  -0.668  1.00  0.00     0.047 C 
BRANCH   6   7
ATOM      7  C   UNL     1       6.580  -0.361  -0.126  1.00  0.00    -0.047 A 
ATOM      8  C   UNL     1       6.260   0.740  -0.895  1.00  0.00     0.004 A 
ATOM      9  C   UNL     1       6.080  -0.384   1.163  1.00  0.00     0.004 A 
ATOM     10  C   UNL     1       5.477   1.757  -0.382  1.00  0.00     0.000 A 
ATOM     11  C   UNL     1       5.300   0.627   1.677  1.00  0.00     0.000 A 
ATOM     12  C   UNL     1       4.982   1.727   0.906  1.00  0.00     0.000 A 
ENDBRANCH   6   7
ENDBRANCH   1   6
TORSDOF 4
ENDMDL
MODEL 4
REMARK VINA RESULT:      -6.8      3.369      5.105
REMARK SMILES O=C(O)CCc1ccccc1
REMARK SMILES IDX 4 1 2 2 1 3 3 4 5 6 6 7 7 8 11 9 8 10 10 11 9 12
REMARK H PARENT 3 5
REMARK Flexibility Score: inf
ROOT
ATOM      1  C   UNL     1       5.020   1.750   0.684  1.00  0.00     0.127 C 
ENDROOT
BRANCH   1   2
ATOM      2  C   UNL     1       4.476   1.103   1.906  1.00  0.00     0.303 C 
ATOM      3  O   UNL     1       5.140   0.199   2.468  1.00  0.00    -0.252 OA
BRANCH   2   4
ATOM      4  O   UNL     1       3.249   1.463   2.458  1.00  0.00    -0.481 OA
ATOM      5  H   UNL     1       2.952   1.129   3.388  1.00  0.00     0.296 HD
ENDBRANCH   2   4
ENDBRANCH   1   2
BRANCH   1   6
ATOM      6  C   UNL     1       6.520   1.717   0.785  1.00  0.00     0.047 C 
BRANCH   6   7
ATOM      7  C   UNL     1       7.147   0.949  -0.323  1.00  0.00    -0.047 A 
ATOM      8  C   UNL     1       8.450   1.190  -0.713  1.00  0.00     0.004 A 
ATOM      9  C   UNL     1       6.465  -0.037  -1.012  1.00  0.00     0.004 A 
ATOM     10  C   UNL     1       9.023   0.470  -1.745  1.00  0.00     0.000 A 
ATOM     11  C   UNL     1       7.034  -0.756  -2.040  1.00  0.00     0.000 A 
ATOM     12  C   UNL     1       8.336  -0.512  -2.428  1.00  0.00     0.000 A 
ENDBRANCH   6   7
ENDBRANCH   1   6
TORSDOF 4
ENDMDL
MODEL 5
REMARK VINA RESULT:      -6.6      1.983      2.681
REMARK SMILES O=C(O)CCc1ccccc1
REMARK SMILES IDX 4 1 2 2 1 3 3 4 5 6 6 7 7 8 11 9 8 10 10 11 9 12
REMARK H PARENT 3 5
REMARK Flexibility Score: inf
ROOT
ATOM      1  C   UNL     1       8.309   0.357  -2.014  1.00  0.00     0.127 C 
ENDROOT
BRANCH   1   2
ATOM      2  C   UNL     1       9.475   0.408  -1.094  1.00  0.00     0.303 C 
ATOM      3  O   UNL     1       9.519  -0.379  -0.117  1.00  0.00    -0.252 OA
BRANCH   2   4
ATOM      4  O   UNL     1      10.530   1.299  -1.272  1.00  0.00    -0.481 OA
ATOM      5  H   UNL     1      10.649   2.128  -0.670  1.00  0.00     0.296 HD
ENDBRANCH   2   4
ENDBRANCH   1   2
BRANCH   1   6
ATOM      6  C   UNL     1       7.285  -0.556  -1.398  1.00  0.00     0.047 C 
BRANCH   6   7
ATOM      7  C   UNL     1       6.432   0.140  -0.399  1.00  0.00    -0.047 A 
ATOM      8  C   UNL     1       5.855   1.363  -0.680  1.00  0.00     0.004 A 
ATOM      9  C   UNL     1       6.175  -0.396   0.849  1.00  0.00     0.004 A 
ATOM     10  C   UNL     1       5.063   2.001   0.255  1.00  0.00     0.000 A 
ATOM     11  C   UNL     1       5.386   0.238   1.783  1.00  0.00     0.000 A 
ATOM     12  C   UNL     1       4.811   1.461   1.499  1.00  0.00     0.000 A 
ENDBRANCH   6   7
ENDBRANCH   1   6
TORSDOF 4
ENDMDL
