@<TRIPOS>MOLECULE
/home/cewinharhar/GITHUB/reincatalyze/data/processed/docking_pred/2023-Apr-25-2033_maxeplen5_maxtrainstep200_exh16_gamma099_lrac3e-4_lrcr1e-3/306d1dfeb5e1085b4f3e24b09348dc81ae645662_ligand_2.pdbqt
 12 12 0 0 0
SMALL
GASTEIGER

@<TRIPOS>ATOM
      1  C          8.3090    0.3570   -2.0140 C.3     1  UNL1        0.1270
      2  C          9.4750    0.4080   -1.0940 C.2     1  UNL1        0.3030
      3  O          9.5190   -0.3790   -0.1170 O.2     1  UNL1       -0.2520
      4  O         10.5300    1.2990   -1.2720 O.3     1  UNL1       -0.4810
      5  H         10.6490    2.1280   -0.6700 H       1  UNL1        0.2960
      6  C          7.2850   -0.5560   -1.3980 C.3     1  UNL1        0.0470
      7  C          6.4320    0.1400   -0.3990 C.2     1  UNL1       -0.0470
      8  C          5.8550    1.3630   -0.6800 C.2     1  UNL1        0.0040
      9  C          6.1750   -0.3960    0.8490 C.2     1  UNL1        0.0040
     10  C          5.0630    2.0010    0.2550 C.2     1  UNL1        0.0000
     11  C          5.3860    0.2380    1.7830 C.2     1  UNL1        0.0000
     12  C          4.8110    1.4610    1.4990 C.2     1  UNL1        0.0000
@<TRIPOS>BOND
     1     1     6    1
     2     1     2    1
     3     6     7    1
     4     4     2    1
     5     4     5    1
     6     2     3    2
     7     8     7    2
     8     8    10    1
     9     7     9    1
    10    10    12    2
    11     9    11    2
    12    12    11    1
