@<TRIPOS>MOLECULE
/home/cewinharhar/GITHUB/reincatalyze/data/processed/docking_pred/2023-Apr-25-2033_maxeplen5_maxtrainstep200_exh16_gamma099_lrac3e-4_lrcr1e-3/31018d4d3337f577513d0037205f1d699057d88b_ligand_2.pdbqt
 12 12 0 0 0
SMALL
GASTEIGER

@<TRIPOS>ATOM
      1  C          4.9940    1.8290    0.7310 C.3     1  UNL1        0.1270
      2  C          4.4660    1.1280    1.9300 C.2     1  UNL1        0.3030
      3  O          5.1540    0.2250    2.4640 O.2     1  UNL1       -0.2520
      4  O          3.2290    1.4350    2.4910 O.3     1  UNL1       -0.4810
      5  H          2.3520    1.3490    1.9550 H       1  UNL1        0.2960
      6  C          6.4950    1.8100    0.8200 C.3     1  UNL1        0.0470
      7  C          7.1200    1.0600   -0.3010 C.2     1  UNL1       -0.0470
      8  C          6.3840    0.1840   -1.0750 C.2     1  UNL1        0.0040
      9  C          8.4570    1.1990   -0.6230 C.2     1  UNL1        0.0040
     10  C          6.9750   -0.5080   -2.1140 C.2     1  UNL1        0.0000
     11  C          9.0490    0.5110   -1.6590 C.2     1  UNL1        0.0000
     12  C          8.3110   -0.3640   -2.4300 C.2     1  UNL1        0.0000
@<TRIPOS>BOND
     1    12    10    2
     2    12    11    1
     3    10     8    1
     4    11     9    2
     5     8     7    2
     6     9     7    1
     7     7     6    1
     8     1     6    1
     9     1     2    1
    10     2     3    2
    11     2     4    1
    12     5     4    1
