@<TRIPOS>MOLECULE
/home/cewinharhar/GITHUB/reincatalyze/data/processed/docking_pred/2023-Apr-25-2033_maxeplen5_maxtrainstep200_exh16_gamma099_lrac3e-4_lrcr1e-3/31018d4d3337f577513d0037205f1d699057d88b_ligand_2.pdbqt
 12 12 0 0 0
SMALL
GASTEIGER

@<TRIPOS>ATOM
      1  C          8.4290   -0.6180   -2.1550 C.3     1  UNL1        0.1270
      2  C          8.4160   -1.9100   -2.8890 C.2     1  UNL1        0.3030
      3  O          7.3150   -2.4150   -3.2190 O.2     1  UNL1       -0.2520
      4  O          9.5830   -2.5890   -3.2280 O.3     1  UNL1       -0.4810
      5  H         10.2490   -2.2140   -3.9200 H       1  UNL1        0.2960
      6  C          7.0240   -0.0820   -2.1560 C.3     1  UNL1        0.0470
      7  C          6.4730    0.0680   -0.7830 C.2     1  UNL1       -0.0470
      8  C          5.8140    1.2200   -0.3990 C.2     1  UNL1        0.0040
      9  C          6.5910   -0.9260    0.1690 C.2     1  UNL1        0.0040
     10  C          5.3060    1.3490    0.8790 C.2     1  UNL1        0.0000
     11  C          6.0860   -0.8000    1.4440 C.2     1  UNL1        0.0000
     12  C          5.4270    0.3520    1.8250 C.2     1  UNL1        0.0000
@<TRIPOS>BOND
     1     5     4    1
     2     4     2    1
     3     3     2    2
     4     2     1    1
     5     6     1    1
     6     6     7    1
     7     7     8    2
     8     7     9    1
     9     8    10    1
    10     9    11    2
    11    10    12    2
    12    11    12    1
