@<TRIPOS>MOLECULE
/home/cewinharhar/GITHUB/reincatalyze/data/processed/docking_pred/2023-Apr-25-2033_maxeplen5_maxtrainstep200_exh16_gamma099_lrac3e-4_lrcr1e-3/31018d4d3337f577513d0037205f1d699057d88b_ligand_2.pdbqt
 12 12 0 0 0
SMALL
GASTEIGER

@<TRIPOS>ATOM
      1  C          8.3270   -1.4520    0.9530 C.3     1  UNL1        0.1270
      2  C          8.5300   -2.7220    0.2090 C.2     1  UNL1        0.3030
      3  O          9.0870   -3.6870    0.7860 O.2     1  UNL1       -0.2520
      4  O          8.1240   -2.8870   -1.1130 O.3     1  UNL1       -0.4810
      5  H          7.5540   -3.6930   -1.4110 H       1  UNL1        0.2960
      6  C          6.8660   -1.3580    1.2980 C.3     1  UNL1        0.0470
      7  C          6.2380   -0.1170    0.7730 C.2     1  UNL1       -0.0470
      8  C          6.4350    0.2880   -0.5330 C.2     1  UNL1        0.0040
      9  C          5.4310    0.6870    1.5570 C.2     1  UNL1        0.0040
     10  C          5.8460    1.4430   -1.0100 C.2     1  UNL1        0.0000
     11  C          4.8430    1.8390    1.0840 C.2     1  UNL1        0.0000
     12  C          5.0420    2.2410   -0.2210 C.2     1  UNL1        0.0000
@<TRIPOS>BOND
     1     5     4    1
     2     4     2    1
     3    10     8    1
     4    10    12    2
     5     8     7    2
     6    12    11    1
     7     2     3    2
     8     2     1    1
     9     7     6    1
    10     7     9    1
    11     1     6    1
    12    11     9    2
