@<TRIPOS>MOLECULE
/home/cewinharhar/GITHUB/reincatalyze/data/processed/docking_pred/2023-Apr-25-2033_maxeplen5_maxtrainstep200_exh16_gamma099_lrac3e-4_lrcr1e-3/31018d4d3337f577513d0037205f1d699057d88b_ligand_2.pdbqt
 12 12 0 0 0
SMALL
GASTEIGER

@<TRIPOS>ATOM
      1  C          5.3840    2.8910    0.0140 C.3     1  UNL1        0.1270
      2  C          6.2010    3.8530    0.7970 C.2     1  UNL1        0.3030
      3  O          6.8890    4.7080    0.1890 O.2     1  UNL1       -0.2520
      4  O          6.2350    3.8460    2.1890 O.3     1  UNL1       -0.4810
      5  H          5.7220    4.5450    2.7490 H       1  UNL1        0.2960
      6  C          4.8600    1.8570    0.9730 C.3     1  UNL1        0.0470
      7  C          5.6840    0.6200    0.9790 C.2     1  UNL1       -0.0470
      8  C          5.7680   -0.1790    2.1030 C.2     1  UNL1        0.0040
      9  C          6.4010    0.2080   -0.1290 C.2     1  UNL1        0.0040
     10  C          6.5370   -1.3270    2.0980 C.2     1  UNL1        0.0000
     11  C          7.1680   -0.9360   -0.1370 C.2     1  UNL1        0.0000
     12  C          7.2500   -1.7310    0.9890 C.2     1  UNL1        0.0000
@<TRIPOS>BOND
     1    11     9    1
     2    11    12    2
     3     9     7    2
     4     1     2    1
     5     1     6    1
     6     3     2    2
     7     2     4    1
     8     6     7    1
     9     7     8    1
    10    12    10    1
    11    10     8    2
    12     4     5    1
