MODEL 1
REMARK VINA RESULT:      -7.3      0.000      0.000
REMARK SMILES O=C(O)CCc1ccccc1
REMARK SMILES IDX 4 1 2 2 1 3 3 4 5 6 6 7 7 8 11 9 8 10 10 11 9 12
REMARK H PARENT 3 5
REMARK Flexibility Score: inf
ROOT
ATOM      1  C   UNL     1       8.450  -0.570  -2.203  1.00  0.00     0.127 C 
ENDROOT
BRANCH   1   2
ATOM      2  C   UNL     1       8.469  -1.881  -2.902  1.00  0.00     0.303 C 
ATOM      3  O   UNL     1       9.562  -2.479  -3.053  1.00  0.00    -0.252 OA
BRANCH   2   4
ATOM      4  O   UNL     1       7.314  -2.480  -3.398  1.00  0.00    -0.481 OA
ATOM      5  H   UNL     1       6.866  -2.158  -4.269  1.00  0.00     0.296 HD
ENDBRANCH   2   4
ENDBRANCH   1   2
BRANCH   1   6
ATOM      6  C   UNL     1       7.025  -0.090  -2.179  1.00  0.00     0.047 C 
BRANCH   6   7
ATOM      7  C   UNL     1       6.491   0.031  -0.797  1.00  0.00    -0.047 A 
ATOM      8  C   UNL     1       6.622  -0.999   0.114  1.00  0.00     0.004 A 
ATOM      9  C   UNL     1       5.843   1.170  -0.357  1.00  0.00     0.004 A 
ATOM     10  C   UNL     1       6.122  -0.875   1.396  1.00  0.00     0.000 A 
ATOM     11  C   UNL     1       5.344   1.296   0.920  1.00  0.00     0.000 A 
ATOM     12  C   UNL     1       5.476   0.265   1.829  1.00  0.00     0.000 A 
ENDBRANCH   6   7
ENDBRANCH   1   6
TORSDOF 4
ENDMDL
MODEL 2
REMARK VINA RESULT:      -7.3      0.109      1.718
REMARK SMILES O=C(O)CCc1ccccc1
REMARK SMILES IDX 4 1 2 2 1 3 3 4 5 6 6 7 7 8 11 9 8 10 10 11 9 12
REMARK H PARENT 3 5
REMARK Flexibility Score: inf
ROOT
ATOM      1  C   UNL     1       8.429  -0.618  -2.155  1.00  0.00     0.127 C 
ENDROOT
BRANCH   1   2
ATOM      2  C   UNL     1       8.416  -1.910  -2.889  1.00  0.00     0.303 C 
ATOM      3  O   UNL     1       7.315  -2.415  -3.219  1.00  0.00    -0.252 OA
BRANCH   2   4
ATOM      4  O   UNL     1       9.583  -2.589  -3.228  1.00  0.00    -0.481 OA
ATOM      5  H   UNL     1      10.249  -2.214  -3.920  1.00  0.00     0.296 HD
ENDBRANCH   2   4
ENDBRANCH   1   2
BRANCH   1   6
ATOM      6  C   UNL     1       7.024  -0.082  -2.156  1.00  0.00     0.047 C 
BRANCH   6   7
ATOM      7  C   UNL     1       6.473   0.068  -0.783  1.00  0.00    -0.047 A 
ATOM      8  C   UNL     1       5.814   1.220  -0.399  1.00  0.00     0.004 A 
ATOM      9  C   UNL     1       6.591  -0.926   0.169  1.00  0.00     0.004 A 
ATOM     10  C   UNL     1       5.306   1.349   0.879  1.00  0.00     0.000 A 
ATOM     11  C   UNL     1       6.086  -0.800   1.444  1.00  0.00     0.000 A 
ATOM     12  C   UNL     1       5.427   0.352   1.825  1.00  0.00     0.000 A 
ENDBRANCH   6   7
ENDBRANCH   1   6
TORSDOF 4
ENDMDL
MODEL 3
REMARK VINA RESULT:      -6.8      3.385      5.079
REMARK SMILES O=C(O)CCc1ccccc1
REMARK SMILES IDX 4 1 2 2 1 3 3 4 5 6 6 7 7 8 11 9 8 10 10 11 9 12
REMARK H PARENT 3 5
REMARK Flexibility Score: inf
ROOT
ATOM      1  C   UNL     1       4.994   1.829   0.731  1.00  0.00     0.127 C 
ENDROOT
BRANCH   1   2
ATOM      2  C   UNL     1       4.466   1.128   1.930  1.00  0.00     0.303 C 
ATOM      3  O   UNL     1       5.154   0.225   2.464  1.00  0.00    -0.252 OA
BRANCH   2   4
ATOM      4  O   UNL     1       3.229   1.435   2.491  1.00  0.00    -0.481 OA
ATOM      5  H   UNL     1       2.352   1.349   1.955  1.00  0.00     0.296 HD
ENDBRANCH   2   4
ENDBRANCH   1   2
BRANCH   1   6
ATOM      6  C   UNL     1       6.495   1.810   0.820  1.00  0.00     0.047 C 
BRANCH   6   7
ATOM      7  C   UNL     1       7.120   1.060  -0.301  1.00  0.00    -0.047 A 
ATOM      8  C   UNL     1       6.384   0.184  -1.075  1.00  0.00     0.004 A 
ATOM      9  C   UNL     1       8.457   1.199  -0.623  1.00  0.00     0.004 A 
ATOM     10  C   UNL     1       6.975  -0.508  -2.114  1.00  0.00     0.000 A 
ATOM     11  C   UNL     1       9.049   0.511  -1.659  1.00  0.00     0.000 A 
ATOM     12  C   UNL     1       8.311  -0.364  -2.430  1.00  0.00     0.000 A 
ENDBRANCH   6   7
ENDBRANCH   1   6
TORSDOF 4
ENDMDL
MODEL 4
REMARK VINA RESULT:      -6.6      3.801      4.927
REMARK SMILES O=C(O)CCc1ccccc1
REMARK SMILES IDX 4 1 2 2 1 3 3 4 5 6 6 7 7 8 11 9 8 10 10 11 9 12
REMARK H PARENT 3 5
REMARK Flexibility Score: inf
ROOT
ATOM      1  C   UNL     1       5.384   2.891   0.014  1.00  0.00     0.127 C 
ENDROOT
BRANCH   1   2
ATOM      2  C   UNL     1       6.201   3.853   0.797  1.00  0.00     0.303 C 
ATOM      3  O   UNL     1       6.889   4.708   0.189  1.00  0.00    -0.252 OA
BRANCH   2   4
ATOM      4  O   UNL     1       6.235   3.846   2.189  1.00  0.00    -0.481 OA
ATOM      5  H   UNL     1       5.722   4.545   2.749  1.00  0.00     0.296 HD
ENDBRANCH   2   4
ENDBRANCH   1   2
BRANCH   1   6
ATOM      6  C   UNL     1       4.860   1.857   0.973  1.00  0.00     0.047 C 
BRANCH   6   7
ATOM      7  C   UNL     1       5.684   0.620   0.979  1.00  0.00    -0.047 A 
ATOM      8  C   UNL     1       5.768  -0.179   2.103  1.00  0.00     0.004 A 
ATOM      9  C   UNL     1       6.401   0.208  -0.129  1.00  0.00     0.004 A 
ATOM     10  C   UNL     1       6.537  -1.327   2.098  1.00  0.00     0.000 A 
ATOM     11  C   UNL     1       7.168  -0.936  -0.137  1.00  0.00     0.000 A 
ATOM     12  C   UNL     1       7.250  -1.731   0.989  1.00  0.00     0.000 A 
ENDBRANCH   6   7
ENDBRANCH   1   6
TORSDOF 4
ENDMDL
MODEL 5
REMARK VINA RESULT:      -6.5      1.856      2.799
REMARK SMILES O=C(O)CCc1ccccc1
REMARK SMILES IDX 4 1 2 2 1 3 3 4 5 6 6 7 7 8 11 9 8 10 10 11 9 12
REMARK H PARENT 3 5
REMARK Flexibility Score: inf
ROOT
ATOM      1  C   UNL     1       8.327  -1.452   0.953  1.00  0.00     0.127 C 
ENDROOT
BRANCH   1   2
ATOM      2  C   UNL     1       8.530  -2.722   0.209  1.00  0.00     0.303 C 
ATOM      3  O   UNL     1       9.087  -3.687   0.786  1.00  0.00    -0.252 OA
BRANCH   2   4
ATOM      4  O   UNL     1       8.124  -2.887  -1.113  1.00  0.00    -0.481 OA
ATOM      5  H   UNL     1       7.554  -3.693  -1.411  1.00  0.00     0.296 HD
ENDBRANCH   2   4
ENDBRANCH   1   2
BRANCH   1   6
ATOM      6  C   UNL     1       6.866  -1.358   1.298  1.00  0.00     0.047 C 
BRANCH   6   7
ATOM      7  C   UNL     1       6.238  -0.117   0.773  1.00  0.00    -0.047 A 
ATOM      8  C   UNL     1       6.435   0.288  -0.533  1.00  0.00     0.004 A 
ATOM      9  C   UNL     1       5.431   0.687   1.557  1.00  0.00     0.004 A 
ATOM     10  C   UNL     1       5.846   1.443  -1.010  1.00  0.00     0.000 A 
ATOM     11  C   UNL     1       4.843   1.839   1.084  1.00  0.00     0.000 A 
ATOM     12  C   UNL     1       5.042   2.241  -0.221  1.00  0.00     0.000 A 
ENDBRANCH   6   7
ENDBRANCH   1   6
TORSDOF 4
ENDMDL
