@<TRIPOS>MOLECULE
/home/cewinharhar/GITHUB/reincatalyze/data/processed/docking_pred/2023-Apr-25-2033_maxeplen5_maxtrainstep200_exh16_gamma099_lrac3e-4_lrcr1e-3/31018d4d3337f577513d0037205f1d699057d88b_ligand_2.pdbqt
 12 12 0 0 0
SMALL
GASTEIGER

@<TRIPOS>ATOM
      1  C          8.4500   -0.5700   -2.2030 C.3     1  UNL1        0.1270
      2  C          8.4690   -1.8810   -2.9020 C.2     1  UNL1        0.3030
      3  O          9.5620   -2.4790   -3.0530 O.2     1  UNL1       -0.2520
      4  O          7.3140   -2.4800   -3.3980 O.3     1  UNL1       -0.4810
      5  H          6.8660   -2.1580   -4.2690 H       1  UNL1        0.2960
      6  C          7.0250   -0.0900   -2.1790 C.3     1  UNL1        0.0470
      7  C          6.4910    0.0310   -0.7970 C.2     1  UNL1       -0.0470
      8  C          6.6220   -0.9990    0.1140 C.2     1  UNL1        0.0040
      9  C          5.8430    1.1700   -0.3570 C.2     1  UNL1        0.0040
     10  C          6.1220   -0.8750    1.3960 C.2     1  UNL1        0.0000
     11  C          5.3440    1.2960    0.9200 C.2     1  UNL1        0.0000
     12  C          5.4760    0.2650    1.8290 C.2     1  UNL1        0.0000
@<TRIPOS>BOND
     1     5     4    1
     2     4     2    1
     3     3     2    2
     4     2     1    1
     5     1     6    1
     6     6     7    1
     7     7     9    2
     8     7     8    1
     9     9    11    1
    10     8    10    2
    11    11    12    2
    12    10    12    1
