@<TRIPOS>MOLECULE
/home/cewinharhar/GITHUB/reincatalyze/data/processed/docking_pred/2023-Apr-25-2033_maxeplen5_maxtrainstep200_exh16_gamma099_lrac3e-4_lrcr1e-3/3110d36e974f17e9d190d2a4a051583463654b40_ligand_2.pdbqt
 12 12 0 0 0
SMALL
GASTEIGER

@<TRIPOS>ATOM
      1  C          8.4240   -0.6340   -2.1170 C.3     1  UNL1        0.1270
      2  C          8.4050   -1.9090   -2.8800 C.2     1  UNL1        0.3030
      3  O          7.3030   -2.4060   -3.2160 O.2     1  UNL1       -0.2520
      4  O          9.5700   -2.5810   -3.2410 O.3     1  UNL1       -0.4810
      5  H         10.0000   -3.2920   -2.6300 H       1  UNL1        0.2960
      6  C          7.0250   -0.0840   -2.1220 C.3     1  UNL1        0.0470
      7  C          6.4660    0.0560   -0.7510 C.2     1  UNL1       -0.0470
      8  C          5.8210    1.2120   -0.3560 C.2     1  UNL1        0.0040
      9  C          6.5600   -0.9530    0.1880 C.2     1  UNL1        0.0040
     10  C          5.3050    1.3320    0.9200 C.2     1  UNL1        0.0000
     11  C          6.0460   -0.8370    1.4610 C.2     1  UNL1        0.0000
     12  C          5.4030    0.3200    1.8530 C.2     1  UNL1        0.0000
@<TRIPOS>BOND
     1     4     2    1
     2     4     5    1
     3     3     2    2
     4     2     1    1
     5     6     1    1
     6     6     7    1
     7     7     8    2
     8     7     9    1
     9     8    10    1
    10     9    11    2
    11    10    12    2
    12    11    12    1
