@<TRIPOS>MOLECULE
/home/cewinharhar/GITHUB/reincatalyze/data/processed/docking_pred/2023-Apr-25-2033_maxeplen5_maxtrainstep200_exh16_gamma099_lrac3e-4_lrcr1e-3/3110d36e974f17e9d190d2a4a051583463654b40_ligand_2.pdbqt
 12 12 0 0 0
SMALL
GASTEIGER

@<TRIPOS>ATOM
      1  C          8.2920   -1.6180    1.0940 C.3     1  UNL1        0.1270
      2  C          8.5540   -2.8540    0.3110 C.2     1  UNL1        0.3030
      3  O          9.1860   -3.7960    0.8470 O.2     1  UNL1       -0.2520
      4  O          8.1230   -3.0110   -1.0030 O.3     1  UNL1       -0.4810
      5  H          8.3150   -3.8700   -1.5400 H       1  UNL1        0.2960
      6  C          6.8070   -1.5230    1.3070 C.3     1  UNL1        0.0470
      7  C          6.2380   -0.2560    0.7790 C.2     1  UNL1       -0.0470
      8  C          6.4680    0.1440   -0.5230 C.2     1  UNL1        0.0040
      9  C          5.4550    0.5790    1.5550 C.2     1  UNL1        0.0040
     10  C          5.9340    1.3250   -1.0040 C.2     1  UNL1        0.0000
     11  C          4.9220    1.7550    1.0790 C.2     1  UNL1        0.0000
     12  C          5.1540    2.1530   -0.2230 C.2     1  UNL1        0.0000
@<TRIPOS>BOND
     1     5     4    1
     2    10     8    1
     3    10    12    2
     4     4     2    1
     5     8     7    2
     6    12    11    1
     7     2     3    2
     8     2     1    1
     9     7     6    1
    10     7     9    1
    11    11     9    2
    12     1     6    1
