@<TRIPOS>MOLECULE
/home/cewinharhar/GITHUB/reincatalyze/data/processed/docking_pred/2023-Apr-25-2033_maxeplen5_maxtrainstep200_exh16_gamma099_lrac3e-4_lrcr1e-3/3110d36e974f17e9d190d2a4a051583463654b40_ligand_2.pdbqt
 12 12 0 0 0
SMALL
GASTEIGER

@<TRIPOS>ATOM
      1  C          8.4990   -0.6550   -2.0830 C.3     1  UNL1        0.1270
      2  C          8.4780   -1.9070   -2.8830 C.2     1  UNL1        0.3030
      3  O          9.5560   -2.5080   -3.1080 O.2     1  UNL1       -0.2520
      4  O          7.3020   -2.4450   -3.3990 O.3     1  UNL1       -0.4810
      5  H          7.2690   -3.3910   -3.8070 H       1  UNL1        0.2960
      6  C          7.1210   -0.0570   -2.1410 C.3     1  UNL1        0.0470
      7  C          6.5130    0.1020   -0.7940 C.2     1  UNL1       -0.0470
      8  C          6.6170   -0.8920    0.1600 C.2     1  UNL1        0.0040
      9  C          5.8220    1.2420   -0.4290 C.2     1  UNL1        0.0040
     10  C          6.0490   -0.7340    1.4090 C.2     1  UNL1        0.0000
     11  C          5.2550    1.4020    0.8160 C.2     1  UNL1        0.0000
     12  C          5.3590    0.4070    1.7660 C.2     1  UNL1        0.0000
@<TRIPOS>BOND
     1     5     4    1
     2     4     2    1
     3     3     2    2
     4     2     1    1
     5     6     1    1
     6     6     7    1
     7     7     9    2
     8     7     8    1
     9     9    11    1
    10     8    10    2
    11    11    12    2
    12    10    12    1
