MODEL 1
REMARK VINA RESULT:      -7.3      0.000      0.000
REMARK SMILES O=C(O)CCc1ccccc1
REMARK SMILES IDX 4 1 2 2 1 3 3 4 5 6 6 7 7 8 11 9 8 10 10 11 9 12
REMARK H PARENT 3 5
REMARK Flexibility Score: inf
ROOT
ATOM      1  C   UNL     1       8.499  -0.655  -2.083  1.00  0.00     0.127 C 
ENDROOT
BRANCH   1   2
ATOM      2  C   UNL     1       8.478  -1.907  -2.883  1.00  0.00     0.303 C 
ATOM      3  O   UNL     1       9.556  -2.508  -3.108  1.00  0.00    -0.252 OA
BRANCH   2   4
ATOM      4  O   UNL     1       7.302  -2.445  -3.399  1.00  0.00    -0.481 OA
ATOM      5  H   UNL     1       7.269  -3.391  -3.807  1.00  0.00     0.296 HD
ENDBRANCH   2   4
ENDBRANCH   1   2
BRANCH   1   6
ATOM      6  C   UNL     1       7.121  -0.057  -2.141  1.00  0.00     0.047 C 
BRANCH   6   7
ATOM      7  C   UNL     1       6.513   0.102  -0.794  1.00  0.00    -0.047 A 
ATOM      8  C   UNL     1       6.617  -0.892   0.160  1.00  0.00     0.004 A 
ATOM      9  C   UNL     1       5.822   1.242  -0.429  1.00  0.00     0.004 A 
ATOM     10  C   UNL     1       6.049  -0.734   1.409  1.00  0.00     0.000 A 
ATOM     11  C   UNL     1       5.255   1.402   0.816  1.00  0.00     0.000 A 
ATOM     12  C   UNL     1       5.359   0.407   1.766  1.00  0.00     0.000 A 
ENDBRANCH   6   7
ENDBRANCH   1   6
TORSDOF 4
ENDMDL
MODEL 2
REMARK VINA RESULT:      -7.3      0.117      1.720
REMARK SMILES O=C(O)CCc1ccccc1
REMARK SMILES IDX 4 1 2 2 1 3 3 4 5 6 6 7 7 8 11 9 8 10 10 11 9 12
REMARK H PARENT 3 5
REMARK Flexibility Score: inf
ROOT
ATOM      1  C   UNL     1       8.424  -0.634  -2.117  1.00  0.00     0.127 C 
ENDROOT
BRANCH   1   2
ATOM      2  C   UNL     1       8.405  -1.909  -2.880  1.00  0.00     0.303 C 
ATOM      3  O   UNL     1       7.303  -2.406  -3.216  1.00  0.00    -0.252 OA
BRANCH   2   4
ATOM      4  O   UNL     1       9.570  -2.581  -3.241  1.00  0.00    -0.481 OA
ATOM      5  H   UNL     1      10.000  -3.292  -2.630  1.00  0.00     0.296 HD
ENDBRANCH   2   4
ENDBRANCH   1   2
BRANCH   1   6
ATOM      6  C   UNL     1       7.025  -0.084  -2.122  1.00  0.00     0.047 C 
BRANCH   6   7
ATOM      7  C   UNL     1       6.466   0.056  -0.751  1.00  0.00    -0.047 A 
ATOM      8  C   UNL     1       5.821   1.212  -0.356  1.00  0.00     0.004 A 
ATOM      9  C   UNL     1       6.560  -0.953   0.188  1.00  0.00     0.004 A 
ATOM     10  C   UNL     1       5.305   1.332   0.920  1.00  0.00     0.000 A 
ATOM     11  C   UNL     1       6.046  -0.837   1.461  1.00  0.00     0.000 A 
ATOM     12  C   UNL     1       5.403   0.320   1.853  1.00  0.00     0.000 A 
ENDBRANCH   6   7
ENDBRANCH   1   6
TORSDOF 4
ENDMDL
MODEL 3
REMARK VINA RESULT:      -6.8      3.370      5.084
REMARK SMILES O=C(O)CCc1ccccc1
REMARK SMILES IDX 4 1 2 2 1 3 3 4 5 6 6 7 7 8 11 9 8 10 10 11 9 12
REMARK H PARENT 3 5
REMARK Flexibility Score: inf
ROOT
ATOM      1  C   UNL     1       4.982   1.819   0.708  1.00  0.00     0.127 C 
ENDROOT
BRANCH   1   2
ATOM      2  C   UNL     1       4.455   1.135   1.917  1.00  0.00     0.303 C 
ATOM      3  O   UNL     1       5.137   0.229   2.455  1.00  0.00    -0.252 OA
BRANCH   2   4
ATOM      4  O   UNL     1       3.226   1.462   2.484  1.00  0.00    -0.481 OA
ATOM      5  H   UNL     1       2.647   2.235   2.121  1.00  0.00     0.296 HD
ENDBRANCH   2   4
ENDBRANCH   1   2
BRANCH   1   6
ATOM      6  C   UNL     1       6.483   1.815   0.804  1.00  0.00     0.047 C 
BRANCH   6   7
ATOM      7  C   UNL     1       7.121   1.058  -0.305  1.00  0.00    -0.047 A 
ATOM      8  C   UNL     1       6.402   0.151  -1.058  1.00  0.00     0.004 A 
ATOM      9  C   UNL     1       8.453   1.222  -0.636  1.00  0.00     0.004 A 
ATOM     10  C   UNL     1       7.005  -0.548  -2.087  1.00  0.00     0.000 A 
ATOM     11  C   UNL     1       9.056   0.528  -1.661  1.00  0.00     0.000 A 
ATOM     12  C   UNL     1       8.335  -0.379  -2.412  1.00  0.00     0.000 A 
ENDBRANCH   6   7
ENDBRANCH   1   6
TORSDOF 4
ENDMDL
MODEL 4
REMARK VINA RESULT:      -6.5      1.907      2.807
REMARK SMILES O=C(O)CCc1ccccc1
REMARK SMILES IDX 4 1 2 2 1 3 3 4 5 6 6 7 7 8 11 9 8 10 10 11 9 12
REMARK H PARENT 3 5
REMARK Flexibility Score: inf
ROOT
ATOM      1  C   UNL     1       8.292  -1.618   1.094  1.00  0.00     0.127 C 
ENDROOT
BRANCH   1   2
ATOM      2  C   UNL     1       8.554  -2.854   0.311  1.00  0.00     0.303 C 
ATOM      3  O   UNL     1       9.186  -3.796   0.847  1.00  0.00    -0.252 OA
BRANCH   2   4
ATOM      4  O   UNL     1       8.123  -3.011  -1.003  1.00  0.00    -0.481 OA
ATOM      5  H   UNL     1       8.315  -3.870  -1.540  1.00  0.00     0.296 HD
ENDBRANCH   2   4
ENDBRANCH   1   2
BRANCH   1   6
ATOM      6  C   UNL     1       6.807  -1.523   1.307  1.00  0.00     0.047 C 
BRANCH   6   7
ATOM      7  C   UNL     1       6.238  -0.256   0.779  1.00  0.00    -0.047 A 
ATOM      8  C   UNL     1       6.468   0.144  -0.523  1.00  0.00     0.004 A 
ATOM      9  C   UNL     1       5.455   0.579   1.555  1.00  0.00     0.004 A 
ATOM     10  C   UNL     1       5.934   1.325  -1.004  1.00  0.00     0.000 A 
ATOM     11  C   UNL     1       4.922   1.755   1.079  1.00  0.00     0.000 A 
ATOM     12  C   UNL     1       5.154   2.153  -0.223  1.00  0.00     0.000 A 
ENDBRANCH   6   7
ENDBRANCH   1   6
TORSDOF 4
ENDMDL
MODEL 5
REMARK VINA RESULT:      -6.5      3.685      5.097
REMARK SMILES O=C(O)CCc1ccccc1
REMARK SMILES IDX 4 1 2 2 1 3 3 4 5 6 6 7 7 8 11 9 8 10 10 11 9 12
REMARK H PARENT 3 5
REMARK Flexibility Score: inf
ROOT
ATOM      1  C   UNL     1       5.390   2.927   0.085  1.00  0.00     0.127 C 
ENDROOT
BRANCH   1   2
ATOM      2  C   UNL     1       6.311   3.797   0.861  1.00  0.00     0.303 C 
ATOM      3  O   UNL     1       6.855   4.775   0.293  1.00  0.00    -0.252 OA
BRANCH   2   4
ATOM      4  O   UNL     1       6.597   3.571   2.205  1.00  0.00    -0.481 OA
ATOM      5  H   UNL     1       6.957   4.318   2.818  1.00  0.00     0.296 HD
ENDBRANCH   2   4
ENDBRANCH   1   2
BRANCH   1   6
ATOM      6  C   UNL     1       5.290   1.613   0.809  1.00  0.00     0.047 C 
BRANCH   6   7
ATOM      7  C   UNL     1       6.052   0.532   0.130  1.00  0.00    -0.047 A 
ATOM      8  C   UNL     1       6.320   0.588  -1.224  1.00  0.00     0.004 A 
ATOM      9  C   UNL     1       6.526  -0.573   0.811  1.00  0.00     0.004 A 
ATOM     10  C   UNL     1       7.029  -0.423  -1.845  1.00  0.00     0.000 A 
ATOM     11  C   UNL     1       7.233  -1.581   0.195  1.00  0.00     0.000 A 
ATOM     12  C   UNL     1       7.499  -1.523  -1.158  1.00  0.00     0.000 A 
ENDBRANCH   6   7
ENDBRANCH   1   6
TORSDOF 4
ENDMDL
