@<TRIPOS>MOLECULE
/home/cewinharhar/GITHUB/reincatalyze/data/processed/docking_pred/2023-Apr-25-2033_maxeplen5_maxtrainstep200_exh16_gamma099_lrac3e-4_lrcr1e-3/3110d36e974f17e9d190d2a4a051583463654b40_ligand_2.pdbqt
 12 12 0 0 0
SMALL
GASTEIGER

@<TRIPOS>ATOM
      1  C          5.3900    2.9270    0.0850 C.3     1  UNL1        0.1270
      2  C          6.3110    3.7970    0.8610 C.2     1  UNL1        0.3030
      3  O          6.8550    4.7750    0.2930 O.2     1  UNL1       -0.2520
      4  O          6.5970    3.5710    2.2050 O.3     1  UNL1       -0.4810
      5  H          6.9570    4.3180    2.8180 H       1  UNL1        0.2960
      6  C          5.2900    1.6130    0.8090 C.3     1  UNL1        0.0470
      7  C          6.0520    0.5320    0.1300 C.2     1  UNL1       -0.0470
      8  C          6.3200    0.5880   -1.2240 C.2     1  UNL1        0.0040
      9  C          6.5260   -0.5730    0.8110 C.2     1  UNL1        0.0040
     10  C          7.0290   -0.4230   -1.8450 C.2     1  UNL1        0.0000
     11  C          7.2330   -1.5810    0.1950 C.2     1  UNL1        0.0000
     12  C          7.4990   -1.5230   -1.1580 C.2     1  UNL1        0.0000
@<TRIPOS>BOND
     1    10     8    1
     2    10    12    2
     3     8     7    2
     4    12    11    1
     5     1     6    1
     6     1     2    1
     7     7     6    1
     8     7     9    1
     9    11     9    2
    10     3     2    2
    11     2     4    1
    12     4     5    1
