@<TRIPOS>MOLECULE
/home/cewinharhar/GITHUB/reincatalyze/data/processed/docking_pred/2023-Apr-25-2033_maxeplen5_maxtrainstep200_exh16_gamma099_lrac3e-4_lrcr1e-3/3162da3d825baae428df1736f889259fa2bb10a2_ligand_2.pdbqt
 12 12 0 0 0
SMALL
GASTEIGER

@<TRIPOS>ATOM
      1  C          8.4540   -0.5650   -2.2110 C.3     1  UNL1        0.1270
      2  C          8.4700   -1.8690   -2.9230 C.2     1  UNL1        0.3030
      3  O          9.5630   -2.4620   -3.0900 O.2     1  UNL1       -0.2520
      4  O          7.3120   -2.4640   -3.4170 O.3     1  UNL1       -0.4810
      5  H          6.4910   -2.6390   -2.8180 H       1  UNL1        0.2960
      6  C          7.0330   -0.0730   -2.1990 C.3     1  UNL1        0.0470
      7  C          6.4930    0.0680   -0.8210 C.2     1  UNL1       -0.0470
      8  C          6.5980   -0.9590    0.0970 C.2     1  UNL1        0.0040
      9  C          5.8650    1.2220   -0.3920 C.2     1  UNL1        0.0040
     10  C          6.0930   -0.8170    1.3760 C.2     1  UNL1        0.0000
     11  C          5.3600    1.3660    0.8810 C.2     1  UNL1        0.0000
     12  C          5.4660    0.3380    1.7970 C.2     1  UNL1        0.0000
@<TRIPOS>BOND
     1     4     2    1
     2     4     5    1
     3     3     2    2
     4     2     1    1
     5     1     6    1
     6     6     7    1
     7     7     9    2
     8     7     8    1
     9     9    11    1
    10     8    10    2
    11    11    12    2
    12    10    12    1
