MODEL 1
REMARK VINA RESULT:      -7.3      0.000      0.000
REMARK SMILES O=C(O)CCc1ccccc1
REMARK SMILES IDX 4 1 2 2 1 3 3 4 5 6 6 7 7 8 11 9 8 10 10 11 9 12
REMARK H PARENT 3 5
REMARK Flexibility Score: inf
ROOT
ATOM      1  C   UNL     1       8.489  -0.648  -2.087  1.00  0.00     0.127 C 
ENDROOT
BRANCH   1   2
ATOM      2  C   UNL     1       8.480  -1.898  -2.889  1.00  0.00     0.303 C 
ATOM      3  O   UNL     1       9.564  -2.488  -3.116  1.00  0.00    -0.252 OA
BRANCH   2   4
ATOM      4  O   UNL     1       7.309  -2.448  -3.403  1.00  0.00    -0.481 OA
ATOM      5  H   UNL     1       7.114  -3.460  -3.350  1.00  0.00     0.296 HD
ENDBRANCH   2   4
ENDBRANCH   1   2
BRANCH   1   6
ATOM      6  C   UNL     1       7.102  -0.069  -2.135  1.00  0.00     0.047 C 
BRANCH   6   7
ATOM      7  C   UNL     1       6.508   0.095  -0.782  1.00  0.00    -0.047 A 
ATOM      8  C   UNL     1       5.828   1.246  -0.434  1.00  0.00     0.004 A 
ATOM      9  C   UNL     1       6.602  -0.887   0.186  1.00  0.00     0.004 A 
ATOM     10  C   UNL     1       5.280   1.388   0.826  1.00  0.00     0.000 A 
ATOM     11  C   UNL     1       6.057  -0.748   1.443  1.00  0.00     0.000 A 
ATOM     12  C   UNL     1       5.379   0.403   1.788  1.00  0.00     0.000 A 
ENDBRANCH   6   7
ENDBRANCH   1   6
TORSDOF 4
ENDMDL
MODEL 2
REMARK VINA RESULT:      -7.3      0.089      1.421
REMARK SMILES O=C(O)CCc1ccccc1
REMARK SMILES IDX 4 1 2 2 1 3 3 4 5 6 6 7 7 8 11 9 8 10 10 11 9 12
REMARK H PARENT 3 5
REMARK Flexibility Score: inf
ROOT
ATOM      1  C   UNL     1       8.454  -0.565  -2.211  1.00  0.00     0.127 C 
ENDROOT
BRANCH   1   2
ATOM      2  C   UNL     1       8.470  -1.869  -2.923  1.00  0.00     0.303 C 
ATOM      3  O   UNL     1       9.563  -2.462  -3.090  1.00  0.00    -0.252 OA
BRANCH   2   4
ATOM      4  O   UNL     1       7.312  -2.464  -3.417  1.00  0.00    -0.481 OA
ATOM      5  H   UNL     1       6.491  -2.639  -2.818  1.00  0.00     0.296 HD
ENDBRANCH   2   4
ENDBRANCH   1   2
BRANCH   1   6
ATOM      6  C   UNL     1       7.033  -0.073  -2.199  1.00  0.00     0.047 C 
BRANCH   6   7
ATOM      7  C   UNL     1       6.493   0.068  -0.821  1.00  0.00    -0.047 A 
ATOM      8  C   UNL     1       6.598  -0.959   0.097  1.00  0.00     0.004 A 
ATOM      9  C   UNL     1       5.865   1.222  -0.392  1.00  0.00     0.004 A 
ATOM     10  C   UNL     1       6.093  -0.817   1.376  1.00  0.00     0.000 A 
ATOM     11  C   UNL     1       5.360   1.366   0.881  1.00  0.00     0.000 A 
ATOM     12  C   UNL     1       5.466   0.338   1.797  1.00  0.00     0.000 A 
ENDBRANCH   6   7
ENDBRANCH   1   6
TORSDOF 4
ENDMDL
MODEL 3
REMARK VINA RESULT:      -6.8      3.370      5.098
REMARK SMILES O=C(O)CCc1ccccc1
REMARK SMILES IDX 4 1 2 2 1 3 3 4 5 6 6 7 7 8 11 9 8 10 10 11 9 12
REMARK H PARENT 3 5
REMARK Flexibility Score: inf
ROOT
ATOM      1  C   UNL     1       4.964   1.803   0.709  1.00  0.00     0.127 C 
ENDROOT
BRANCH   1   2
ATOM      2  C   UNL     1       4.450   1.116   1.923  1.00  0.00     0.303 C 
ATOM      3  O   UNL     1       5.138   0.210   2.452  1.00  0.00    -0.252 OA
BRANCH   2   4
ATOM      4  O   UNL     1       3.226   1.440   2.503  1.00  0.00    -0.481 OA
ATOM      5  H   UNL     1       2.667   0.744   3.019  1.00  0.00     0.296 HD
ENDBRANCH   2   4
ENDBRANCH   1   2
BRANCH   1   6
ATOM      6  C   UNL     1       6.465   1.816   0.799  1.00  0.00     0.047 C 
BRANCH   6   7
ATOM      7  C   UNL     1       7.107   1.066  -0.312  1.00  0.00    -0.047 A 
ATOM      8  C   UNL     1       6.378   0.204  -1.108  1.00  0.00     0.004 A 
ATOM      9  C   UNL     1       8.452   1.193  -0.605  1.00  0.00     0.004 A 
ATOM     10  C   UNL     1       6.985  -0.489  -2.139  1.00  0.00     0.000 A 
ATOM     11  C   UNL     1       9.059   0.505  -1.631  1.00  0.00     0.000 A 
ATOM     12  C   UNL     1       8.328  -0.357  -2.424  1.00  0.00     0.000 A 
ENDBRANCH   6   7
ENDBRANCH   1   6
TORSDOF 4
ENDMDL
MODEL 4
REMARK VINA RESULT:      -6.7      3.833      5.007
REMARK SMILES O=C(O)CCc1ccccc1
REMARK SMILES IDX 4 1 2 2 1 3 3 4 5 6 6 7 7 8 11 9 8 10 10 11 9 12
REMARK H PARENT 3 5
REMARK Flexibility Score: inf
ROOT
ATOM      1  C   UNL     1       5.434   2.891   0.002  1.00  0.00     0.127 C 
ENDROOT
BRANCH   1   2
ATOM      2  C   UNL     1       6.217   3.862   0.809  1.00  0.00     0.303 C 
ATOM      3  O   UNL     1       6.849   4.775   0.224  1.00  0.00    -0.252 OA
BRANCH   2   4
ATOM      4  O   UNL     1       6.279   3.801   2.199  1.00  0.00    -0.481 OA
ATOM      5  H   UNL     1       6.430   2.911   2.698  1.00  0.00     0.296 HD
ENDBRANCH   2   4
ENDBRANCH   1   2
BRANCH   1   6
ATOM      6  C   UNL     1       4.878   1.862   0.947  1.00  0.00     0.047 C 
BRANCH   6   7
ATOM      7  C   UNL     1       5.689   0.616   0.970  1.00  0.00    -0.047 A 
ATOM      8  C   UNL     1       5.779  -0.157   2.111  1.00  0.00     0.004 A 
ATOM      9  C   UNL     1       6.387   0.172  -0.137  1.00  0.00     0.004 A 
ATOM     10  C   UNL     1       6.536  -1.313   2.122  1.00  0.00     0.000 A 
ATOM     11  C   UNL     1       7.142  -0.980  -0.129  1.00  0.00     0.000 A 
ATOM     12  C   UNL     1       7.231  -1.750   1.013  1.00  0.00     0.000 A 
ENDBRANCH   6   7
ENDBRANCH   1   6
TORSDOF 4
ENDMDL
MODEL 5
REMARK VINA RESULT:      -6.6      1.944      2.314
REMARK SMILES O=C(O)CCc1ccccc1
REMARK SMILES IDX 4 1 2 2 1 3 3 4 5 6 6 7 7 8 11 9 8 10 10 11 9 12
REMARK H PARENT 3 5
REMARK Flexibility Score: inf
ROOT
ATOM      1  C   UNL     1       8.323   0.202  -2.163  1.00  0.00     0.127 C 
ENDROOT
BRANCH   1   2
ATOM      2  C   UNL     1       9.443   0.356  -1.199  1.00  0.00     0.303 C 
ATOM      3  O   UNL     1       9.484  -0.381  -0.185  1.00  0.00    -0.252 OA
BRANCH   2   4
ATOM      4  O   UNL     1      10.458   1.293  -1.376  1.00  0.00    -0.481 OA
ATOM      5  H   UNL     1      11.313   1.074  -1.910  1.00  0.00     0.296 HD
ENDBRANCH   2   4
ENDBRANCH   1   2
BRANCH   1   6
ATOM      6  C   UNL     1       7.252  -0.609  -1.487  1.00  0.00     0.047 C 
BRANCH   6   7
ATOM      7  C   UNL     1       6.419   0.206  -0.564  1.00  0.00    -0.047 A 
ATOM      8  C   UNL     1       5.867   1.405  -0.971  1.00  0.00     0.004 A 
ATOM      9  C   UNL     1       6.156  -0.191   0.733  1.00  0.00     0.004 A 
ATOM     10  C   UNL     1       5.094   2.155  -0.105  1.00  0.00     0.000 A 
ATOM     11  C   UNL     1       5.386   0.555   1.598  1.00  0.00     0.000 A 
ATOM     12  C   UNL     1       4.835   1.753   1.190  1.00  0.00     0.000 A 
ENDBRANCH   6   7
ENDBRANCH   1   6
TORSDOF 4
ENDMDL
