@<TRIPOS>MOLECULE
/home/cewinharhar/GITHUB/reincatalyze/data/processed/docking_pred/2023-Apr-25-2033_maxeplen5_maxtrainstep200_exh16_gamma099_lrac3e-4_lrcr1e-3/3162da3d825baae428df1736f889259fa2bb10a2_ligand_2.pdbqt
 12 12 0 0 0
SMALL
GASTEIGER

@<TRIPOS>ATOM
      1  C          5.4340    2.8910    0.0020 C.3     1  UNL1        0.1270
      2  C          6.2170    3.8620    0.8090 C.2     1  UNL1        0.3030
      3  O          6.8490    4.7750    0.2240 O.2     1  UNL1       -0.2520
      4  O          6.2790    3.8010    2.1990 O.3     1  UNL1       -0.4810
      5  H          6.4300    2.9110    2.6980 H       1  UNL1        0.2960
      6  C          4.8780    1.8620    0.9470 C.3     1  UNL1        0.0470
      7  C          5.6890    0.6160    0.9700 C.2     1  UNL1       -0.0470
      8  C          5.7790   -0.1570    2.1110 C.2     1  UNL1        0.0040
      9  C          6.3870    0.1720   -0.1370 C.2     1  UNL1        0.0040
     10  C          6.5360   -1.3130    2.1220 C.2     1  UNL1        0.0000
     11  C          7.1420   -0.9800   -0.1290 C.2     1  UNL1        0.0000
     12  C          7.2310   -1.7500    1.0130 C.2     1  UNL1        0.0000
@<TRIPOS>BOND
     1     9    11    1
     2     9     7    2
     3    11    12    2
     4     1     2    1
     5     1     6    1
     6     3     2    2
     7     2     4    1
     8     6     7    1
     9     7     8    1
    10    12    10    1
    11     8    10    2
    12     4     5    1
