@<TRIPOS>MOLECULE
/home/cewinharhar/GITHUB/reincatalyze/data/processed/docking_pred/2023-Apr-25-2033_maxeplen5_maxtrainstep200_exh16_gamma099_lrac3e-4_lrcr1e-3/3162da3d825baae428df1736f889259fa2bb10a2_ligand_2.pdbqt
 12 12 0 0 0
SMALL
GASTEIGER

@<TRIPOS>ATOM
      1  C          8.3230    0.2020   -2.1630 C.3     1  UNL1        0.1270
      2  C          9.4430    0.3560   -1.1990 C.2     1  UNL1        0.3030
      3  O          9.4840   -0.3810   -0.1850 O.2     1  UNL1       -0.2520
      4  O         10.4580    1.2930   -1.3760 O.3     1  UNL1       -0.4810
      5  H         11.3130    1.0740   -1.9100 H       1  UNL1        0.2960
      6  C          7.2520   -0.6090   -1.4870 C.3     1  UNL1        0.0470
      7  C          6.4190    0.2060   -0.5640 C.2     1  UNL1       -0.0470
      8  C          5.8670    1.4050   -0.9710 C.2     1  UNL1        0.0040
      9  C          6.1560   -0.1910    0.7330 C.2     1  UNL1        0.0040
     10  C          5.0940    2.1550   -0.1050 C.2     1  UNL1        0.0000
     11  C          5.3860    0.5550    1.5980 C.2     1  UNL1        0.0000
     12  C          4.8350    1.7530    1.1900 C.2     1  UNL1        0.0000
@<TRIPOS>BOND
     1     1     6    1
     2     1     2    1
     3     5     4    1
     4     6     7    1
     5     4     2    1
     6     2     3    2
     7     8     7    2
     8     8    10    1
     9     7     9    1
    10    10    12    2
    11     9    11    2
    12    12    11    1
