@<TRIPOS>MOLECULE
/home/cewinharhar/GITHUB/reincatalyze/data/processed/docking_pred/2023-Apr-25-2033_maxeplen5_maxtrainstep200_exh16_gamma099_lrac3e-4_lrcr1e-3/3162da3d825baae428df1736f889259fa2bb10a2_ligand_2.pdbqt
 12 12 0 0 0
SMALL
GASTEIGER

@<TRIPOS>ATOM
      1  C          4.9640    1.8030    0.7090 C.3     1  UNL1        0.1270
      2  C          4.4500    1.1160    1.9230 C.2     1  UNL1        0.3030
      3  O          5.1380    0.2100    2.4520 O.2     1  UNL1       -0.2520
      4  O          3.2260    1.4400    2.5030 O.3     1  UNL1       -0.4810
      5  H          2.6670    0.7440    3.0190 H       1  UNL1        0.2960
      6  C          6.4650    1.8160    0.7990 C.3     1  UNL1        0.0470
      7  C          7.1070    1.0660   -0.3120 C.2     1  UNL1       -0.0470
      8  C          6.3780    0.2040   -1.1080 C.2     1  UNL1        0.0040
      9  C          8.4520    1.1930   -0.6050 C.2     1  UNL1        0.0040
     10  C          6.9850   -0.4890   -2.1390 C.2     1  UNL1        0.0000
     11  C          9.0590    0.5050   -1.6310 C.2     1  UNL1        0.0000
     12  C          8.3280   -0.3570   -2.4240 C.2     1  UNL1        0.0000
@<TRIPOS>BOND
     1    12    10    2
     2    12    11    1
     3    10     8    1
     4    11     9    2
     5     8     7    2
     6     9     7    1
     7     7     6    1
     8     1     6    1
     9     1     2    1
    10     2     3    2
    11     2     4    1
    12     4     5    1
