@<TRIPOS>MOLECULE
/home/cewinharhar/GITHUB/reincatalyze/data/processed/docking_pred/2023-Apr-25-2033_maxeplen5_maxtrainstep200_exh16_gamma099_lrac3e-4_lrcr1e-3/3162da3d825baae428df1736f889259fa2bb10a2_ligand_2.pdbqt
 12 12 0 0 0
SMALL
GASTEIGER

@<TRIPOS>ATOM
      1  C          8.4890   -0.6480   -2.0870 C.3     1  UNL1        0.1270
      2  C          8.4800   -1.8980   -2.8890 C.2     1  UNL1        0.3030
      3  O          9.5640   -2.4880   -3.1160 O.2     1  UNL1       -0.2520
      4  O          7.3090   -2.4480   -3.4030 O.3     1  UNL1       -0.4810
      5  H          7.1140   -3.4600   -3.3500 H       1  UNL1        0.2960
      6  C          7.1020   -0.0690   -2.1350 C.3     1  UNL1        0.0470
      7  C          6.5080    0.0950   -0.7820 C.2     1  UNL1       -0.0470
      8  C          5.8280    1.2460   -0.4340 C.2     1  UNL1        0.0040
      9  C          6.6020   -0.8870    0.1860 C.2     1  UNL1        0.0040
     10  C          5.2800    1.3880    0.8260 C.2     1  UNL1        0.0000
     11  C          6.0570   -0.7480    1.4430 C.2     1  UNL1        0.0000
     12  C          5.3790    0.4030    1.7880 C.2     1  UNL1        0.0000
@<TRIPOS>BOND
     1     4     5    1
     2     4     2    1
     3     3     2    2
     4     2     1    1
     5     6     1    1
     6     6     7    1
     7     7     8    2
     8     7     9    1
     9     8    10    1
    10     9    11    2
    11    10    12    2
    12    11    12    1
