@<TRIPOS>MOLECULE
/home/cewinharhar/GITHUB/reincatalyze/data/processed/docking_pred/2023-Apr-25-2033_maxeplen5_maxtrainstep200_exh16_gamma099_lrac3e-4_lrcr1e-3/31638bda67923b1bb66f4f033a77b51352de91e4_ligand_2.pdbqt
 12 12 0 0 0
SMALL
GASTEIGER

@<TRIPOS>ATOM
      1  C          8.4330   -0.5900   -2.1810 C.3     1  UNL1        0.1270
      2  C          8.4160   -1.8920   -2.8980 C.2     1  UNL1        0.3030
      3  O          7.3130   -2.4040   -3.2100 O.2     1  UNL1       -0.2520
      4  O          9.5810   -2.5710   -3.2420 O.3     1  UNL1       -0.4810
      5  H         10.3770   -2.0940   -3.6930 H       1  UNL1        0.2960
      6  C          7.0240   -0.0660   -2.1590 C.3     1  UNL1        0.0470
      7  C          6.4840    0.0530   -0.7800 C.2     1  UNL1       -0.0470
      8  C          5.8260    1.1950   -0.3650 C.2     1  UNL1        0.0040
      9  C          6.6100   -0.9620    0.1500 C.2     1  UNL1        0.0040
     10  C          5.3280    1.2960    0.9200 C.2     1  UNL1        0.0000
     11  C          6.1140   -0.8640    1.4310 C.2     1  UNL1        0.0000
     12  C          5.4580    0.2780    1.8430 C.2     1  UNL1        0.0000
@<TRIPOS>BOND
     1     5     4    1
     2     4     2    1
     3     3     2    2
     4     2     1    1
     5     1     6    1
     6     6     7    1
     7     7     8    2
     8     7     9    1
     9     8    10    1
    10     9    11    2
    11    10    12    2
    12    11    12    1
