@<TRIPOS>MOLECULE
/home/cewinharhar/GITHUB/reincatalyze/data/processed/docking_pred/2023-Apr-25-2033_maxeplen5_maxtrainstep200_exh16_gamma099_lrac3e-4_lrcr1e-3/31638bda67923b1bb66f4f033a77b51352de91e4_ligand_2.pdbqt
 12 12 0 0 0
SMALL
GASTEIGER

@<TRIPOS>ATOM
      1  C          8.4400   -0.5310   -2.2590 C.3     1  UNL1        0.1270
      2  C          8.4600   -1.8620   -2.9200 C.2     1  UNL1        0.3030
      3  O          9.5510   -2.4720   -3.0360 O.2     1  UNL1       -0.2520
      4  O          7.3100   -2.4670   -3.4190 O.3     1  UNL1       -0.4810
      5  H          6.7260   -2.0140   -4.1390 H       1  UNL1        0.2960
      6  C          7.0110   -0.0630   -2.2290 C.3     1  UNL1        0.0470
      7  C          6.4940    0.0920   -0.8440 C.2     1  UNL1       -0.0470
      8  C          6.6190   -0.9230    0.0840 C.2     1  UNL1        0.0040
      9  C          5.8690    1.2490   -0.4180 C.2     1  UNL1        0.0040
     10  C          6.1350   -0.7680    1.3690 C.2     1  UNL1        0.0000
     11  C          5.3860    1.4060    0.8620 C.2     1  UNL1        0.0000
     12  C          5.5110    0.3890    1.7870 C.2     1  UNL1        0.0000
@<TRIPOS>BOND
     1     5     4    1
     2     4     2    1
     3     3     2    2
     4     2     1    1
     5     1     6    1
     6     6     7    1
     7     7     9    2
     8     7     8    1
     9     9    11    1
    10     8    10    2
    11    11    12    2
    12    10    12    1
