@<TRIPOS>MOLECULE
/home/cewinharhar/GITHUB/reincatalyze/data/processed/docking_pred/2023-Apr-25-2033_maxeplen5_maxtrainstep200_exh16_gamma099_lrac3e-4_lrcr1e-3/31638bda67923b1bb66f4f033a77b51352de91e4_ligand_2.pdbqt
 12 12 0 0 0
SMALL
GASTEIGER

@<TRIPOS>ATOM
      1  C          8.1960    0.1960   -2.2620 C.3     1  UNL1        0.1270
      2  C          9.3160    0.3600   -1.2990 C.2     1  UNL1        0.3030
      3  O          9.4050   -0.4250   -0.3240 O.2     1  UNL1       -0.2520
      4  O         10.2790    1.3560   -1.4350 O.3     1  UNL1       -0.4810
      5  H         10.3070    2.1750   -0.8090 H       1  UNL1        0.2960
      6  C          7.1070   -0.5710   -1.5630 C.3     1  UNL1        0.0470
      7  C          6.3290    0.2780   -0.6230 C.2     1  UNL1       -0.0470
      8  C          6.1070   -0.1180    0.6820 C.2     1  UNL1        0.0040
      9  C          5.7940    1.4950   -1.0020 C.2     1  UNL1        0.0040
     10  C          5.3820    0.6790    1.5470 C.2     1  UNL1        0.0000
     11  C          5.0710    2.2910   -0.1410 C.2     1  UNL1        0.0000
     12  C          4.8500    1.8930    1.1620 C.2     1  UNL1        0.0000
@<TRIPOS>BOND
     1     1     6    1
     2     1     2    1
     3     6     7    1
     4     4     2    1
     5     4     5    1
     6     2     3    2
     7     9     7    2
     8     9    11    1
     9     7     8    1
    10    11    12    2
    11     8    10    2
    12    12    10    1
