@<TRIPOS>MOLECULE
/home/cewinharhar/GITHUB/reincatalyze/data/processed/docking_pred/2023-Apr-25-2033_maxeplen5_maxtrainstep200_exh16_gamma099_lrac3e-4_lrcr1e-3/31638bda67923b1bb66f4f033a77b51352de91e4_ligand_2.pdbqt
 12 12 0 0 0
SMALL
GASTEIGER

@<TRIPOS>ATOM
      1  C          5.4890    2.8900   -0.0390 C.3     1  UNL1        0.1270
      2  C          6.2490    3.8530    0.7990 C.2     1  UNL1        0.3030
      3  O          6.9040    4.7670    0.2410 O.2     1  UNL1       -0.2520
      4  O          6.2660    3.7840    2.1900 O.3     1  UNL1       -0.4810
      5  H          5.3970    3.7140    2.7420 H       1  UNL1        0.2960
      6  C          4.8910    1.8630    0.8820 C.3     1  UNL1        0.0470
      7  C          5.6980    0.6160    0.9420 C.2     1  UNL1       -0.0470
      8  C          6.4110    0.1720   -0.1550 C.2     1  UNL1        0.0040
      9  C          5.7770   -0.1550    2.0870 C.2     1  UNL1        0.0040
     10  C          7.1590   -0.9880   -0.0880 C.2     1  UNL1        0.0000
     11  C          6.5210   -1.3120    2.1560 C.2     1  UNL1        0.0000
     12  C          7.2320   -1.7530    1.0580 C.2     1  UNL1        0.0000
@<TRIPOS>BOND
     1     8    10    1
     2     8     7    2
     3    10    12    2
     4     1     2    1
     5     1     6    1
     6     3     2    2
     7     2     4    1
     8     6     7    1
     9     7     9    1
    10    12    11    1
    11     9    11    2
    12     4     5    1
