@<TRIPOS>MOLECULE
/home/cewinharhar/GITHUB/reincatalyze/data/processed/docking_pred/2023-Apr-25-2033_maxeplen5_maxtrainstep200_exh16_gamma099_lrac3e-4_lrcr1e-3/31638bda67923b1bb66f4f033a77b51352de91e4_ligand_2.pdbqt
 12 12 0 0 0
SMALL
GASTEIGER

@<TRIPOS>ATOM
      1  C          4.9950    1.8000    0.7140 C.3     1  UNL1        0.1270
      2  C          4.4600    1.1250    1.9250 C.2     1  UNL1        0.3030
      3  O          5.1390    0.2230    2.4730 O.2     1  UNL1       -0.2520
      4  O          3.2270    1.4550    2.4810 O.3     1  UNL1       -0.4810
      5  H          2.5570    0.7320    2.7870 H       1  UNL1        0.2960
      6  C          6.4960    1.7860    0.8130 C.3     1  UNL1        0.0470
      7  C          7.1310    1.0390   -0.3040 C.2     1  UNL1       -0.0470
      8  C          6.4110    0.1370   -1.0620 C.2     1  UNL1        0.0040
      9  C          8.4620    1.2080   -0.6390 C.2     1  UNL1        0.0040
     10  C          7.0110   -0.5520   -2.0990 C.2     1  UNL1        0.0000
     11  C          9.0620    0.5230   -1.6710 C.2     1  UNL1        0.0000
     12  C          8.3400   -0.3790   -2.4270 C.2     1  UNL1        0.0000
@<TRIPOS>BOND
     1    12    10    2
     2    12    11    1
     3    10     8    1
     4    11     9    2
     5     8     7    2
     6     9     7    1
     7     7     6    1
     8     1     6    1
     9     1     2    1
    10     2     3    2
    11     2     4    1
    12     4     5    1
