MODEL 1
REMARK VINA RESULT:      -7.3      0.000      0.000
REMARK SMILES O=C(O)CCc1ccccc1
REMARK SMILES IDX 4 1 2 2 1 3 3 4 5 6 6 7 7 8 11 9 8 10 10 11 9 12
REMARK H PARENT 3 5
REMARK Flexibility Score: inf
ROOT
ATOM      1  C   UNL     1       8.440  -0.531  -2.259  1.00  0.00     0.127 C 
ENDROOT
BRANCH   1   2
ATOM      2  C   UNL     1       8.460  -1.862  -2.920  1.00  0.00     0.303 C 
ATOM      3  O   UNL     1       9.551  -2.472  -3.036  1.00  0.00    -0.252 OA
BRANCH   2   4
ATOM      4  O   UNL     1       7.310  -2.467  -3.419  1.00  0.00    -0.481 OA
ATOM      5  H   UNL     1       6.726  -2.014  -4.139  1.00  0.00     0.296 HD
ENDBRANCH   2   4
ENDBRANCH   1   2
BRANCH   1   6
ATOM      6  C   UNL     1       7.011  -0.063  -2.229  1.00  0.00     0.047 C 
BRANCH   6   7
ATOM      7  C   UNL     1       6.494   0.092  -0.844  1.00  0.00    -0.047 A 
ATOM      8  C   UNL     1       6.619  -0.923   0.084  1.00  0.00     0.004 A 
ATOM      9  C   UNL     1       5.869   1.249  -0.418  1.00  0.00     0.004 A 
ATOM     10  C   UNL     1       6.135  -0.768   1.369  1.00  0.00     0.000 A 
ATOM     11  C   UNL     1       5.386   1.406   0.862  1.00  0.00     0.000 A 
ATOM     12  C   UNL     1       5.511   0.389   1.787  1.00  0.00     0.000 A 
ENDBRANCH   6   7
ENDBRANCH   1   6
TORSDOF 4
ENDMDL
MODEL 2
REMARK VINA RESULT:      -7.3      0.131      1.719
REMARK SMILES O=C(O)CCc1ccccc1
REMARK SMILES IDX 4 1 2 2 1 3 3 4 5 6 6 7 7 8 11 9 8 10 10 11 9 12
REMARK H PARENT 3 5
REMARK Flexibility Score: inf
ROOT
ATOM      1  C   UNL     1       8.433  -0.590  -2.181  1.00  0.00     0.127 C 
ENDROOT
BRANCH   1   2
ATOM      2  C   UNL     1       8.416  -1.892  -2.898  1.00  0.00     0.303 C 
ATOM      3  O   UNL     1       7.313  -2.404  -3.210  1.00  0.00    -0.252 OA
BRANCH   2   4
ATOM      4  O   UNL     1       9.581  -2.571  -3.242  1.00  0.00    -0.481 OA
ATOM      5  H   UNL     1      10.377  -2.094  -3.693  1.00  0.00     0.296 HD
ENDBRANCH   2   4
ENDBRANCH   1   2
BRANCH   1   6
ATOM      6  C   UNL     1       7.024  -0.066  -2.159  1.00  0.00     0.047 C 
BRANCH   6   7
ATOM      7  C   UNL     1       6.484   0.053  -0.780  1.00  0.00    -0.047 A 
ATOM      8  C   UNL     1       5.826   1.195  -0.365  1.00  0.00     0.004 A 
ATOM      9  C   UNL     1       6.610  -0.962   0.150  1.00  0.00     0.004 A 
ATOM     10  C   UNL     1       5.328   1.296   0.920  1.00  0.00     0.000 A 
ATOM     11  C   UNL     1       6.114  -0.864   1.431  1.00  0.00     0.000 A 
ATOM     12  C   UNL     1       5.458   0.278   1.843  1.00  0.00     0.000 A 
ENDBRANCH   6   7
ENDBRANCH   1   6
TORSDOF 4
ENDMDL
MODEL 3
REMARK VINA RESULT:      -6.8      3.383      5.065
REMARK SMILES O=C(O)CCc1ccccc1
REMARK SMILES IDX 4 1 2 2 1 3 3 4 5 6 6 7 7 8 11 9 8 10 10 11 9 12
REMARK H PARENT 3 5
REMARK Flexibility Score: inf
ROOT
ATOM      1  C   UNL     1       4.995   1.800   0.714  1.00  0.00     0.127 C 
ENDROOT
BRANCH   1   2
ATOM      2  C   UNL     1       4.460   1.125   1.925  1.00  0.00     0.303 C 
ATOM      3  O   UNL     1       5.139   0.223   2.473  1.00  0.00    -0.252 OA
BRANCH   2   4
ATOM      4  O   UNL     1       3.227   1.455   2.481  1.00  0.00    -0.481 OA
ATOM      5  H   UNL     1       2.557   0.732   2.787  1.00  0.00     0.296 HD
ENDBRANCH   2   4
ENDBRANCH   1   2
BRANCH   1   6
ATOM      6  C   UNL     1       6.496   1.786   0.813  1.00  0.00     0.047 C 
BRANCH   6   7
ATOM      7  C   UNL     1       7.131   1.039  -0.304  1.00  0.00    -0.047 A 
ATOM      8  C   UNL     1       6.411   0.137  -1.062  1.00  0.00     0.004 A 
ATOM      9  C   UNL     1       8.462   1.208  -0.639  1.00  0.00     0.004 A 
ATOM     10  C   UNL     1       7.011  -0.552  -2.099  1.00  0.00     0.000 A 
ATOM     11  C   UNL     1       9.062   0.523  -1.671  1.00  0.00     0.000 A 
ATOM     12  C   UNL     1       8.340  -0.379  -2.427  1.00  0.00     0.000 A 
ENDBRANCH   6   7
ENDBRANCH   1   6
TORSDOF 4
ENDMDL
MODEL 4
REMARK VINA RESULT:      -6.7      3.838      4.970
REMARK SMILES O=C(O)CCc1ccccc1
REMARK SMILES IDX 4 1 2 2 1 3 3 4 5 6 6 7 7 8 11 9 8 10 10 11 9 12
REMARK H PARENT 3 5
REMARK Flexibility Score: inf
ROOT
ATOM      1  C   UNL     1       5.489   2.890  -0.039  1.00  0.00     0.127 C 
ENDROOT
BRANCH   1   2
ATOM      2  C   UNL     1       6.249   3.853   0.799  1.00  0.00     0.303 C 
ATOM      3  O   UNL     1       6.904   4.767   0.241  1.00  0.00    -0.252 OA
BRANCH   2   4
ATOM      4  O   UNL     1       6.266   3.784   2.190  1.00  0.00    -0.481 OA
ATOM      5  H   UNL     1       5.397   3.714   2.742  1.00  0.00     0.296 HD
ENDBRANCH   2   4
ENDBRANCH   1   2
BRANCH   1   6
ATOM      6  C   UNL     1       4.891   1.863   0.882  1.00  0.00     0.047 C 
BRANCH   6   7
ATOM      7  C   UNL     1       5.698   0.616   0.942  1.00  0.00    -0.047 A 
ATOM      8  C   UNL     1       6.411   0.172  -0.155  1.00  0.00     0.004 A 
ATOM      9  C   UNL     1       5.777  -0.155   2.087  1.00  0.00     0.004 A 
ATOM     10  C   UNL     1       7.159  -0.988  -0.088  1.00  0.00     0.000 A 
ATOM     11  C   UNL     1       6.521  -1.312   2.156  1.00  0.00     0.000 A 
ATOM     12  C   UNL     1       7.232  -1.753   1.058  1.00  0.00     0.000 A 
ENDBRANCH   6   7
ENDBRANCH   1   6
TORSDOF 4
ENDMDL
MODEL 5
REMARK VINA RESULT:      -6.6      1.888      2.296
REMARK SMILES O=C(O)CCc1ccccc1
REMARK SMILES IDX 4 1 2 2 1 3 3 4 5 6 6 7 7 8 11 9 8 10 10 11 9 12
REMARK H PARENT 3 5
REMARK Flexibility Score: inf
ROOT
ATOM      1  C   UNL     1       8.196   0.196  -2.262  1.00  0.00     0.127 C 
ENDROOT
BRANCH   1   2
ATOM      2  C   UNL     1       9.316   0.360  -1.299  1.00  0.00     0.303 C 
ATOM      3  O   UNL     1       9.405  -0.425  -0.324  1.00  0.00    -0.252 OA
BRANCH   2   4
ATOM      4  O   UNL     1      10.279   1.356  -1.435  1.00  0.00    -0.481 OA
ATOM      5  H   UNL     1      10.307   2.175  -0.809  1.00  0.00     0.296 HD
ENDBRANCH   2   4
ENDBRANCH   1   2
BRANCH   1   6
ATOM      6  C   UNL     1       7.107  -0.571  -1.563  1.00  0.00     0.047 C 
BRANCH   6   7
ATOM      7  C   UNL     1       6.329   0.278  -0.623  1.00  0.00    -0.047 A 
ATOM      8  C   UNL     1       6.107  -0.118   0.682  1.00  0.00     0.004 A 
ATOM      9  C   UNL     1       5.794   1.495  -1.002  1.00  0.00     0.004 A 
ATOM     10  C   UNL     1       5.382   0.679   1.547  1.00  0.00     0.000 A 
ATOM     11  C   UNL     1       5.071   2.291  -0.141  1.00  0.00     0.000 A 
ATOM     12  C   UNL     1       4.850   1.893   1.162  1.00  0.00     0.000 A 
ENDBRANCH   6   7
ENDBRANCH   1   6
TORSDOF 4
ENDMDL
