MODEL 1
REMARK VINA RESULT:      -7.3      0.000      0.000
REMARK SMILES O=C(O)CCc1ccccc1
REMARK SMILES IDX 4 1 2 2 1 3 3 4 5 6 6 7 7 8 11 9 8 10 10 11 9 12
REMARK H PARENT 3 5
REMARK Flexibility Score: inf
ROOT
ATOM      1  C   UNL     1       8.461  -0.605  -2.166  1.00  0.00     0.127 C 
ENDROOT
BRANCH   1   2
ATOM      2  C   UNL     1       8.466  -1.888  -2.914  1.00  0.00     0.303 C 
ATOM      3  O   UNL     1       9.553  -2.490  -3.091  1.00  0.00    -0.252 OA
BRANCH   2   4
ATOM      4  O   UNL     1       7.304  -2.457  -3.431  1.00  0.00    -0.481 OA
ATOM      5  H   UNL     1       7.034  -2.339  -4.420  1.00  0.00     0.296 HD
ENDBRANCH   2   4
ENDBRANCH   1   2
BRANCH   1   6
ATOM      6  C   UNL     1       7.049  -0.089  -2.162  1.00  0.00     0.047 C 
BRANCH   6   7
ATOM      7  C   UNL     1       6.496   0.042  -0.788  1.00  0.00    -0.047 A 
ATOM      8  C   UNL     1       5.850   1.194  -0.383  1.00  0.00     0.004 A 
ATOM      9  C   UNL     1       6.599  -0.972   0.146  1.00  0.00     0.004 A 
ATOM     10  C   UNL     1       5.341   1.305   0.896  1.00  0.00     0.000 A 
ATOM     11  C   UNL     1       6.091  -0.864   1.421  1.00  0.00     0.000 A 
ATOM     12  C   UNL     1       5.447   0.288   1.823  1.00  0.00     0.000 A 
ENDBRANCH   6   7
ENDBRANCH   1   6
TORSDOF 4
ENDMDL
MODEL 2
REMARK VINA RESULT:      -7.3      0.113      1.718
REMARK SMILES O=C(O)CCc1ccccc1
REMARK SMILES IDX 4 1 2 2 1 3 3 4 5 6 6 7 7 8 11 9 8 10 10 11 9 12
REMARK H PARENT 3 5
REMARK Flexibility Score: inf
ROOT
ATOM      1  C   UNL     1       8.456  -0.636  -2.106  1.00  0.00     0.127 C 
ENDROOT
BRANCH   1   2
ATOM      2  C   UNL     1       8.427  -1.904  -2.882  1.00  0.00     0.303 C 
ATOM      3  O   UNL     1       7.320  -2.396  -3.209  1.00  0.00    -0.252 OA
BRANCH   2   4
ATOM      4  O   UNL     1       9.586  -2.573  -3.264  1.00  0.00    -0.481 OA
ATOM      5  H   UNL     1      10.336  -2.103  -3.794  1.00  0.00     0.296 HD
ENDBRANCH   2   4
ENDBRANCH   1   2
BRANCH   1   6
ATOM      6  C   UNL     1       7.068  -0.058  -2.132  1.00  0.00     0.047 C 
BRANCH   6   7
ATOM      7  C   UNL     1       6.490   0.091  -0.771  1.00  0.00    -0.047 A 
ATOM      8  C   UNL     1       6.596  -0.919   0.165  1.00  0.00     0.004 A 
ATOM      9  C   UNL     1       5.823   1.236  -0.377  1.00  0.00     0.004 A 
ATOM     10  C   UNL     1       6.055  -0.770   1.428  1.00  0.00     0.000 A 
ATOM     11  C   UNL     1       5.282   1.386   0.881  1.00  0.00     0.000 A 
ATOM     12  C   UNL     1       5.390   0.375   1.815  1.00  0.00     0.000 A 
ENDBRANCH   6   7
ENDBRANCH   1   6
TORSDOF 4
ENDMDL
MODEL 3
REMARK VINA RESULT:      -7.2      0.687      1.621
REMARK SMILES O=C(O)CCc1ccccc1
REMARK SMILES IDX 4 1 2 2 1 3 3 4 5 6 6 7 7 8 11 9 8 10 10 11 9 12
REMARK H PARENT 3 5
REMARK Flexibility Score: inf
ROOT
ATOM      1  C   UNL     1       8.355  -0.953  -1.790  1.00  0.00     0.127 C 
ENDROOT
BRANCH   1   2
ATOM      2  C   UNL     1       8.443  -2.008  -2.832  1.00  0.00     0.303 C 
ATOM      3  O   UNL     1       9.566  -2.481  -3.131  1.00  0.00    -0.252 OA
BRANCH   2   4
ATOM      4  O   UNL     1       7.322  -2.499  -3.496  1.00  0.00    -0.481 OA
ATOM      5  H   UNL     1       6.535  -2.931  -2.988  1.00  0.00     0.296 HD
ENDBRANCH   2   4
ENDBRANCH   1   2
BRANCH   1   6
ATOM      6  C   UNL     1       7.405  -1.440  -0.731  1.00  0.00     0.047 C 
BRANCH   6   7
ATOM      7  C   UNL     1       6.578  -0.344  -0.162  1.00  0.00    -0.047 A 
ATOM      8  C   UNL     1       6.125  -0.393   1.142  1.00  0.00     0.004 A 
ATOM      9  C   UNL     1       6.225   0.770  -0.900  1.00  0.00     0.004 A 
ATOM     10  C   UNL     1       5.357   0.631   1.662  1.00  0.00     0.000 A 
ATOM     11  C   UNL     1       5.460   1.793  -0.384  1.00  0.00     0.000 A 
ATOM     12  C   UNL     1       5.008   1.740   0.919  1.00  0.00     0.000 A 
ENDBRANCH   6   7
ENDBRANCH   1   6
TORSDOF 4
ENDMDL
MODEL 4
REMARK VINA RESULT:      -6.8      3.364      5.058
REMARK SMILES O=C(O)CCc1ccccc1
REMARK SMILES IDX 4 1 2 2 1 3 3 4 5 6 6 7 7 8 11 9 8 10 10 11 9 12
REMARK H PARENT 3 5
REMARK Flexibility Score: inf
ROOT
ATOM      1  C   UNL     1       5.004   1.760   0.731  1.00  0.00     0.127 C 
ENDROOT
BRANCH   1   2
ATOM      2  C   UNL     1       4.488   1.053   1.932  1.00  0.00     0.303 C 
ATOM      3  O   UNL     1       5.174   0.135   2.444  1.00  0.00    -0.252 OA
BRANCH   2   4
ATOM      4  O   UNL     1       3.265   1.369   2.518  1.00  0.00    -0.481 OA
ATOM      5  H   UNL     1       2.711   2.184   2.214  1.00  0.00     0.296 HD
ENDBRANCH   2   4
ENDBRANCH   1   2
BRANCH   1   6
ATOM      6  C   UNL     1       6.505   1.756   0.814  1.00  0.00     0.047 C 
BRANCH   6   7
ATOM      7  C   UNL     1       7.133   0.998  -0.299  1.00  0.00    -0.047 A 
ATOM      8  C   UNL     1       8.462   1.181  -0.629  1.00  0.00     0.004 A 
ATOM      9  C   UNL     1       6.428   0.079  -1.053  1.00  0.00     0.004 A 
ATOM     10  C   UNL     1       9.036   0.471  -1.666  1.00  0.00     0.000 A 
ATOM     11  C   UNL     1       6.998  -0.630  -2.087  1.00  0.00     0.000 A 
ATOM     12  C   UNL     1       8.326  -0.445  -2.415  1.00  0.00     0.000 A 
ENDBRANCH   6   7
ENDBRANCH   1   6
TORSDOF 4
ENDMDL
MODEL 5
REMARK VINA RESULT:      -6.7      3.829      4.985
REMARK SMILES O=C(O)CCc1ccccc1
REMARK SMILES IDX 4 1 2 2 1 3 3 4 5 6 6 7 7 8 11 9 8 10 10 11 9 12
REMARK H PARENT 3 5
REMARK Flexibility Score: inf
ROOT
ATOM      1  C   UNL     1       5.487   2.913  -0.041  1.00  0.00     0.127 C 
ENDROOT
BRANCH   1   2
ATOM      2  C   UNL     1       6.240   3.892   0.785  1.00  0.00     0.303 C 
ATOM      3  O   UNL     1       6.926   4.774   0.215  1.00  0.00    -0.252 OA
BRANCH   2   4
ATOM      4  O   UNL     1       6.214   3.871   2.177  1.00  0.00    -0.481 OA
ATOM      5  H   UNL     1       6.707   4.580   2.741  1.00  0.00     0.296 HD
ENDBRANCH   2   4
ENDBRANCH   1   2
BRANCH   1   6
ATOM      6  C   UNL     1       4.897   1.892   0.892  1.00  0.00     0.047 C 
BRANCH   6   7
ATOM      7  C   UNL     1       5.695   0.639   0.941  1.00  0.00    -0.047 A 
ATOM      8  C   UNL     1       5.693  -0.167   2.063  1.00  0.00     0.004 A 
ATOM      9  C   UNL     1       6.471   0.220  -0.123  1.00  0.00     0.004 A 
ATOM     10  C   UNL     1       6.438  -1.330   2.098  1.00  0.00     0.000 A 
ATOM     11  C   UNL     1       7.215  -0.939  -0.090  1.00  0.00     0.000 A 
ATOM     12  C   UNL     1       7.212  -1.742   1.032  1.00  0.00     0.000 A 
ENDBRANCH   6   7
ENDBRANCH   1   6
TORSDOF 4
ENDMDL
