@<TRIPOS>MOLECULE
/home/cewinharhar/GITHUB/reincatalyze/data/processed/docking_pred/2023-Apr-25-2033_maxeplen5_maxtrainstep200_exh16_gamma099_lrac3e-4_lrcr1e-3/354626f0a3e222b5e9865005b72eb67019ec4e19_ligand_2.pdbqt
 12 12 0 0 0
SMALL
GASTEIGER

@<TRIPOS>ATOM
      1  C          8.4610   -0.6050   -2.1660 C.3     1  UNL1        0.1270
      2  C          8.4660   -1.8880   -2.9140 C.2     1  UNL1        0.3030
      3  O          9.5530   -2.4900   -3.0910 O.2     1  UNL1       -0.2520
      4  O          7.3040   -2.4570   -3.4310 O.3     1  UNL1       -0.4810
      5  H          7.0340   -2.3390   -4.4200 H       1  UNL1        0.2960
      6  C          7.0490   -0.0890   -2.1620 C.3     1  UNL1        0.0470
      7  C          6.4960    0.0420   -0.7880 C.2     1  UNL1       -0.0470
      8  C          5.8500    1.1940   -0.3830 C.2     1  UNL1        0.0040
      9  C          6.5990   -0.9720    0.1460 C.2     1  UNL1        0.0040
     10  C          5.3410    1.3050    0.8960 C.2     1  UNL1        0.0000
     11  C          6.0910   -0.8640    1.4210 C.2     1  UNL1        0.0000
     12  C          5.4470    0.2880    1.8230 C.2     1  UNL1        0.0000
@<TRIPOS>BOND
     1     5     4    1
     2     4     2    1
     3     3     2    2
     4     2     1    1
     5     1     6    1
     6     6     7    1
     7     7     8    2
     8     7     9    1
     9     8    10    1
    10     9    11    2
    11    10    12    2
    12    11    12    1
