@<TRIPOS>MOLECULE
/home/cewinharhar/GITHUB/reincatalyze/data/processed/docking_pred/2023-Apr-25-2033_maxeplen5_maxtrainstep200_exh16_gamma099_lrac3e-4_lrcr1e-3/354626f0a3e222b5e9865005b72eb67019ec4e19_ligand_2.pdbqt
 12 12 0 0 0
SMALL
GASTEIGER

@<TRIPOS>ATOM
      1  C          5.0040    1.7600    0.7310 C.3     1  UNL1        0.1270
      2  C          4.4880    1.0530    1.9320 C.2     1  UNL1        0.3030
      3  O          5.1740    0.1350    2.4440 O.2     1  UNL1       -0.2520
      4  O          3.2650    1.3690    2.5180 O.3     1  UNL1       -0.4810
      5  H          2.7110    2.1840    2.2140 H       1  UNL1        0.2960
      6  C          6.5050    1.7560    0.8140 C.3     1  UNL1        0.0470
      7  C          7.1330    0.9980   -0.2990 C.2     1  UNL1       -0.0470
      8  C          8.4620    1.1810   -0.6290 C.2     1  UNL1        0.0040
      9  C          6.4280    0.0790   -1.0530 C.2     1  UNL1        0.0040
     10  C          9.0360    0.4710   -1.6660 C.2     1  UNL1        0.0000
     11  C          6.9980   -0.6300   -2.0870 C.2     1  UNL1        0.0000
     12  C          8.3260   -0.4450   -2.4150 C.2     1  UNL1        0.0000
@<TRIPOS>BOND
     1    12    11    2
     2    12    10    1
     3    11     9    1
     4    10     8    2
     5     9     7    2
     6     8     7    1
     7     7     6    1
     8     1     6    1
     9     1     2    1
    10     2     3    2
    11     2     4    1
    12     5     4    1
