@<TRIPOS>MOLECULE
/home/cewinharhar/GITHUB/reincatalyze/data/processed/docking_pred/2023-Apr-25-2033_maxeplen5_maxtrainstep200_exh16_gamma099_lrac3e-4_lrcr1e-3/354626f0a3e222b5e9865005b72eb67019ec4e19_ligand_2.pdbqt
 12 12 0 0 0
SMALL
GASTEIGER

@<TRIPOS>ATOM
      1  C          8.3550   -0.9530   -1.7900 C.3     1  UNL1        0.1270
      2  C          8.4430   -2.0080   -2.8320 C.2     1  UNL1        0.3030
      3  O          9.5660   -2.4810   -3.1310 O.2     1  UNL1       -0.2520
      4  O          7.3220   -2.4990   -3.4960 O.3     1  UNL1       -0.4810
      5  H          6.5350   -2.9310   -2.9880 H       1  UNL1        0.2960
      6  C          7.4050   -1.4400   -0.7310 C.3     1  UNL1        0.0470
      7  C          6.5780   -0.3440   -0.1620 C.2     1  UNL1       -0.0470
      8  C          6.1250   -0.3930    1.1420 C.2     1  UNL1        0.0040
      9  C          6.2250    0.7700   -0.9000 C.2     1  UNL1        0.0040
     10  C          5.3570    0.6310    1.6620 C.2     1  UNL1        0.0000
     11  C          5.4600    1.7930   -0.3840 C.2     1  UNL1        0.0000
     12  C          5.0080    1.7400    0.9190 C.2     1  UNL1        0.0000
@<TRIPOS>BOND
     1     4     5    1
     2     4     2    1
     3     3     2    2
     4     2     1    1
     5     1     6    1
     6     9    11    1
     7     9     7    2
     8     6     7    1
     9    11    12    2
    10     7     8    1
    11    12    10    1
    12     8    10    2
