@<TRIPOS>MOLECULE
/home/cewinharhar/GITHUB/reincatalyze/data/processed/docking_pred/2023-Apr-25-2033_maxeplen5_maxtrainstep200_exh16_gamma099_lrac3e-4_lrcr1e-3/354626f0a3e222b5e9865005b72eb67019ec4e19_ligand_2.pdbqt
 12 12 0 0 0
SMALL
GASTEIGER

@<TRIPOS>ATOM
      1  C          5.4870    2.9130   -0.0410 C.3     1  UNL1        0.1270
      2  C          6.2400    3.8920    0.7850 C.2     1  UNL1        0.3030
      3  O          6.9260    4.7740    0.2150 O.2     1  UNL1       -0.2520
      4  O          6.2140    3.8710    2.1770 O.3     1  UNL1       -0.4810
      5  H          6.7070    4.5800    2.7410 H       1  UNL1        0.2960
      6  C          4.8970    1.8920    0.8920 C.3     1  UNL1        0.0470
      7  C          5.6950    0.6390    0.9410 C.2     1  UNL1       -0.0470
      8  C          5.6930   -0.1670    2.0630 C.2     1  UNL1        0.0040
      9  C          6.4710    0.2200   -0.1230 C.2     1  UNL1        0.0040
     10  C          6.4380   -1.3300    2.0980 C.2     1  UNL1        0.0000
     11  C          7.2150   -0.9390   -0.0900 C.2     1  UNL1        0.0000
     12  C          7.2120   -1.7420    1.0320 C.2     1  UNL1        0.0000
@<TRIPOS>BOND
     1     9    11    1
     2     9     7    2
     3    11    12    2
     4     1     2    1
     5     1     6    1
     6     3     2    2
     7     2     4    1
     8     6     7    1
     9     7     8    1
    10    12    10    1
    11     8    10    2
    12     4     5    1
