@<TRIPOS>MOLECULE
/home/cewinharhar/GITHUB/reincatalyze/data/processed/docking_pred/2023-Apr-25-2033_maxeplen5_maxtrainstep200_exh16_gamma099_lrac3e-4_lrcr1e-3/354626f0a3e222b5e9865005b72eb67019ec4e19_ligand_2.pdbqt
 12 12 0 0 0
SMALL
GASTEIGER

@<TRIPOS>ATOM
      1  C          8.4560   -0.6360   -2.1060 C.3     1  UNL1        0.1270
      2  C          8.4270   -1.9040   -2.8820 C.2     1  UNL1        0.3030
      3  O          7.3200   -2.3960   -3.2090 O.2     1  UNL1       -0.2520
      4  O          9.5860   -2.5730   -3.2640 O.3     1  UNL1       -0.4810
      5  H         10.3360   -2.1030   -3.7940 H       1  UNL1        0.2960
      6  C          7.0680   -0.0580   -2.1320 C.3     1  UNL1        0.0470
      7  C          6.4900    0.0910   -0.7710 C.2     1  UNL1       -0.0470
      8  C          6.5960   -0.9190    0.1650 C.2     1  UNL1        0.0040
      9  C          5.8230    1.2360   -0.3770 C.2     1  UNL1        0.0040
     10  C          6.0550   -0.7700    1.4280 C.2     1  UNL1        0.0000
     11  C          5.2820    1.3860    0.8810 C.2     1  UNL1        0.0000
     12  C          5.3900    0.3750    1.8150 C.2     1  UNL1        0.0000
@<TRIPOS>BOND
     1     5     4    1
     2     4     2    1
     3     3     2    2
     4     2     1    1
     5     6     1    1
     6     6     7    1
     7     7     9    2
     8     7     8    1
     9     9    11    1
    10     8    10    2
    11    11    12    2
    12    10    12    1
