@<TRIPOS>MOLECULE
/home/cewinharhar/GITHUB/reincatalyze/data/processed/docking_pred/2023-Apr-25-2033_maxeplen5_maxtrainstep200_exh16_gamma099_lrac3e-4_lrcr1e-3/36543b95c0c748273319382419c31c9b55863a9a_ligand_2.pdbqt
 12 12 0 0 0
SMALL
GASTEIGER

@<TRIPOS>ATOM
      1  C          8.4360   -0.6010   -2.1580 C.3     1  UNL1        0.1270
      2  C          8.4220   -1.8930   -2.8940 C.2     1  UNL1        0.3030
      3  O          7.3220   -2.4110   -3.2010 O.2     1  UNL1       -0.2520
      4  O          9.5900   -2.5560   -3.2600 O.3     1  UNL1       -0.4810
      5  H          9.6860   -3.0250   -4.1740 H       1  UNL1        0.2960
      6  C          7.0280   -0.0710   -2.1490 C.3     1  UNL1        0.0470
      7  C          6.4800    0.0600   -0.7730 C.2     1  UNL1       -0.0470
      8  C          5.8330    1.2110   -0.3680 C.2     1  UNL1        0.0040
      9  C          6.5880   -0.9540    0.1610 C.2     1  UNL1        0.0040
     10  C          5.3270    1.3220    0.9130 C.2     1  UNL1        0.0000
     11  C          6.0850   -0.8450    1.4380 C.2     1  UNL1        0.0000
     12  C          5.4390    0.3070    1.8410 C.2     1  UNL1        0.0000
@<TRIPOS>BOND
     1     5     4    1
     2     4     2    1
     3     3     2    2
     4     2     1    1
     5     1     6    1
     6     6     7    1
     7     7     8    2
     8     7     9    1
     9     8    10    1
    10     9    11    2
    11    10    12    2
    12    11    12    1
