@<TRIPOS>MOLECULE
/home/cewinharhar/GITHUB/reincatalyze/data/processed/docking_pred/2023-Apr-25-2033_maxeplen5_maxtrainstep200_exh16_gamma099_lrac3e-4_lrcr1e-3/36543b95c0c748273319382419c31c9b55863a9a_ligand_2.pdbqt
 12 12 0 0 0
SMALL
GASTEIGER

@<TRIPOS>ATOM
      1  C          8.2880    0.3590   -1.9910 C.3     1  UNL1        0.1270
      2  C          9.4720    0.4180   -1.0950 C.2     1  UNL1        0.3030
      3  O          9.5370   -0.3630   -0.1150 O.2     1  UNL1       -0.2520
      4  O         10.5210    1.3100   -1.3000 O.3     1  UNL1       -0.4810
      5  H         10.4320    2.3140   -1.0810 H       1  UNL1        0.2960
      6  C          7.2900   -0.5750   -1.3630 C.3     1  UNL1        0.0470
      7  C          6.4360    0.1030   -0.3540 C.2     1  UNL1       -0.0470
      8  C          5.8680    1.3360   -0.6090 C.2     1  UNL1        0.0040
      9  C          6.1670   -0.4610    0.8800 C.2     1  UNL1        0.0040
     10  C          5.0750    1.9570    0.3370 C.2     1  UNL1        0.0000
     11  C          5.3760    0.1560    1.8240 C.2     1  UNL1        0.0000
     12  C          4.8110    1.3890    1.5660 C.2     1  UNL1        0.0000
@<TRIPOS>BOND
     1     1     6    1
     2     1     2    1
     3     6     7    1
     4     4     2    1
     5     4     5    1
     6     2     3    2
     7     8     7    2
     8     8    10    1
     9     7     9    1
    10    10    12    2
    11     9    11    2
    12    12    11    1
