MODEL 1
REMARK VINA RESULT:      -7.3      0.000      0.000
REMARK SMILES O=C(O)CCc1ccccc1
REMARK SMILES IDX 4 1 2 2 1 3 3 4 5 6 6 7 7 8 11 9 8 10 10 11 9 12
REMARK H PARENT 3 5
REMARK Flexibility Score: inf
ROOT
ATOM      1  C   UNL     1       8.460  -0.569  -2.233  1.00  0.00     0.127 C 
ENDROOT
BRANCH   1   2
ATOM      2  C   UNL     1       8.483  -1.875  -2.941  1.00  0.00     0.303 C 
ATOM      3  O   UNL     1       9.581  -2.459  -3.112  1.00  0.00    -0.252 OA
BRANCH   2   4
ATOM      4  O   UNL     1       7.329  -2.482  -3.428  1.00  0.00    -0.481 OA
ATOM      5  H   UNL     1       6.388  -2.137  -3.182  1.00  0.00     0.296 HD
ENDBRANCH   2   4
ENDBRANCH   1   2
BRANCH   1   6
ATOM      6  C   UNL     1       7.037  -0.082  -2.227  1.00  0.00     0.047 C 
BRANCH   6   7
ATOM      7  C   UNL     1       6.496   0.073  -0.852  1.00  0.00    -0.047 A 
ATOM      8  C   UNL     1       6.601  -0.944   0.077  1.00  0.00     0.004 A 
ATOM      9  C   UNL     1       5.867   1.231  -0.436  1.00  0.00     0.004 A 
ATOM     10  C   UNL     1       6.093  -0.789   1.353  1.00  0.00     0.000 A 
ATOM     11  C   UNL     1       5.361   1.388   0.836  1.00  0.00     0.000 A 
ATOM     12  C   UNL     1       5.466   0.370   1.762  1.00  0.00     0.000 A 
ENDBRANCH   6   7
ENDBRANCH   1   6
TORSDOF 4
ENDMDL
MODEL 2
REMARK VINA RESULT:      -7.3      0.121      1.719
REMARK SMILES O=C(O)CCc1ccccc1
REMARK SMILES IDX 4 1 2 2 1 3 3 4 5 6 6 7 7 8 11 9 8 10 10 11 9 12
REMARK H PARENT 3 5
REMARK Flexibility Score: inf
ROOT
ATOM      1  C   UNL     1       8.436  -0.601  -2.158  1.00  0.00     0.127 C 
ENDROOT
BRANCH   1   2
ATOM      2  C   UNL     1       8.422  -1.893  -2.894  1.00  0.00     0.303 C 
ATOM      3  O   UNL     1       7.322  -2.411  -3.201  1.00  0.00    -0.252 OA
BRANCH   2   4
ATOM      4  O   UNL     1       9.590  -2.556  -3.260  1.00  0.00    -0.481 OA
ATOM      5  H   UNL     1       9.686  -3.025  -4.174  1.00  0.00     0.296 HD
ENDBRANCH   2   4
ENDBRANCH   1   2
BRANCH   1   6
ATOM      6  C   UNL     1       7.028  -0.071  -2.149  1.00  0.00     0.047 C 
BRANCH   6   7
ATOM      7  C   UNL     1       6.480   0.060  -0.773  1.00  0.00    -0.047 A 
ATOM      8  C   UNL     1       5.833   1.211  -0.368  1.00  0.00     0.004 A 
ATOM      9  C   UNL     1       6.588  -0.954   0.161  1.00  0.00     0.004 A 
ATOM     10  C   UNL     1       5.327   1.322   0.913  1.00  0.00     0.000 A 
ATOM     11  C   UNL     1       6.085  -0.845   1.438  1.00  0.00     0.000 A 
ATOM     12  C   UNL     1       5.439   0.307   1.841  1.00  0.00     0.000 A 
ENDBRANCH   6   7
ENDBRANCH   1   6
TORSDOF 4
ENDMDL
MODEL 3
REMARK VINA RESULT:      -6.8      3.388      5.079
REMARK SMILES O=C(O)CCc1ccccc1
REMARK SMILES IDX 4 1 2 2 1 3 3 4 5 6 6 7 7 8 11 9 8 10 10 11 9 12
REMARK H PARENT 3 5
REMARK Flexibility Score: inf
ROOT
ATOM      1  C   UNL     1       4.988   1.789   0.701  1.00  0.00     0.127 C 
ENDROOT
BRANCH   1   2
ATOM      2  C   UNL     1       4.467   1.117   1.920  1.00  0.00     0.303 C 
ATOM      3  O   UNL     1       5.155   0.223   2.467  1.00  0.00    -0.252 OA
BRANCH   2   4
ATOM      4  O   UNL     1       3.236   1.443   2.484  1.00  0.00    -0.481 OA
ATOM      5  H   UNL     1       3.112   1.532   3.504  1.00  0.00     0.296 HD
ENDBRANCH   2   4
ENDBRANCH   1   2
BRANCH   1   6
ATOM      6  C   UNL     1       6.489   1.794   0.794  1.00  0.00     0.047 C 
BRANCH   6   7
ATOM      7  C   UNL     1       7.129   1.039  -0.316  1.00  0.00    -0.047 A 
ATOM      8  C   UNL     1       6.411   0.130  -1.070  1.00  0.00     0.004 A 
ATOM      9  C   UNL     1       8.460   1.208  -0.649  1.00  0.00     0.004 A 
ATOM     10  C   UNL     1       7.016  -0.565  -2.100  1.00  0.00     0.000 A 
ATOM     11  C   UNL     1       9.064   0.516  -1.675  1.00  0.00     0.000 A 
ATOM     12  C   UNL     1       8.345  -0.392  -2.426  1.00  0.00     0.000 A 
ENDBRANCH   6   7
ENDBRANCH   1   6
TORSDOF 4
ENDMDL
MODEL 4
REMARK VINA RESULT:      -6.7      3.851      4.942
REMARK SMILES O=C(O)CCc1ccccc1
REMARK SMILES IDX 4 1 2 2 1 3 3 4 5 6 6 7 7 8 11 9 8 10 10 11 9 12
REMARK H PARENT 3 5
REMARK Flexibility Score: inf
ROOT
ATOM      1  C   UNL     1       5.473   2.871   0.003  1.00  0.00     0.127 C 
ENDROOT
BRANCH   1   2
ATOM      2  C   UNL     1       6.253   3.834   0.822  1.00  0.00     0.303 C 
ATOM      3  O   UNL     1       6.868   4.767   0.250  1.00  0.00    -0.252 OA
BRANCH   2   4
ATOM      4  O   UNL     1       6.331   3.745   2.209  1.00  0.00    -0.481 OA
ATOM      5  H   UNL     1       6.611   4.549   2.792  1.00  0.00     0.296 HD
ENDBRANCH   2   4
ENDBRANCH   1   2
BRANCH   1   6
ATOM      6  C   UNL     1       4.900   1.842   0.938  1.00  0.00     0.047 C 
BRANCH   6   7
ATOM      7  C   UNL     1       5.702   0.591   0.964  1.00  0.00    -0.047 A 
ATOM      8  C   UNL     1       5.789  -0.179   2.108  1.00  0.00     0.004 A 
ATOM      9  C   UNL     1       6.393   0.137  -0.143  1.00  0.00     0.004 A 
ATOM     10  C   UNL     1       6.538  -1.340   2.122  1.00  0.00     0.000 A 
ATOM     11  C   UNL     1       7.140  -1.021  -0.132  1.00  0.00     0.000 A 
ATOM     12  C   UNL     1       7.226  -1.787   1.012  1.00  0.00     0.000 A 
ENDBRANCH   6   7
ENDBRANCH   1   6
TORSDOF 4
ENDMDL
MODEL 5
REMARK VINA RESULT:      -6.6      1.994      2.678
REMARK SMILES O=C(O)CCc1ccccc1
REMARK SMILES IDX 4 1 2 2 1 3 3 4 5 6 6 7 7 8 11 9 8 10 10 11 9 12
REMARK H PARENT 3 5
REMARK Flexibility Score: inf
ROOT
ATOM      1  C   UNL     1       8.288   0.359  -1.991  1.00  0.00     0.127 C 
ENDROOT
BRANCH   1   2
ATOM      2  C   UNL     1       9.472   0.418  -1.095  1.00  0.00     0.303 C 
ATOM      3  O   UNL     1       9.537  -0.363  -0.115  1.00  0.00    -0.252 OA
BRANCH   2   4
ATOM      4  O   UNL     1      10.521   1.310  -1.300  1.00  0.00    -0.481 OA
ATOM      5  H   UNL     1      10.432   2.314  -1.081  1.00  0.00     0.296 HD
ENDBRANCH   2   4
ENDBRANCH   1   2
BRANCH   1   6
ATOM      6  C   UNL     1       7.290  -0.575  -1.363  1.00  0.00     0.047 C 
BRANCH   6   7
ATOM      7  C   UNL     1       6.436   0.103  -0.354  1.00  0.00    -0.047 A 
ATOM      8  C   UNL     1       5.868   1.336  -0.609  1.00  0.00     0.004 A 
ATOM      9  C   UNL     1       6.167  -0.461   0.880  1.00  0.00     0.004 A 
ATOM     10  C   UNL     1       5.075   1.957   0.337  1.00  0.00     0.000 A 
ATOM     11  C   UNL     1       5.376   0.156   1.824  1.00  0.00     0.000 A 
ATOM     12  C   UNL     1       4.811   1.389   1.566  1.00  0.00     0.000 A 
ENDBRANCH   6   7
ENDBRANCH   1   6
TORSDOF 4
ENDMDL
