@<TRIPOS>MOLECULE
/home/cewinharhar/GITHUB/reincatalyze/data/processed/docking_pred/2023-Apr-25-2033_maxeplen5_maxtrainstep200_exh16_gamma099_lrac3e-4_lrcr1e-3/36543b95c0c748273319382419c31c9b55863a9a_ligand_2.pdbqt
 12 12 0 0 0
SMALL
GASTEIGER

@<TRIPOS>ATOM
      1  C          5.4730    2.8710    0.0030 C.3     1  UNL1        0.1270
      2  C          6.2530    3.8340    0.8220 C.2     1  UNL1        0.3030
      3  O          6.8680    4.7670    0.2500 O.2     1  UNL1       -0.2520
      4  O          6.3310    3.7450    2.2090 O.3     1  UNL1       -0.4810
      5  H          6.6110    4.5490    2.7920 H       1  UNL1        0.2960
      6  C          4.9000    1.8420    0.9380 C.3     1  UNL1        0.0470
      7  C          5.7020    0.5910    0.9640 C.2     1  UNL1       -0.0470
      8  C          5.7890   -0.1790    2.1080 C.2     1  UNL1        0.0040
      9  C          6.3930    0.1370   -0.1430 C.2     1  UNL1        0.0040
     10  C          6.5380   -1.3400    2.1220 C.2     1  UNL1        0.0000
     11  C          7.1400   -1.0210   -0.1320 C.2     1  UNL1        0.0000
     12  C          7.2260   -1.7870    1.0120 C.2     1  UNL1        0.0000
@<TRIPOS>BOND
     1     9    11    1
     2     9     7    2
     3    11    12    2
     4     1     2    1
     5     1     6    1
     6     3     2    2
     7     2     4    1
     8     6     7    1
     9     7     8    1
    10    12    10    1
    11     8    10    2
    12     4     5    1
