@<TRIPOS>MOLECULE
/home/cewinharhar/GITHUB/reincatalyze/data/processed/docking_pred/2023-Apr-25-2033_maxeplen5_maxtrainstep200_exh16_gamma099_lrac3e-4_lrcr1e-3/36543b95c0c748273319382419c31c9b55863a9a_ligand_2.pdbqt
 12 12 0 0 0
SMALL
GASTEIGER

@<TRIPOS>ATOM
      1  C          8.4600   -0.5690   -2.2330 C.3     1  UNL1        0.1270
      2  C          8.4830   -1.8750   -2.9410 C.2     1  UNL1        0.3030
      3  O          9.5810   -2.4590   -3.1120 O.2     1  UNL1       -0.2520
      4  O          7.3290   -2.4820   -3.4280 O.3     1  UNL1       -0.4810
      5  H          6.3880   -2.1370   -3.1820 H       1  UNL1        0.2960
      6  C          7.0370   -0.0820   -2.2270 C.3     1  UNL1        0.0470
      7  C          6.4960    0.0730   -0.8520 C.2     1  UNL1       -0.0470
      8  C          6.6010   -0.9440    0.0770 C.2     1  UNL1        0.0040
      9  C          5.8670    1.2310   -0.4360 C.2     1  UNL1        0.0040
     10  C          6.0930   -0.7890    1.3530 C.2     1  UNL1        0.0000
     11  C          5.3610    1.3880    0.8360 C.2     1  UNL1        0.0000
     12  C          5.4660    0.3700    1.7620 C.2     1  UNL1        0.0000
@<TRIPOS>BOND
     1     4     5    1
     2     4     2    1
     3     3     2    2
     4     2     1    1
     5     1     6    1
     6     6     7    1
     7     7     9    2
     8     7     8    1
     9     9    11    1
    10     8    10    2
    11    11    12    2
    12    10    12    1
