@<TRIPOS>MOLECULE
/home/cewinharhar/GITHUB/reincatalyze/data/processed/docking_pred/2023-Apr-25-2033_maxeplen5_maxtrainstep200_exh16_gamma099_lrac3e-4_lrcr1e-3/36543b95c0c748273319382419c31c9b55863a9a_ligand_2.pdbqt
 12 12 0 0 0
SMALL
GASTEIGER

@<TRIPOS>ATOM
      1  C          4.9880    1.7890    0.7010 C.3     1  UNL1        0.1270
      2  C          4.4670    1.1170    1.9200 C.2     1  UNL1        0.3030
      3  O          5.1550    0.2230    2.4670 O.2     1  UNL1       -0.2520
      4  O          3.2360    1.4430    2.4840 O.3     1  UNL1       -0.4810
      5  H          3.1120    1.5320    3.5040 H       1  UNL1        0.2960
      6  C          6.4890    1.7940    0.7940 C.3     1  UNL1        0.0470
      7  C          7.1290    1.0390   -0.3160 C.2     1  UNL1       -0.0470
      8  C          6.4110    0.1300   -1.0700 C.2     1  UNL1        0.0040
      9  C          8.4600    1.2080   -0.6490 C.2     1  UNL1        0.0040
     10  C          7.0160   -0.5650   -2.1000 C.2     1  UNL1        0.0000
     11  C          9.0640    0.5160   -1.6750 C.2     1  UNL1        0.0000
     12  C          8.3450   -0.3920   -2.4260 C.2     1  UNL1        0.0000
@<TRIPOS>BOND
     1    12    10    2
     2    12    11    1
     3    10     8    1
     4    11     9    2
     5     8     7    2
     6     9     7    1
     7     7     6    1
     8     1     6    1
     9     1     2    1
    10     2     3    2
    11     2     4    1
    12     4     5    1
