@<TRIPOS>MOLECULE
/home/cewinharhar/GITHUB/reincatalyze/data/processed/docking_pred/2023-Apr-25-2033_maxeplen5_maxtrainstep200_exh16_gamma099_lrac3e-4_lrcr1e-3/37a8b72800122466266a4bb22cdda1f56f02b914_ligand_2.pdbqt
 12 12 0 0 0
SMALL
GASTEIGER

@<TRIPOS>ATOM
      1  C          5.0020    1.7820    0.6920 C.3     1  UNL1        0.1270
      2  C          4.4690    1.1190    1.9100 C.2     1  UNL1        0.3030
      3  O          5.1460    0.2180    2.4630 O.2     1  UNL1       -0.2520
      4  O          3.2400    1.4590    2.4690 O.3     1  UNL1       -0.4810
      5  H          2.4840    0.7670    2.5830 H       1  UNL1        0.2960
      6  C          6.5030    1.7720    0.7900 C.3     1  UNL1        0.0470
      7  C          7.1390    1.0160   -0.3200 C.2     1  UNL1       -0.0470
      8  C          8.4650    1.2140   -0.6530 C.2     1  UNL1        0.0040
      9  C          6.4440    0.0840   -1.0680 C.2     1  UNL1        0.0040
     10  C          9.0470    0.5050   -1.6870 C.2     1  UNL1        0.0000
     11  C          7.0220   -0.6240   -2.0990 C.2     1  UNL1        0.0000
     12  C          8.3470   -0.4230   -2.4300 C.2     1  UNL1        0.0000
@<TRIPOS>BOND
     1    12    11    2
     2    12    10    1
     3    11     9    1
     4    10     8    2
     5     9     7    2
     6     8     7    1
     7     7     6    1
     8     1     6    1
     9     1     2    1
    10     2     3    2
    11     2     4    1
    12     4     5    1
