@<TRIPOS>MOLECULE
/home/cewinharhar/GITHUB/reincatalyze/data/processed/docking_pred/2023-Apr-25-2033_maxeplen5_maxtrainstep200_exh16_gamma099_lrac3e-4_lrcr1e-3/37a8b72800122466266a4bb22cdda1f56f02b914_ligand_2.pdbqt
 12 12 0 0 0
SMALL
GASTEIGER

@<TRIPOS>ATOM
      1  C          8.2470    0.1500   -2.2220 C.3     1  UNL1        0.1270
      2  C          9.3720    0.3500   -1.2720 C.2     1  UNL1        0.3030
      3  O          9.4590   -0.3910   -0.2620 O.2     1  UNL1       -0.2520
      4  O         10.3410    1.3320   -1.4560 O.3     1  UNL1       -0.4810
      5  H         10.1170    2.2440   -1.8830 H       1  UNL1        0.2960
      6  C          7.1800   -0.6280   -1.5040 C.3     1  UNL1        0.0470
      7  C          6.3720    0.2240   -0.5920 C.2     1  UNL1       -0.0470
      8  C          6.1210   -0.1600    0.7110 C.2     1  UNL1        0.0040
      9  C          5.8370    1.4330   -0.9970 C.2     1  UNL1        0.0040
     10  C          5.3680    0.6400    1.5500 C.2     1  UNL1        0.0000
     11  C          5.0870    2.2320   -0.1630 C.2     1  UNL1        0.0000
     12  C          4.8370    1.8460    1.1380 C.2     1  UNL1        0.0000
@<TRIPOS>BOND
     1     1     6    1
     2     1     2    1
     3     5     4    1
     4     6     7    1
     5     4     2    1
     6     2     3    2
     7     9     7    2
     8     9    11    1
     9     7     8    1
    10    11    12    2
    11     8    10    2
    12    12    10    1
