@<TRIPOS>MOLECULE
/home/cewinharhar/GITHUB/reincatalyze/data/processed/docking_pred/2023-Apr-25-2033_maxeplen5_maxtrainstep200_exh16_gamma099_lrac3e-4_lrcr1e-3/37a8b72800122466266a4bb22cdda1f56f02b914_ligand_2.pdbqt
 12 12 0 0 0
SMALL
GASTEIGER

@<TRIPOS>ATOM
      1  C          8.4540   -0.6720   -2.0600 C.3     1  UNL1        0.1270
      2  C          8.4270   -1.9210   -2.8640 C.2     1  UNL1        0.3030
      3  O          7.3210   -2.4020   -3.2100 O.2     1  UNL1       -0.2520
      4  O          9.5870   -2.5860   -3.2510 O.3     1  UNL1       -0.4810
      5  H          9.5620   -3.5330   -3.6580 H       1  UNL1        0.2960
      6  C          7.0780   -0.0680   -2.1150 C.3     1  UNL1        0.0470
      7  C          6.4820    0.1100   -0.7650 C.2     1  UNL1       -0.0470
      8  C          6.5780   -0.8780    0.1960 C.2     1  UNL1        0.0040
      9  C          5.8090    1.2630   -0.4050 C.2     1  UNL1        0.0040
     10  C          6.0210   -0.7010    1.4480 C.2     1  UNL1        0.0000
     11  C          5.2530    1.4410    0.8420 C.2     1  UNL1        0.0000
     12  C          5.3500    0.4520    1.8000 C.2     1  UNL1        0.0000
@<TRIPOS>BOND
     1     5     4    1
     2     4     2    1
     3     3     2    2
     4     2     1    1
     5     6     1    1
     6     6     7    1
     7     7     9    2
     8     7     8    1
     9     9    11    1
    10     8    10    2
    11    11    12    2
    12    10    12    1
