@<TRIPOS>MOLECULE
/home/cewinharhar/GITHUB/reincatalyze/data/processed/docking_pred/2023-Apr-25-2033_maxeplen5_maxtrainstep200_exh16_gamma099_lrac3e-4_lrcr1e-3/37a8b72800122466266a4bb22cdda1f56f02b914_ligand_2.pdbqt
 12 12 0 0 0
SMALL
GASTEIGER

@<TRIPOS>ATOM
      1  C          5.4800    2.8950   -0.0190 C.3     1  UNL1        0.1270
      2  C          6.2380    3.8830    0.7920 C.2     1  UNL1        0.3030
      3  O          6.9000    4.7750    0.2090 O.2     1  UNL1       -0.2520
      4  O          6.2420    3.8600    2.1840 O.3     1  UNL1       -0.4810
      5  H          5.5040    3.3810    2.7230 H       1  UNL1        0.2960
      6  C          4.9160    1.8700    0.9250 C.3     1  UNL1        0.0470
      7  C          5.7180    0.6190    0.9500 C.2     1  UNL1       -0.0470
      8  C          5.7770   -0.1710    2.0820 C.2     1  UNL1        0.0040
      9  C          6.4380    0.1860   -0.1480 C.2     1  UNL1        0.0040
     10  C          6.5260   -1.3320    2.0940 C.2     1  UNL1        0.0000
     11  C          7.1850   -0.9710   -0.1380 C.2     1  UNL1        0.0000
     12  C          7.2430   -1.7580    0.9940 C.2     1  UNL1        0.0000
@<TRIPOS>BOND
     1     9    11    1
     2     9     7    2
     3    11    12    2
     4     1     2    1
     5     1     6    1
     6     3     2    2
     7     2     4    1
     8     6     7    1
     9     7     8    1
    10    12    10    1
    11     8    10    2
    12     4     5    1
