MODEL 1
REMARK VINA RESULT:      -7.3      0.000      0.000
REMARK SMILES O=C(O)CCc1ccccc1
REMARK SMILES IDX 4 1 2 2 1 3 3 4 5 6 6 7 7 8 11 9 8 10 10 11 9 12
REMARK H PARENT 3 5
REMARK Flexibility Score: inf
ROOT
ATOM      1  C   UNL     1       8.454  -0.672  -2.060  1.00  0.00     0.127 C 
ENDROOT
BRANCH   1   2
ATOM      2  C   UNL     1       8.427  -1.921  -2.864  1.00  0.00     0.303 C 
ATOM      3  O   UNL     1       7.321  -2.402  -3.210  1.00  0.00    -0.252 OA
BRANCH   2   4
ATOM      4  O   UNL     1       9.587  -2.586  -3.251  1.00  0.00    -0.481 OA
ATOM      5  H   UNL     1       9.562  -3.533  -3.658  1.00  0.00     0.296 HD
ENDBRANCH   2   4
ENDBRANCH   1   2
BRANCH   1   6
ATOM      6  C   UNL     1       7.078  -0.068  -2.115  1.00  0.00     0.047 C 
BRANCH   6   7
ATOM      7  C   UNL     1       6.482   0.110  -0.765  1.00  0.00    -0.047 A 
ATOM      8  C   UNL     1       6.578  -0.878   0.196  1.00  0.00     0.004 A 
ATOM      9  C   UNL     1       5.809   1.263  -0.405  1.00  0.00     0.004 A 
ATOM     10  C   UNL     1       6.021  -0.701   1.448  1.00  0.00     0.000 A 
ATOM     11  C   UNL     1       5.253   1.441   0.842  1.00  0.00     0.000 A 
ATOM     12  C   UNL     1       5.350   0.452   1.800  1.00  0.00     0.000 A 
ENDBRANCH   6   7
ENDBRANCH   1   6
TORSDOF 4
ENDMDL
MODEL 2
REMARK VINA RESULT:      -7.2      0.106      1.423
REMARK SMILES O=C(O)CCc1ccccc1
REMARK SMILES IDX 4 1 2 2 1 3 3 4 5 6 6 7 7 8 11 9 8 10 10 11 9 12
REMARK H PARENT 3 5
REMARK Flexibility Score: inf
ROOT
ATOM      1  C   UNL     1       8.438  -0.612  -2.145  1.00  0.00     0.127 C 
ENDROOT
BRANCH   1   2
ATOM      2  C   UNL     1       8.412  -1.897  -2.892  1.00  0.00     0.303 C 
ATOM      3  O   UNL     1       7.307  -2.398  -3.210  1.00  0.00    -0.252 OA
BRANCH   2   4
ATOM      4  O   UNL     1       9.574  -2.572  -3.256  1.00  0.00    -0.481 OA
ATOM      5  H   UNL     1      10.410  -2.073  -3.597  1.00  0.00     0.296 HD
ENDBRANCH   2   4
ENDBRANCH   1   2
BRANCH   1   6
ATOM      6  C   UNL     1       7.036  -0.066  -2.136  1.00  0.00     0.047 C 
BRANCH   6   7
ATOM      7  C   UNL     1       6.485   0.059  -0.762  1.00  0.00    -0.047 A 
ATOM      8  C   UNL     1       5.834   1.207  -0.354  1.00  0.00     0.004 A 
ATOM      9  C   UNL     1       6.592  -0.958   0.169  1.00  0.00     0.004 A 
ATOM     10  C   UNL     1       5.325   1.313   0.926  1.00  0.00     0.000 A 
ATOM     11  C   UNL     1       6.085  -0.855   1.445  1.00  0.00     0.000 A 
ATOM     12  C   UNL     1       5.436   0.294   1.850  1.00  0.00     0.000 A 
ENDBRANCH   6   7
ENDBRANCH   1   6
TORSDOF 4
ENDMDL
MODEL 3
REMARK VINA RESULT:      -6.8      3.300      5.178
REMARK SMILES O=C(O)CCc1ccccc1
REMARK SMILES IDX 4 1 2 2 1 3 3 4 5 6 6 7 7 8 11 9 8 10 10 11 9 12
REMARK H PARENT 3 5
REMARK Flexibility Score: inf
ROOT
ATOM      1  C   UNL     1       5.002   1.782   0.692  1.00  0.00     0.127 C 
ENDROOT
BRANCH   1   2
ATOM      2  C   UNL     1       4.469   1.119   1.910  1.00  0.00     0.303 C 
ATOM      3  O   UNL     1       5.146   0.218   2.463  1.00  0.00    -0.252 OA
BRANCH   2   4
ATOM      4  O   UNL     1       3.240   1.459   2.469  1.00  0.00    -0.481 OA
ATOM      5  H   UNL     1       2.484   0.767   2.583  1.00  0.00     0.296 HD
ENDBRANCH   2   4
ENDBRANCH   1   2
BRANCH   1   6
ATOM      6  C   UNL     1       6.503   1.772   0.790  1.00  0.00     0.047 C 
BRANCH   6   7
ATOM      7  C   UNL     1       7.139   1.016  -0.320  1.00  0.00    -0.047 A 
ATOM      8  C   UNL     1       8.465   1.214  -0.653  1.00  0.00     0.004 A 
ATOM      9  C   UNL     1       6.444   0.084  -1.068  1.00  0.00     0.004 A 
ATOM     10  C   UNL     1       9.047   0.505  -1.687  1.00  0.00     0.000 A 
ATOM     11  C   UNL     1       7.022  -0.624  -2.099  1.00  0.00     0.000 A 
ATOM     12  C   UNL     1       8.347  -0.423  -2.430  1.00  0.00     0.000 A 
ENDBRANCH   6   7
ENDBRANCH   1   6
TORSDOF 4
ENDMDL
MODEL 4
REMARK VINA RESULT:      -6.7      3.821      4.970
REMARK SMILES O=C(O)CCc1ccccc1
REMARK SMILES IDX 4 1 2 2 1 3 3 4 5 6 6 7 7 8 11 9 8 10 10 11 9 12
REMARK H PARENT 3 5
REMARK Flexibility Score: inf
ROOT
ATOM      1  C   UNL     1       5.480   2.895  -0.019  1.00  0.00     0.127 C 
ENDROOT
BRANCH   1   2
ATOM      2  C   UNL     1       6.238   3.883   0.792  1.00  0.00     0.303 C 
ATOM      3  O   UNL     1       6.900   4.775   0.209  1.00  0.00    -0.252 OA
BRANCH   2   4
ATOM      4  O   UNL     1       6.242   3.860   2.184  1.00  0.00    -0.481 OA
ATOM      5  H   UNL     1       5.504   3.381   2.723  1.00  0.00     0.296 HD
ENDBRANCH   2   4
ENDBRANCH   1   2
BRANCH   1   6
ATOM      6  C   UNL     1       4.916   1.870   0.925  1.00  0.00     0.047 C 
BRANCH   6   7
ATOM      7  C   UNL     1       5.718   0.619   0.950  1.00  0.00    -0.047 A 
ATOM      8  C   UNL     1       5.777  -0.171   2.082  1.00  0.00     0.004 A 
ATOM      9  C   UNL     1       6.438   0.186  -0.148  1.00  0.00     0.004 A 
ATOM     10  C   UNL     1       6.526  -1.332   2.094  1.00  0.00     0.000 A 
ATOM     11  C   UNL     1       7.185  -0.971  -0.138  1.00  0.00     0.000 A 
ATOM     12  C   UNL     1       7.243  -1.758   0.994  1.00  0.00     0.000 A 
ENDBRANCH   6   7
ENDBRANCH   1   6
TORSDOF 4
ENDMDL
MODEL 5
REMARK VINA RESULT:      -6.6      1.911      2.225
REMARK SMILES O=C(O)CCc1ccccc1
REMARK SMILES IDX 4 1 2 2 1 3 3 4 5 6 6 7 7 8 11 9 8 10 10 11 9 12
REMARK H PARENT 3 5
REMARK Flexibility Score: inf
ROOT
ATOM      1  C   UNL     1       8.247   0.150  -2.222  1.00  0.00     0.127 C 
ENDROOT
BRANCH   1   2
ATOM      2  C   UNL     1       9.372   0.350  -1.272  1.00  0.00     0.303 C 
ATOM      3  O   UNL     1       9.459  -0.391  -0.262  1.00  0.00    -0.252 OA
BRANCH   2   4
ATOM      4  O   UNL     1      10.341   1.332  -1.456  1.00  0.00    -0.481 OA
ATOM      5  H   UNL     1      10.117   2.244  -1.883  1.00  0.00     0.296 HD
ENDBRANCH   2   4
ENDBRANCH   1   2
BRANCH   1   6
ATOM      6  C   UNL     1       7.180  -0.628  -1.504  1.00  0.00     0.047 C 
BRANCH   6   7
ATOM      7  C   UNL     1       6.372   0.224  -0.592  1.00  0.00    -0.047 A 
ATOM      8  C   UNL     1       6.121  -0.160   0.711  1.00  0.00     0.004 A 
ATOM      9  C   UNL     1       5.837   1.433  -0.997  1.00  0.00     0.004 A 
ATOM     10  C   UNL     1       5.368   0.640   1.550  1.00  0.00     0.000 A 
ATOM     11  C   UNL     1       5.087   2.232  -0.163  1.00  0.00     0.000 A 
ATOM     12  C   UNL     1       4.837   1.846   1.138  1.00  0.00     0.000 A 
ENDBRANCH   6   7
ENDBRANCH   1   6
TORSDOF 4
ENDMDL
