@<TRIPOS>MOLECULE
/home/cewinharhar/GITHUB/reincatalyze/data/processed/docking_pred/2023-Apr-25-2033_maxeplen5_maxtrainstep200_exh16_gamma099_lrac3e-4_lrcr1e-3/3b11ad51370e6150fddf32b3aa65dd5e24197163_ligand_2.pdbqt
 12 12 0 0 0
SMALL
GASTEIGER

@<TRIPOS>ATOM
      1  C          5.5420    1.4250   -0.2850 C.3     1  UNL1        0.1270
      2  C          5.3270    1.7700    1.1450 C.2     1  UNL1        0.3030
      3  O          5.4880    2.9570    1.5180 O.2     1  UNL1       -0.2520
      4  O          4.9500    0.8240    2.0940 O.3     1  UNL1       -0.4810
      5  H          4.3660    1.0710    2.9070 H       1  UNL1        0.2960
      6  C          6.3660    0.1680   -0.3270 C.3     1  UNL1        0.0470
      7  C          7.5660    0.3050   -1.1940 C.2     1  UNL1       -0.0470
      8  C          7.5280   -0.0460   -2.5290 C.2     1  UNL1        0.0040
      9  C          8.7700    0.7860   -0.7130 C.2     1  UNL1        0.0040
     10  C          8.6490    0.0860   -3.3260 C.2     1  UNL1        0.0000
     11  C          9.8890    0.9180   -1.5050 C.2     1  UNL1        0.0000
     12  C          9.8470    0.5670   -2.8390 C.2     1  UNL1        0.0000
@<TRIPOS>BOND
     1    10    12    2
     2    10     8    1
     3    12    11    1
     4     8     7    2
     5    11     9    2
     6     7     9    1
     7     7     6    1
     8     6     1    1
     9     1     2    1
    10     2     3    2
    11     2     4    1
    12     4     5    1
