MODEL 1
REMARK VINA RESULT:      -7.1      0.000      0.000
REMARK SMILES O=C(O)CCc1ccccc1
REMARK SMILES IDX 4 1 2 2 1 3 3 4 5 6 6 7 7 8 11 9 8 10 10 11 9 12
REMARK H PARENT 3 5
REMARK Flexibility Score: inf
ROOT
ATOM      1  C   UNL     1       8.451  -0.644  -2.164  1.00  0.00     0.127 C 
ENDROOT
BRANCH   1   2
ATOM      2  C   UNL     1       8.432  -1.922  -2.922  1.00  0.00     0.303 C 
ATOM      3  O   UNL     1       9.505  -2.548  -3.094  1.00  0.00    -0.252 OA
BRANCH   2   4
ATOM      4  O   UNL     1       7.261  -2.457  -3.454  1.00  0.00    -0.481 OA
ATOM      5  H   UNL     1       6.609  -1.889  -4.015  1.00  0.00     0.296 HD
ENDBRANCH   2   4
ENDBRANCH   1   2
BRANCH   1   6
ATOM      6  C   UNL     1       7.044  -0.114  -2.133  1.00  0.00     0.047 C 
BRANCH   6   7
ATOM      7  C   UNL     1       6.504  -0.020  -0.751  1.00  0.00    -0.047 A 
ATOM      8  C   UNL     1       5.881   1.129  -0.304  1.00  0.00     0.004 A 
ATOM      9  C   UNL     1       6.594  -1.067   0.147  1.00  0.00     0.004 A 
ATOM     10  C   UNL     1       5.382   1.205   0.983  1.00  0.00     0.000 A 
ATOM     11  C   UNL     1       6.097  -0.993   1.429  1.00  0.00     0.000 A 
ATOM     12  C   UNL     1       5.476   0.156   1.874  1.00  0.00     0.000 A 
ENDBRANCH   6   7
ENDBRANCH   1   6
TORSDOF 4
ENDMDL
MODEL 2
REMARK VINA RESULT:      -7.0      0.288      1.448
REMARK SMILES O=C(O)CCc1ccccc1
REMARK SMILES IDX 4 1 2 2 1 3 3 4 5 6 6 7 7 8 11 9 8 10 10 11 9 12
REMARK H PARENT 3 5
REMARK Flexibility Score: inf
ROOT
ATOM      1  C   UNL     1       8.391  -0.273  -2.242  1.00  0.00     0.127 C 
ENDROOT
BRANCH   1   2
ATOM      2  C   UNL     1       8.561  -1.562  -2.960  1.00  0.00     0.303 C 
ATOM      3  O   UNL     1       9.718  -1.961  -3.237  1.00  0.00    -0.252 OA
BRANCH   2   4
ATOM      4  O   UNL     1       7.480  -2.353  -3.342  1.00  0.00    -0.481 OA
ATOM      5  H   UNL     1       6.631  -1.948  -3.765  1.00  0.00     0.296 HD
ENDBRANCH   2   4
ENDBRANCH   1   2
BRANCH   1   6
ATOM      6  C   UNL     1       6.916   0.016  -2.173  1.00  0.00     0.047 C 
BRANCH   6   7
ATOM      7  C   UNL     1       6.420   0.101  -0.774  1.00  0.00    -0.047 A 
ATOM      8  C   UNL     1       6.571  -0.954   0.105  1.00  0.00     0.004 A 
ATOM      9  C   UNL     1       5.789   1.230  -0.286  1.00  0.00     0.004 A 
ATOM     10  C   UNL     1       6.105  -0.863   1.403  1.00  0.00     0.000 A 
ATOM     11  C   UNL     1       5.325   1.323   1.007  1.00  0.00     0.000 A 
ATOM     12  C   UNL     1       5.476   0.267   1.883  1.00  0.00     0.000 A 
ENDBRANCH   6   7
ENDBRANCH   1   6
TORSDOF 4
ENDMDL
MODEL 3
REMARK VINA RESULT:      -6.7      1.155      1.249
REMARK SMILES O=C(O)CCc1ccccc1
REMARK SMILES IDX 4 1 2 2 1 3 3 4 5 6 6 7 7 8 11 9 8 10 10 11 9 12
REMARK H PARENT 3 5
REMARK Flexibility Score: inf
ROOT
ATOM      1  C   UNL     1       8.592   0.140  -1.950  1.00  0.00     0.127 C 
ENDROOT
BRANCH   1   2
ATOM      2  C   UNL     1       9.112  -0.367  -3.246  1.00  0.00     0.303 C 
ATOM      3  O   UNL     1       9.721  -1.464  -3.274  1.00  0.00    -0.252 OA
BRANCH   2   4
ATOM      4  O   UNL     1       8.950   0.329  -4.441  1.00  0.00    -0.481 OA
ATOM      5  H   UNL     1       8.719  -0.152  -5.324  1.00  0.00     0.296 HD
ENDBRANCH   2   4
ENDBRANCH   1   2
BRANCH   1   6
ATOM      6  C   UNL     1       7.090   0.096  -2.017  1.00  0.00     0.047 C 
BRANCH   6   7
ATOM      7  C   UNL     1       6.459   0.219  -0.677  1.00  0.00    -0.047 A 
ATOM      8  C   UNL     1       5.755   1.352  -0.318  1.00  0.00     0.004 A 
ATOM      9  C   UNL     1       6.542  -0.785   0.270  1.00  0.00     0.004 A 
ATOM     10  C   UNL     1       5.172   1.455   0.930  1.00  0.00     0.000 A 
ATOM     11  C   UNL     1       5.962  -0.685   1.515  1.00  0.00     0.000 A 
ATOM     12  C   UNL     1       5.259   0.449   1.870  1.00  0.00     0.000 A 
ENDBRANCH   6   7
ENDBRANCH   1   6
TORSDOF 4
ENDMDL
MODEL 4
REMARK VINA RESULT:      -6.7      3.332      5.157
REMARK SMILES O=C(O)CCc1ccccc1
REMARK SMILES IDX 4 1 2 2 1 3 3 4 5 6 6 7 7 8 11 9 8 10 10 11 9 12
REMARK H PARENT 3 5
REMARK Flexibility Score: inf
ROOT
ATOM      1  C   UNL     1       5.542   1.425  -0.285  1.00  0.00     0.127 C 
ENDROOT
BRANCH   1   2
ATOM      2  C   UNL     1       5.327   1.770   1.145  1.00  0.00     0.303 C 
ATOM      3  O   UNL     1       5.488   2.957   1.518  1.00  0.00    -0.252 OA
BRANCH   2   4
ATOM      4  O   UNL     1       4.950   0.824   2.094  1.00  0.00    -0.481 OA
ATOM      5  H   UNL     1       4.366   1.071   2.907  1.00  0.00     0.296 HD
ENDBRANCH   2   4
ENDBRANCH   1   2
BRANCH   1   6
ATOM      6  C   UNL     1       6.366   0.168  -0.327  1.00  0.00     0.047 C 
BRANCH   6   7
ATOM      7  C   UNL     1       7.566   0.305  -1.194  1.00  0.00    -0.047 A 
ATOM      8  C   UNL     1       7.528  -0.046  -2.529  1.00  0.00     0.004 A 
ATOM      9  C   UNL     1       8.770   0.786  -0.713  1.00  0.00     0.004 A 
ATOM     10  C   UNL     1       8.649   0.086  -3.326  1.00  0.00     0.000 A 
ATOM     11  C   UNL     1       9.889   0.918  -1.505  1.00  0.00     0.000 A 
ATOM     12  C   UNL     1       9.847   0.567  -2.839  1.00  0.00     0.000 A 
ENDBRANCH   6   7
ENDBRANCH   1   6
TORSDOF 4
ENDMDL
MODEL 5
REMARK VINA RESULT:      -6.7      3.348      5.135
REMARK SMILES O=C(O)CCc1ccccc1
REMARK SMILES IDX 4 1 2 2 1 3 3 4 5 6 6 7 7 8 11 9 8 10 10 11 9 12
REMARK H PARENT 3 5
REMARK Flexibility Score: inf
ROOT
ATOM      1  C   UNL     1       6.594   0.796   0.930  1.00  0.00     0.127 C 
ENDROOT
BRANCH   1   2
ATOM      2  C   UNL     1       5.261   1.086   1.520  1.00  0.00     0.303 C 
ATOM      3  O   UNL     1       4.800   0.317   2.398  1.00  0.00    -0.252 OA
BRANCH   2   4
ATOM      4  O   UNL     1       4.496   2.185   1.136  1.00  0.00    -0.481 OA
ATOM      5  H   UNL     1       3.840   2.140   0.342  1.00  0.00     0.296 HD
ENDBRANCH   2   4
ENDBRANCH   1   2
BRANCH   1   6
ATOM      6  C   UNL     1       6.370   0.302  -0.473  1.00  0.00     0.047 C 
BRANCH   6   7
ATOM      7  C   UNL     1       7.601   0.377  -1.303  1.00  0.00    -0.047 A 
ATOM      8  C   UNL     1       8.797   0.817  -0.772  1.00  0.00     0.004 A 
ATOM      9  C   UNL     1       7.610   0.013  -2.637  1.00  0.00     0.004 A 
ATOM     10  C   UNL     1       9.935   0.882  -1.553  1.00  0.00     0.000 A 
ATOM     11  C   UNL     1       8.743   0.077  -3.418  1.00  0.00     0.000 A 
ATOM     12  C   UNL     1       9.937   0.518  -2.884  1.00  0.00     0.000 A 
ENDBRANCH   6   7
ENDBRANCH   1   6
TORSDOF 4
ENDMDL
