@<TRIPOS>MOLECULE
/home/cewinharhar/GITHUB/reincatalyze/data/processed/docking_pred/2023-Apr-25-2033_maxeplen5_maxtrainstep200_exh16_gamma099_lrac3e-4_lrcr1e-3/3b11ad51370e6150fddf32b3aa65dd5e24197163_ligand_2.pdbqt
 12 12 0 0 0
SMALL
GASTEIGER

@<TRIPOS>ATOM
      1  C          6.5940    0.7960    0.9300 C.3     1  UNL1        0.1270
      2  C          5.2610    1.0860    1.5200 C.2     1  UNL1        0.3030
      3  O          4.8000    0.3170    2.3980 O.2     1  UNL1       -0.2520
      4  O          4.4960    2.1850    1.1360 O.3     1  UNL1       -0.4810
      5  H          3.8400    2.1400    0.3420 H       1  UNL1        0.2960
      6  C          6.3700    0.3020   -0.4730 C.3     1  UNL1        0.0470
      7  C          7.6010    0.3770   -1.3030 C.2     1  UNL1       -0.0470
      8  C          8.7970    0.8170   -0.7720 C.2     1  UNL1        0.0040
      9  C          7.6100    0.0130   -2.6370 C.2     1  UNL1        0.0040
     10  C          9.9350    0.8820   -1.5530 C.2     1  UNL1        0.0000
     11  C          8.7430    0.0770   -3.4180 C.2     1  UNL1        0.0000
     12  C          9.9370    0.5180   -2.8840 C.2     1  UNL1        0.0000
@<TRIPOS>BOND
     1    11    12    2
     2    11     9    1
     3    12    10    1
     4     9     7    2
     5    10     8    2
     6     7     8    1
     7     7     6    1
     8     6     1    1
     9     5     4    1
    10     1     2    1
    11     4     2    1
    12     2     3    2
