@<TRIPOS>MOLECULE
/home/cewinharhar/GITHUB/reincatalyze/data/processed/docking_pred/2023-Apr-25-2033_maxeplen5_maxtrainstep200_exh16_gamma099_lrac3e-4_lrcr1e-3/3b11ad51370e6150fddf32b3aa65dd5e24197163_ligand_2.pdbqt
 12 12 0 0 0
SMALL
GASTEIGER

@<TRIPOS>ATOM
      1  C          8.4510   -0.6440   -2.1640 C.3     1  UNL1        0.1270
      2  C          8.4320   -1.9220   -2.9220 C.2     1  UNL1        0.3030
      3  O          9.5050   -2.5480   -3.0940 O.2     1  UNL1       -0.2520
      4  O          7.2610   -2.4570   -3.4540 O.3     1  UNL1       -0.4810
      5  H          6.6090   -1.8890   -4.0150 H       1  UNL1        0.2960
      6  C          7.0440   -0.1140   -2.1330 C.3     1  UNL1        0.0470
      7  C          6.5040   -0.0200   -0.7510 C.2     1  UNL1       -0.0470
      8  C          5.8810    1.1290   -0.3040 C.2     1  UNL1        0.0040
      9  C          6.5940   -1.0670    0.1470 C.2     1  UNL1        0.0040
     10  C          5.3820    1.2050    0.9830 C.2     1  UNL1        0.0000
     11  C          6.0970   -0.9930    1.4290 C.2     1  UNL1        0.0000
     12  C          5.4760    0.1560    1.8740 C.2     1  UNL1        0.0000
@<TRIPOS>BOND
     1     5     4    1
     2     4     2    1
     3     3     2    2
     4     2     1    1
     5     1     6    1
     6     6     7    1
     7     7     8    2
     8     7     9    1
     9     8    10    1
    10     9    11    2
    11    10    12    2
    12    11    12    1
