@<TRIPOS>MOLECULE
/home/cewinharhar/GITHUB/reincatalyze/data/processed/docking_pred/2023-Apr-25-2033_maxeplen5_maxtrainstep200_exh16_gamma099_lrac3e-4_lrcr1e-3/3b11ad51370e6150fddf32b3aa65dd5e24197163_ligand_2.pdbqt
 12 12 0 0 0
SMALL
GASTEIGER

@<TRIPOS>ATOM
      1  C          8.3910   -0.2730   -2.2420 C.3     1  UNL1        0.1270
      2  C          8.5610   -1.5620   -2.9600 C.2     1  UNL1        0.3030
      3  O          9.7180   -1.9610   -3.2370 O.2     1  UNL1       -0.2520
      4  O          7.4800   -2.3530   -3.3420 O.3     1  UNL1       -0.4810
      5  H          6.6310   -1.9480   -3.7650 H       1  UNL1        0.2960
      6  C          6.9160    0.0160   -2.1730 C.3     1  UNL1        0.0470
      7  C          6.4200    0.1010   -0.7740 C.2     1  UNL1       -0.0470
      8  C          6.5710   -0.9540    0.1050 C.2     1  UNL1        0.0040
      9  C          5.7890    1.2300   -0.2860 C.2     1  UNL1        0.0040
     10  C          6.1050   -0.8630    1.4030 C.2     1  UNL1        0.0000
     11  C          5.3250    1.3230    1.0070 C.2     1  UNL1        0.0000
     12  C          5.4760    0.2670    1.8830 C.2     1  UNL1        0.0000
@<TRIPOS>BOND
     1     5     4    1
     2     4     2    1
     3     3     2    2
     4     2     1    1
     5     1     6    1
     6     6     7    1
     7     7     9    2
     8     7     8    1
     9     9    11    1
    10     8    10    2
    11    11    12    2
    12    10    12    1
