@<TRIPOS>MOLECULE
/home/cewinharhar/GITHUB/reincatalyze/data/processed/docking_pred/2023-Apr-25-2033_maxeplen5_maxtrainstep200_exh16_gamma099_lrac3e-4_lrcr1e-3/3b11ad51370e6150fddf32b3aa65dd5e24197163_ligand_2.pdbqt
 12 12 0 0 0
SMALL
GASTEIGER

@<TRIPOS>ATOM
      1  C          8.5920    0.1400   -1.9500 C.3     1  UNL1        0.1270
      2  C          9.1120   -0.3670   -3.2460 C.2     1  UNL1        0.3030
      3  O          9.7210   -1.4640   -3.2740 O.2     1  UNL1       -0.2520
      4  O          8.9500    0.3290   -4.4410 O.3     1  UNL1       -0.4810
      5  H          8.7190   -0.1520   -5.3240 H       1  UNL1        0.2960
      6  C          7.0900    0.0960   -2.0170 C.3     1  UNL1        0.0470
      7  C          6.4590    0.2190   -0.6770 C.2     1  UNL1       -0.0470
      8  C          5.7550    1.3520   -0.3180 C.2     1  UNL1        0.0040
      9  C          6.5420   -0.7850    0.2700 C.2     1  UNL1        0.0040
     10  C          5.1720    1.4550    0.9300 C.2     1  UNL1        0.0000
     11  C          5.9620   -0.6850    1.5150 C.2     1  UNL1        0.0000
     12  C          5.2590    0.4490    1.8700 C.2     1  UNL1        0.0000
@<TRIPOS>BOND
     1     5     4    1
     2     4     2    1
     3     3     2    2
     4     2     1    1
     5     6     1    1
     6     6     7    1
     7     7     8    2
     8     7     9    1
     9     8    10    1
    10     9    11    2
    11    10    12    2
    12    11    12    1
