MODEL 1
REMARK VINA RESULT:      -7.3      0.000      0.000
REMARK SMILES O=C(O)CCc1ccccc1
REMARK SMILES IDX 4 1 2 2 1 3 3 4 5 6 6 7 7 8 11 9 8 10 10 11 9 12
REMARK H PARENT 3 5
REMARK Flexibility Score: inf
ROOT
ATOM      1  C   UNL     1       8.449  -0.663  -2.069  1.00  0.00     0.127 C 
ENDROOT
BRANCH   1   2
ATOM      2  C   UNL     1       8.422  -1.915  -2.868  1.00  0.00     0.303 C 
ATOM      3  O   UNL     1       7.316  -2.402  -3.206  1.00  0.00    -0.252 OA
BRANCH   2   4
ATOM      4  O   UNL     1       9.583  -2.577  -3.260  1.00  0.00    -0.481 OA
ATOM      5  H   UNL     1       9.660  -3.043  -4.177  1.00  0.00     0.296 HD
ENDBRANCH   2   4
ENDBRANCH   1   2
BRANCH   1   6
ATOM      6  C   UNL     1       7.068  -0.069  -2.111  1.00  0.00     0.047 C 
BRANCH   6   7
ATOM      7  C   UNL     1       6.479   0.095  -0.756  1.00  0.00    -0.047 A 
ATOM      8  C   UNL     1       6.566  -0.909   0.188  1.00  0.00     0.004 A 
ATOM      9  C   UNL     1       5.822   1.250  -0.375  1.00  0.00     0.004 A 
ATOM     10  C   UNL     1       6.015  -0.746   1.445  1.00  0.00     0.000 A 
ATOM     11  C   UNL     1       5.272   1.415   0.877  1.00  0.00     0.000 A 
ATOM     12  C   UNL     1       5.360   0.409   1.818  1.00  0.00     0.000 A 
ENDBRANCH   6   7
ENDBRANCH   1   6
TORSDOF 4
ENDMDL
MODEL 2
REMARK VINA RESULT:      -7.2      0.079      1.421
REMARK SMILES O=C(O)CCc1ccccc1
REMARK SMILES IDX 4 1 2 2 1 3 3 4 5 6 6 7 7 8 11 9 8 10 10 11 9 12
REMARK H PARENT 3 5
REMARK Flexibility Score: inf
ROOT
ATOM      1  C   UNL     1       8.427  -0.604  -2.143  1.00  0.00     0.127 C 
ENDROOT
BRANCH   1   2
ATOM      2  C   UNL     1       8.415  -1.887  -2.893  1.00  0.00     0.303 C 
ATOM      3  O   UNL     1       7.314  -2.398  -3.213  1.00  0.00    -0.252 OA
BRANCH   2   4
ATOM      4  O   UNL     1       9.583  -2.550  -3.260  1.00  0.00    -0.481 OA
ATOM      5  H   UNL     1       9.978  -2.471  -4.210  1.00  0.00     0.296 HD
ENDBRANCH   2   4
ENDBRANCH   1   2
BRANCH   1   6
ATOM      6  C   UNL     1       7.021  -0.072  -2.133  1.00  0.00     0.047 C 
BRANCH   6   7
ATOM      7  C   UNL     1       6.473   0.057  -0.757  1.00  0.00    -0.047 A 
ATOM      8  C   UNL     1       5.828   1.209  -0.349  1.00  0.00     0.004 A 
ATOM      9  C   UNL     1       6.579  -0.958   0.175  1.00  0.00     0.004 A 
ATOM     10  C   UNL     1       5.322   1.318   0.932  1.00  0.00     0.000 A 
ATOM     11  C   UNL     1       6.076  -0.851   1.453  1.00  0.00     0.000 A 
ATOM     12  C   UNL     1       5.432   0.301   1.858  1.00  0.00     0.000 A 
ENDBRANCH   6   7
ENDBRANCH   1   6
TORSDOF 4
ENDMDL
MODEL 3
REMARK VINA RESULT:      -6.8      3.307      5.163
REMARK SMILES O=C(O)CCc1ccccc1
REMARK SMILES IDX 4 1 2 2 1 3 3 4 5 6 6 7 7 8 11 9 8 10 10 11 9 12
REMARK H PARENT 3 5
REMARK Flexibility Score: inf
ROOT
ATOM      1  C   UNL     1       5.035   1.825   0.753  1.00  0.00     0.127 C 
ENDROOT
BRANCH   1   2
ATOM      2  C   UNL     1       4.466   1.131   1.938  1.00  0.00     0.303 C 
ATOM      3  O   UNL     1       5.124   0.211   2.482  1.00  0.00    -0.252 OA
BRANCH   2   4
ATOM      4  O   UNL     1       3.224   1.462   2.473  1.00  0.00    -0.481 OA
ATOM      5  H   UNL     1       3.010   2.416   2.800  1.00  0.00     0.296 HD
ENDBRANCH   2   4
ENDBRANCH   1   2
BRANCH   1   6
ATOM      6  C   UNL     1       6.533   1.744   0.856  1.00  0.00     0.047 C 
BRANCH   6   7
ATOM      7  C   UNL     1       7.142   1.009  -0.283  1.00  0.00    -0.047 A 
ATOM      8  C   UNL     1       6.414   0.087  -1.010  1.00  0.00     0.004 A 
ATOM      9  C   UNL     1       8.453   1.210  -0.671  1.00  0.00     0.004 A 
ATOM     10  C   UNL     1       6.991  -0.591  -2.068  1.00  0.00     0.000 A 
ATOM     11  C   UNL     1       9.030   0.536  -1.724  1.00  0.00     0.000 A 
ATOM     12  C   UNL     1       8.301  -0.386  -2.449  1.00  0.00     0.000 A 
ENDBRANCH   6   7
ENDBRANCH   1   6
TORSDOF 4
ENDMDL
MODEL 4
REMARK VINA RESULT:      -6.7      3.269      5.151
REMARK SMILES O=C(O)CCc1ccccc1
REMARK SMILES IDX 4 1 2 2 1 3 3 4 5 6 6 7 7 8 11 9 8 10 10 11 9 12
REMARK H PARENT 3 5
REMARK Flexibility Score: inf
ROOT
ATOM      1  C   UNL     1       5.024   1.678   0.711  1.00  0.00     0.127 C 
ENDROOT
BRANCH   1   2
ATOM      2  C   UNL     1       4.555   1.001   1.948  1.00  0.00     0.303 C 
ATOM      3  O   UNL     1       5.285   0.135   2.487  1.00  0.00    -0.252 OA
BRANCH   2   4
ATOM      4  O   UNL     1       3.328   1.291   2.539  1.00  0.00    -0.481 OA
ATOM      5  H   UNL     1       2.640   1.914   2.089  1.00  0.00     0.296 HD
ENDBRANCH   2   4
ENDBRANCH   1   2
BRANCH   1   6
ATOM      6  C   UNL     1       6.525   1.738   0.770  1.00  0.00     0.047 C 
BRANCH   6   7
ATOM      7  C   UNL     1       7.168   0.977  -0.333  1.00  0.00    -0.047 A 
ATOM      8  C   UNL     1       8.494   1.179  -0.664  1.00  0.00     0.004 A 
ATOM      9  C   UNL     1       6.479   0.037  -1.076  1.00  0.00     0.004 A 
ATOM     10  C   UNL     1       9.081   0.466  -1.692  1.00  0.00     0.000 A 
ATOM     11  C   UNL     1       7.062  -0.675  -2.101  1.00  0.00     0.000 A 
ATOM     12  C   UNL     1       8.387  -0.470  -2.430  1.00  0.00     0.000 A 
ENDBRANCH   6   7
ENDBRANCH   1   6
TORSDOF 4
ENDMDL
MODEL 5
REMARK VINA RESULT:      -6.5      3.682      5.151
REMARK SMILES O=C(O)CCc1ccccc1
REMARK SMILES IDX 4 1 2 2 1 3 3 4 5 6 6 7 7 8 11 9 8 10 10 11 9 12
REMARK H PARENT 3 5
REMARK Flexibility Score: inf
ROOT
ATOM      1  C   UNL     1       5.341   2.940   0.132  1.00  0.00     0.127 C 
ENDROOT
BRANCH   1   2
ATOM      2  C   UNL     1       6.219   3.868   0.890  1.00  0.00     0.303 C 
ATOM      3  O   UNL     1       6.847   4.760   0.271  1.00  0.00    -0.252 OA
BRANCH   2   4
ATOM      4  O   UNL     1       6.373   3.789   2.272  1.00  0.00    -0.481 OA
ATOM      5  H   UNL     1       6.064   2.963   2.808  1.00  0.00     0.296 HD
ENDBRANCH   2   4
ENDBRANCH   1   2
BRANCH   1   6
ATOM      6  C   UNL     1       5.291   1.643   0.890  1.00  0.00     0.047 C 
BRANCH   6   7
ATOM      7  C   UNL     1       6.055   0.561   0.215  1.00  0.00    -0.047 A 
ATOM      8  C   UNL     1       6.319   0.609  -1.140  1.00  0.00     0.004 A 
ATOM      9  C   UNL     1       6.538  -0.537   0.903  1.00  0.00     0.004 A 
ATOM     10  C   UNL     1       7.031  -0.402  -1.757  1.00  0.00     0.000 A 
ATOM     11  C   UNL     1       7.247  -1.546   0.290  1.00  0.00     0.000 A 
ATOM     12  C   UNL     1       7.509  -1.495  -1.064  1.00  0.00     0.000 A 
ENDBRANCH   6   7
ENDBRANCH   1   6
TORSDOF 4
ENDMDL
