@<TRIPOS>MOLECULE
/home/cewinharhar/GITHUB/reincatalyze/data/processed/docking_pred/2023-Apr-25-2033_maxeplen5_maxtrainstep200_exh16_gamma099_lrac3e-4_lrcr1e-3/3b29dc4ebb7ee5049f43ecb42d98a580ffb6b5da_ligand_2.pdbqt
 12 12 0 0 0
SMALL
GASTEIGER

@<TRIPOS>ATOM
      1  C          5.0350    1.8250    0.7530 C.3     1  UNL1        0.1270
      2  C          4.4660    1.1310    1.9380 C.2     1  UNL1        0.3030
      3  O          5.1240    0.2110    2.4820 O.2     1  UNL1       -0.2520
      4  O          3.2240    1.4620    2.4730 O.3     1  UNL1       -0.4810
      5  H          3.0100    2.4160    2.8000 H       1  UNL1        0.2960
      6  C          6.5330    1.7440    0.8560 C.3     1  UNL1        0.0470
      7  C          7.1420    1.0090   -0.2830 C.2     1  UNL1       -0.0470
      8  C          6.4140    0.0870   -1.0100 C.2     1  UNL1        0.0040
      9  C          8.4530    1.2100   -0.6710 C.2     1  UNL1        0.0040
     10  C          6.9910   -0.5910   -2.0680 C.2     1  UNL1        0.0000
     11  C          9.0300    0.5360   -1.7240 C.2     1  UNL1        0.0000
     12  C          8.3010   -0.3860   -2.4490 C.2     1  UNL1        0.0000
@<TRIPOS>BOND
     1    12    10    2
     2    12    11    1
     3    10     8    1
     4    11     9    2
     5     8     7    2
     6     9     7    1
     7     7     6    1
     8     1     6    1
     9     1     2    1
    10     2     4    1
    11     2     3    2
    12     4     5    1
