@<TRIPOS>MOLECULE
/home/cewinharhar/GITHUB/reincatalyze/data/processed/docking_pred/2023-Apr-25-2033_maxeplen5_maxtrainstep200_exh16_gamma099_lrac3e-4_lrcr1e-3/3b29dc4ebb7ee5049f43ecb42d98a580ffb6b5da_ligand_2.pdbqt
 12 12 0 0 0
SMALL
GASTEIGER

@<TRIPOS>ATOM
      1  C          8.4490   -0.6630   -2.0690 C.3     1  UNL1        0.1270
      2  C          8.4220   -1.9150   -2.8680 C.2     1  UNL1        0.3030
      3  O          7.3160   -2.4020   -3.2060 O.2     1  UNL1       -0.2520
      4  O          9.5830   -2.5770   -3.2600 O.3     1  UNL1       -0.4810
      5  H          9.6600   -3.0430   -4.1770 H       1  UNL1        0.2960
      6  C          7.0680   -0.0690   -2.1110 C.3     1  UNL1        0.0470
      7  C          6.4790    0.0950   -0.7560 C.2     1  UNL1       -0.0470
      8  C          6.5660   -0.9090    0.1880 C.2     1  UNL1        0.0040
      9  C          5.8220    1.2500   -0.3750 C.2     1  UNL1        0.0040
     10  C          6.0150   -0.7460    1.4450 C.2     1  UNL1        0.0000
     11  C          5.2720    1.4150    0.8770 C.2     1  UNL1        0.0000
     12  C          5.3600    0.4090    1.8180 C.2     1  UNL1        0.0000
@<TRIPOS>BOND
     1     5     4    1
     2     4     2    1
     3     3     2    2
     4     2     1    1
     5     6     1    1
     6     6     7    1
     7     7     9    2
     8     7     8    1
     9     9    11    1
    10     8    10    2
    11    11    12    2
    12    10    12    1
