@<TRIPOS>MOLECULE
/home/cewinharhar/GITHUB/reincatalyze/data/processed/docking_pred/2023-Apr-25-2033_maxeplen5_maxtrainstep200_exh16_gamma099_lrac3e-4_lrcr1e-3/3b29dc4ebb7ee5049f43ecb42d98a580ffb6b5da_ligand_2.pdbqt
 12 12 0 0 0
SMALL
GASTEIGER

@<TRIPOS>ATOM
      1  C          5.3410    2.9400    0.1320 C.3     1  UNL1        0.1270
      2  C          6.2190    3.8680    0.8900 C.2     1  UNL1        0.3030
      3  O          6.8470    4.7600    0.2710 O.2     1  UNL1       -0.2520
      4  O          6.3730    3.7890    2.2720 O.3     1  UNL1       -0.4810
      5  H          6.0640    2.9630    2.8080 H       1  UNL1        0.2960
      6  C          5.2910    1.6430    0.8900 C.3     1  UNL1        0.0470
      7  C          6.0550    0.5610    0.2150 C.2     1  UNL1       -0.0470
      8  C          6.3190    0.6090   -1.1400 C.2     1  UNL1        0.0040
      9  C          6.5380   -0.5370    0.9030 C.2     1  UNL1        0.0040
     10  C          7.0310   -0.4020   -1.7570 C.2     1  UNL1        0.0000
     11  C          7.2470   -1.5460    0.2900 C.2     1  UNL1        0.0000
     12  C          7.5090   -1.4950   -1.0640 C.2     1  UNL1        0.0000
@<TRIPOS>BOND
     1    10     8    1
     2    10    12    2
     3     8     7    2
     4    12    11    1
     5     1     2    1
     6     1     6    1
     7     7     6    1
     8     7     9    1
     9     3     2    2
    10    11     9    2
    11     2     4    1
    12     4     5    1
