@<TRIPOS>MOLECULE
/home/cewinharhar/GITHUB/reincatalyze/data/processed/docking_pred/2023-Apr-25-2033_maxeplen5_maxtrainstep200_exh16_gamma099_lrac3e-4_lrcr1e-3/3b29dc4ebb7ee5049f43ecb42d98a580ffb6b5da_ligand_2.pdbqt
 12 12 0 0 0
SMALL
GASTEIGER

@<TRIPOS>ATOM
      1  C          8.4270   -0.6040   -2.1430 C.3     1  UNL1        0.1270
      2  C          8.4150   -1.8870   -2.8930 C.2     1  UNL1        0.3030
      3  O          7.3140   -2.3980   -3.2130 O.2     1  UNL1       -0.2520
      4  O          9.5830   -2.5500   -3.2600 O.3     1  UNL1       -0.4810
      5  H          9.9780   -2.4710   -4.2100 H       1  UNL1        0.2960
      6  C          7.0210   -0.0720   -2.1330 C.3     1  UNL1        0.0470
      7  C          6.4730    0.0570   -0.7570 C.2     1  UNL1       -0.0470
      8  C          5.8280    1.2090   -0.3490 C.2     1  UNL1        0.0040
      9  C          6.5790   -0.9580    0.1750 C.2     1  UNL1        0.0040
     10  C          5.3220    1.3180    0.9320 C.2     1  UNL1        0.0000
     11  C          6.0760   -0.8510    1.4530 C.2     1  UNL1        0.0000
     12  C          5.4320    0.3010    1.8580 C.2     1  UNL1        0.0000
@<TRIPOS>BOND
     1     5     4    1
     2     4     2    1
     3     3     2    2
     4     2     1    1
     5     1     6    1
     6     6     7    1
     7     7     8    2
     8     7     9    1
     9     8    10    1
    10     9    11    2
    11    10    12    2
    12    11    12    1
