@<TRIPOS>MOLECULE
/home/cewinharhar/GITHUB/reincatalyze/data/processed/docking_pred/2023-Apr-25-2033_maxeplen5_maxtrainstep200_exh16_gamma099_lrac3e-4_lrcr1e-3/3b29dc4ebb7ee5049f43ecb42d98a580ffb6b5da_ligand_2.pdbqt
 12 12 0 0 0
SMALL
GASTEIGER

@<TRIPOS>ATOM
      1  C          5.0240    1.6780    0.7110 C.3     1  UNL1        0.1270
      2  C          4.5550    1.0010    1.9480 C.2     1  UNL1        0.3030
      3  O          5.2850    0.1350    2.4870 O.2     1  UNL1       -0.2520
      4  O          3.3280    1.2910    2.5390 O.3     1  UNL1       -0.4810
      5  H          2.6400    1.9140    2.0890 H       1  UNL1        0.2960
      6  C          6.5250    1.7380    0.7700 C.3     1  UNL1        0.0470
      7  C          7.1680    0.9770   -0.3330 C.2     1  UNL1       -0.0470
      8  C          8.4940    1.1790   -0.6640 C.2     1  UNL1        0.0040
      9  C          6.4790    0.0370   -1.0760 C.2     1  UNL1        0.0040
     10  C          9.0810    0.4660   -1.6920 C.2     1  UNL1        0.0000
     11  C          7.0620   -0.6750   -2.1010 C.2     1  UNL1        0.0000
     12  C          8.3870   -0.4700   -2.4300 C.2     1  UNL1        0.0000
@<TRIPOS>BOND
     1    12    11    2
     2    12    10    1
     3    11     9    1
     4    10     8    2
     5     9     7    2
     6     8     7    1
     7     7     6    1
     8     1     6    1
     9     1     2    1
    10     2     3    2
    11     2     4    1
    12     5     4    1
