@<TRIPOS>MOLECULE
/home/cewinharhar/GITHUB/reincatalyze/data/processed/docking_pred/2023-Apr-25-2033_maxeplen5_maxtrainstep200_exh16_gamma099_lrac3e-4_lrcr1e-3/3bf4b9a3f06cfa5433c2fd34b58c3faf64c233d9_ligand_2.pdbqt
 12 12 0 0 0
SMALL
GASTEIGER

@<TRIPOS>ATOM
      1  C          4.9800    1.7710    0.6820 C.3     1  UNL1        0.1270
      2  C          4.4710    1.1120    1.9130 C.2     1  UNL1        0.3030
      3  O          5.1670    0.2280    2.4680 O.2     1  UNL1       -0.2520
      4  O          3.2430    1.4400    2.4820 O.3     1  UNL1       -0.4810
      5  H          2.5000    1.9080    1.9420 H       1  UNL1        0.2960
      6  C          6.4810    1.7990    0.7730 C.3     1  UNL1        0.0470
      7  C          7.1300    1.0340   -0.3250 C.2     1  UNL1       -0.0470
      8  C          8.4650    1.2160   -0.6310 C.2     1  UNL1        0.0040
      9  C          6.4390    0.1100   -1.0860 C.2     1  UNL1        0.0040
     10  C          9.0580    0.5000   -1.6530 C.2     1  UNL1        0.0000
     11  C          7.0280   -0.6050   -2.1040 C.2     1  UNL1        0.0000
     12  C          8.3620   -0.4210   -2.4090 C.2     1  UNL1        0.0000
@<TRIPOS>BOND
     1    12    11    2
     2    12    10    1
     3    11     9    1
     4    10     8    2
     5     9     7    2
     6     8     7    1
     7     7     6    1
     8     1     6    1
     9     1     2    1
    10     2     3    2
    11     2     4    1
    12     5     4    1
