MODEL 1
REMARK VINA RESULT:      -7.3      0.000      0.000
REMARK SMILES O=C(O)CCc1ccccc1
REMARK SMILES IDX 4 1 2 2 1 3 3 4 5 6 6 7 7 8 11 9 8 10 10 11 9 12
REMARK H PARENT 3 5
REMARK Flexibility Score: inf
ROOT
ATOM      1  C   UNL     1       8.433  -0.580  -2.195  1.00  0.00     0.127 C 
ENDROOT
BRANCH   1   2
ATOM      2  C   UNL     1       8.447  -1.874  -2.925  1.00  0.00     0.303 C 
ATOM      3  O   UNL     1       9.537  -2.474  -3.086  1.00  0.00    -0.252 OA
BRANCH   2   4
ATOM      4  O   UNL     1       7.291  -2.453  -3.442  1.00  0.00    -0.481 OA
ATOM      5  H   UNL     1       7.000  -3.408  -3.186  1.00  0.00     0.296 HD
ENDBRANCH   2   4
ENDBRANCH   1   2
BRANCH   1   6
ATOM      6  C   UNL     1       7.012  -0.088  -2.173  1.00  0.00     0.047 C 
BRANCH   6   7
ATOM      7  C   UNL     1       6.481   0.050  -0.792  1.00  0.00    -0.047 A 
ATOM      8  C   UNL     1       5.846   1.206  -0.382  1.00  0.00     0.004 A 
ATOM      9  C   UNL     1       6.592  -0.962   0.144  1.00  0.00     0.004 A 
ATOM     10  C   UNL     1       5.355   1.324   0.905  1.00  0.00     0.000 A 
ATOM     11  C   UNL     1       6.104  -0.847   1.426  1.00  0.00     0.000 A 
ATOM     12  C   UNL     1       5.470   0.310   1.833  1.00  0.00     0.000 A 
ENDBRANCH   6   7
ENDBRANCH   1   6
TORSDOF 4
ENDMDL
MODEL 2
REMARK VINA RESULT:      -7.3      0.038      1.420
REMARK SMILES O=C(O)CCc1ccccc1
REMARK SMILES IDX 4 1 2 2 1 3 3 4 5 6 6 7 7 8 11 9 8 10 10 11 9 12
REMARK H PARENT 3 5
REMARK Flexibility Score: inf
ROOT
ATOM      1  C   UNL     1       8.446  -0.571  -2.213  1.00  0.00     0.127 C 
ENDROOT
BRANCH   1   2
ATOM      2  C   UNL     1       8.471  -1.874  -2.927  1.00  0.00     0.303 C 
ATOM      3  O   UNL     1       9.568  -2.459  -3.096  1.00  0.00    -0.252 OA
BRANCH   2   4
ATOM      4  O   UNL     1       7.317  -2.478  -3.419  1.00  0.00    -0.481 OA
ATOM      5  H   UNL     1       7.070  -2.444  -4.420  1.00  0.00     0.296 HD
ENDBRANCH   2   4
ENDBRANCH   1   2
BRANCH   1   6
ATOM      6  C   UNL     1       7.019  -0.098  -2.182  1.00  0.00     0.047 C 
BRANCH   6   7
ATOM      7  C   UNL     1       6.493   0.029  -0.797  1.00  0.00    -0.047 A 
ATOM      8  C   UNL     1       6.627  -1.000   0.116  1.00  0.00     0.004 A 
ATOM      9  C   UNL     1       5.852   1.171  -0.356  1.00  0.00     0.004 A 
ATOM     10  C   UNL     1       6.134  -0.871   1.400  1.00  0.00     0.000 A 
ATOM     11  C   UNL     1       5.360   1.301   0.924  1.00  0.00     0.000 A 
ATOM     12  C   UNL     1       5.494   0.272   1.834  1.00  0.00     0.000 A 
ENDBRANCH   6   7
ENDBRANCH   1   6
TORSDOF 4
ENDMDL
MODEL 3
REMARK VINA RESULT:      -7.0      0.661      1.884
REMARK SMILES O=C(O)CCc1ccccc1
REMARK SMILES IDX 4 1 2 2 1 3 3 4 5 6 6 7 7 8 11 9 8 10 10 11 9 12
REMARK H PARENT 3 5
REMARK Flexibility Score: inf
ROOT
ATOM      1  C   UNL     1       8.334  -0.800  -1.963  1.00  0.00     0.127 C 
ENDROOT
BRANCH   1   2
ATOM      2  C   UNL     1       8.382  -1.998  -2.841  1.00  0.00     0.303 C 
ATOM      3  O   UNL     1       7.313  -2.456  -3.311  1.00  0.00    -0.252 OA
BRANCH   2   4
ATOM      4  O   UNL     1       9.575  -2.638  -3.167  1.00  0.00    -0.481 OA
ATOM      5  H   UNL     1       9.734  -3.634  -2.951  1.00  0.00     0.296 HD
ENDBRANCH   2   4
ENDBRANCH   1   2
BRANCH   1   6
ATOM      6  C   UNL     1       7.772  -1.233  -0.638  1.00  0.00     0.047 C 
BRANCH   6   7
ATOM      7  C   UNL     1       6.805  -0.249  -0.083  1.00  0.00    -0.047 A 
ATOM      8  C   UNL     1       6.287  -0.394   1.190  1.00  0.00     0.004 A 
ATOM      9  C   UNL     1       6.380   0.851  -0.804  1.00  0.00     0.004 A 
ATOM     10  C   UNL     1       5.389   0.526   1.695  1.00  0.00     0.000 A 
ATOM     11  C   UNL     1       5.485   1.770  -0.302  1.00  0.00     0.000 A 
ATOM     12  C   UNL     1       4.969   1.622   0.970  1.00  0.00     0.000 A 
ENDBRANCH   6   7
ENDBRANCH   1   6
TORSDOF 4
ENDMDL
MODEL 4
REMARK VINA RESULT:      -6.8      3.385      5.069
REMARK SMILES O=C(O)CCc1ccccc1
REMARK SMILES IDX 4 1 2 2 1 3 3 4 5 6 6 7 7 8 11 9 8 10 10 11 9 12
REMARK H PARENT 3 5
REMARK Flexibility Score: inf
ROOT
ATOM      1  C   UNL     1       4.980   1.771   0.682  1.00  0.00     0.127 C 
ENDROOT
BRANCH   1   2
ATOM      2  C   UNL     1       4.471   1.112   1.913  1.00  0.00     0.303 C 
ATOM      3  O   UNL     1       5.167   0.228   2.468  1.00  0.00    -0.252 OA
BRANCH   2   4
ATOM      4  O   UNL     1       3.243   1.440   2.482  1.00  0.00    -0.481 OA
ATOM      5  H   UNL     1       2.500   1.908   1.942  1.00  0.00     0.296 HD
ENDBRANCH   2   4
ENDBRANCH   1   2
BRANCH   1   6
ATOM      6  C   UNL     1       6.481   1.799   0.773  1.00  0.00     0.047 C 
BRANCH   6   7
ATOM      7  C   UNL     1       7.130   1.034  -0.325  1.00  0.00    -0.047 A 
ATOM      8  C   UNL     1       8.465   1.216  -0.631  1.00  0.00     0.004 A 
ATOM      9  C   UNL     1       6.439   0.110  -1.086  1.00  0.00     0.004 A 
ATOM     10  C   UNL     1       9.058   0.500  -1.653  1.00  0.00     0.000 A 
ATOM     11  C   UNL     1       7.028  -0.605  -2.104  1.00  0.00     0.000 A 
ATOM     12  C   UNL     1       8.362  -0.421  -2.409  1.00  0.00     0.000 A 
ENDBRANCH   6   7
ENDBRANCH   1   6
TORSDOF 4
ENDMDL
MODEL 5
REMARK VINA RESULT:      -6.6      1.934      2.325
REMARK SMILES O=C(O)CCc1ccccc1
REMARK SMILES IDX 4 1 2 2 1 3 3 4 5 6 6 7 7 8 11 9 8 10 10 11 9 12
REMARK H PARENT 3 5
REMARK Flexibility Score: inf
ROOT
ATOM      1  C   UNL     1       8.251   0.210  -2.182  1.00  0.00     0.127 C 
ENDROOT
BRANCH   1   2
ATOM      2  C   UNL     1       9.385   0.365  -1.234  1.00  0.00     0.303 C 
ATOM      3  O   UNL     1       9.463  -0.401  -0.243  1.00  0.00    -0.252 OA
BRANCH   2   4
ATOM      4  O   UNL     1      10.373   1.331  -1.402  1.00  0.00    -0.481 OA
ATOM      5  H   UNL     1      11.230   1.339  -0.827  1.00  0.00     0.296 HD
ENDBRANCH   2   4
ENDBRANCH   1   2
BRANCH   1   6
ATOM      6  C   UNL     1       7.189  -0.598  -1.490  1.00  0.00     0.047 C 
BRANCH   6   7
ATOM      7  C   UNL     1       6.373   0.220  -0.554  1.00  0.00    -0.047 A 
ATOM      8  C   UNL     1       5.840   1.434  -0.944  1.00  0.00     0.004 A 
ATOM      9  C   UNL     1       6.108  -0.188   0.739  1.00  0.00     0.004 A 
ATOM     10  C   UNL     1       5.084   2.186  -0.066  1.00  0.00     0.000 A 
ATOM     11  C   UNL     1       5.354   0.560   1.616  1.00  0.00     0.000 A 
ATOM     12  C   UNL     1       4.823   1.773   1.225  1.00  0.00     0.000 A 
ENDBRANCH   6   7
ENDBRANCH   1   6
TORSDOF 4
ENDMDL
