@<TRIPOS>MOLECULE
/home/cewinharhar/GITHUB/reincatalyze/data/processed/docking_pred/2023-Apr-25-2033_maxeplen5_maxtrainstep200_exh16_gamma099_lrac3e-4_lrcr1e-3/3bf4b9a3f06cfa5433c2fd34b58c3faf64c233d9_ligand_2.pdbqt
 12 12 0 0 0
SMALL
GASTEIGER

@<TRIPOS>ATOM
      1  C          8.4460   -0.5710   -2.2130 C.3     1  UNL1        0.1270
      2  C          8.4710   -1.8740   -2.9270 C.2     1  UNL1        0.3030
      3  O          9.5680   -2.4590   -3.0960 O.2     1  UNL1       -0.2520
      4  O          7.3170   -2.4780   -3.4190 O.3     1  UNL1       -0.4810
      5  H          7.0700   -2.4440   -4.4200 H       1  UNL1        0.2960
      6  C          7.0190   -0.0980   -2.1820 C.3     1  UNL1        0.0470
      7  C          6.4930    0.0290   -0.7970 C.2     1  UNL1       -0.0470
      8  C          6.6270   -1.0000    0.1160 C.2     1  UNL1        0.0040
      9  C          5.8520    1.1710   -0.3560 C.2     1  UNL1        0.0040
     10  C          6.1340   -0.8710    1.4000 C.2     1  UNL1        0.0000
     11  C          5.3600    1.3010    0.9240 C.2     1  UNL1        0.0000
     12  C          5.4940    0.2720    1.8340 C.2     1  UNL1        0.0000
@<TRIPOS>BOND
     1     5     4    1
     2     4     2    1
     3     3     2    2
     4     2     1    1
     5     1     6    1
     6     6     7    1
     7     7     9    2
     8     7     8    1
     9     9    11    1
    10     8    10    2
    11    11    12    2
    12    10    12    1
