@<TRIPOS>MOLECULE
/home/cewinharhar/GITHUB/reincatalyze/data/processed/docking_pred/2023-Apr-25-2033_maxeplen5_maxtrainstep200_exh16_gamma099_lrac3e-4_lrcr1e-3/3bf4b9a3f06cfa5433c2fd34b58c3faf64c233d9_ligand_2.pdbqt
 12 12 0 0 0
SMALL
GASTEIGER

@<TRIPOS>ATOM
      1  C          8.3340   -0.8000   -1.9630 C.3     1  UNL1        0.1270
      2  C          8.3820   -1.9980   -2.8410 C.2     1  UNL1        0.3030
      3  O          7.3130   -2.4560   -3.3110 O.2     1  UNL1       -0.2520
      4  O          9.5750   -2.6380   -3.1670 O.3     1  UNL1       -0.4810
      5  H          9.7340   -3.6340   -2.9510 H       1  UNL1        0.2960
      6  C          7.7720   -1.2330   -0.6380 C.3     1  UNL1        0.0470
      7  C          6.8050   -0.2490   -0.0830 C.2     1  UNL1       -0.0470
      8  C          6.2870   -0.3940    1.1900 C.2     1  UNL1        0.0040
      9  C          6.3800    0.8510   -0.8040 C.2     1  UNL1        0.0040
     10  C          5.3890    0.5260    1.6950 C.2     1  UNL1        0.0000
     11  C          5.4850    1.7700   -0.3020 C.2     1  UNL1        0.0000
     12  C          4.9690    1.6220    0.9700 C.2     1  UNL1        0.0000
@<TRIPOS>BOND
     1     3     2    2
     2     4     5    1
     3     4     2    1
     4     2     1    1
     5     1     6    1
     6     9    11    1
     7     9     7    2
     8     6     7    1
     9    11    12    2
    10     7     8    1
    11    12    10    1
    12     8    10    2
