@<TRIPOS>MOLECULE
/home/cewinharhar/GITHUB/reincatalyze/data/processed/docking_pred/2023-Apr-25-2033_maxeplen5_maxtrainstep200_exh16_gamma099_lrac3e-4_lrcr1e-3/3bf4b9a3f06cfa5433c2fd34b58c3faf64c233d9_ligand_2.pdbqt
 12 12 0 0 0
SMALL
GASTEIGER

@<TRIPOS>ATOM
      1  C          8.2510    0.2100   -2.1820 C.3     1  UNL1        0.1270
      2  C          9.3850    0.3650   -1.2340 C.2     1  UNL1        0.3030
      3  O          9.4630   -0.4010   -0.2430 O.2     1  UNL1       -0.2520
      4  O         10.3730    1.3310   -1.4020 O.3     1  UNL1       -0.4810
      5  H         11.2300    1.3390   -0.8270 H       1  UNL1        0.2960
      6  C          7.1890   -0.5980   -1.4900 C.3     1  UNL1        0.0470
      7  C          6.3730    0.2200   -0.5540 C.2     1  UNL1       -0.0470
      8  C          5.8400    1.4340   -0.9440 C.2     1  UNL1        0.0040
      9  C          6.1080   -0.1880    0.7390 C.2     1  UNL1        0.0040
     10  C          5.0840    2.1860   -0.0660 C.2     1  UNL1        0.0000
     11  C          5.3540    0.5600    1.6160 C.2     1  UNL1        0.0000
     12  C          4.8230    1.7730    1.2250 C.2     1  UNL1        0.0000
@<TRIPOS>BOND
     1     1     6    1
     2     1     2    1
     3     6     7    1
     4     4     2    1
     5     4     5    1
     6     2     3    2
     7     8     7    2
     8     8    10    1
     9     7     9    1
    10    10    12    2
    11     9    11    2
    12    12    11    1
