@<TRIPOS>MOLECULE
/home/cewinharhar/GITHUB/reincatalyze/data/processed/docking_pred/2023-Apr-25-2033_maxeplen5_maxtrainstep200_exh16_gamma099_lrac3e-4_lrcr1e-3/3dd20a82ca316ee4e9168eadca9f8684e5881f32_ligand_2.pdbqt
 12 12 0 0 0
SMALL
GASTEIGER

@<TRIPOS>ATOM
      1  C          5.5280    2.8710   -0.0280 C.3     1  UNL1        0.1270
      2  C          6.2630    3.8600    0.8020 C.2     1  UNL1        0.3030
      3  O          6.9090    4.7750    0.2360 O.2     1  UNL1       -0.2520
      4  O          6.2650    3.8140    2.1940 O.3     1  UNL1       -0.4810
      5  H          5.4500    4.1170    2.7500 H       1  UNL1        0.2960
      6  C          4.9310    1.8530    0.9040 C.3     1  UNL1        0.0470
      7  C          5.7180    0.5920    0.9470 C.2     1  UNL1       -0.0470
      8  C          5.7730   -0.1780    2.0920 C.2     1  UNL1        0.0040
      9  C          6.4260    0.1300   -0.1460 C.2     1  UNL1        0.0040
     10  C          6.5080   -1.3480    2.1210 C.2     1  UNL1        0.0000
     11  C          7.1590   -1.0350   -0.1200 C.2     1  UNL1        0.0000
     12  C          7.2130   -1.8030    1.0260 C.2     1  UNL1        0.0000
@<TRIPOS>BOND
     1     9    11    1
     2     9     7    2
     3    11    12    2
     4     1     2    1
     5     1     6    1
     6     3     2    2
     7     2     4    1
     8     6     7    1
     9     7     8    1
    10    12    10    1
    11     8    10    2
    12     4     5    1
