MODEL 1
REMARK VINA RESULT:      -7.3      0.000      0.000
REMARK SMILES O=C(O)CCc1ccccc1
REMARK SMILES IDX 4 1 2 2 1 3 3 4 5 6 6 7 7 8 11 9 8 10 10 11 9 12
REMARK H PARENT 3 5
REMARK Flexibility Score: inf
ROOT
ATOM      1  C   UNL     1       8.469  -0.570  -2.242  1.00  0.00     0.127 C 
ENDROOT
BRANCH   1   2
ATOM      2  C   UNL     1       8.496  -1.882  -2.939  1.00  0.00     0.303 C 
ATOM      3  O   UNL     1       9.596  -2.460  -3.115  1.00  0.00    -0.252 OA
BRANCH   2   4
ATOM      4  O   UNL     1       7.341  -2.501  -3.410  1.00  0.00    -0.481 OA
ATOM      5  H   UNL     1       6.679  -2.016  -4.034  1.00  0.00     0.296 HD
ENDBRANCH   2   4
ENDBRANCH   1   2
BRANCH   1   6
ATOM      6  C   UNL     1       7.042  -0.097  -2.221  1.00  0.00     0.047 C 
BRANCH   6   7
ATOM      7  C   UNL     1       6.517   0.062  -0.840  1.00  0.00    -0.047 A 
ATOM      8  C   UNL     1       5.903   1.233  -0.438  1.00  0.00     0.004 A 
ATOM      9  C   UNL     1       6.614  -0.943   0.104  1.00  0.00     0.004 A 
ATOM     10  C   UNL     1       5.418   1.370   0.849  1.00  0.00     0.000 A 
ATOM     11  C   UNL     1       6.132  -0.808   1.387  1.00  0.00     0.000 A 
ATOM     12  C   UNL     1       5.519   0.363   1.786  1.00  0.00     0.000 A 
ENDBRANCH   6   7
ENDBRANCH   1   6
TORSDOF 4
ENDMDL
MODEL 2
REMARK VINA RESULT:      -7.3      0.142      1.720
REMARK SMILES O=C(O)CCc1ccccc1
REMARK SMILES IDX 4 1 2 2 1 3 3 4 5 6 6 7 7 8 11 9 8 10 10 11 9 12
REMARK H PARENT 3 5
REMARK Flexibility Score: inf
ROOT
ATOM      1  C   UNL     1       8.454  -0.648  -2.094  1.00  0.00     0.127 C 
ENDROOT
BRANCH   1   2
ATOM      2  C   UNL     1       8.426  -1.910  -2.878  1.00  0.00     0.303 C 
ATOM      3  O   UNL     1       7.320  -2.402  -3.208  1.00  0.00    -0.252 OA
BRANCH   2   4
ATOM      4  O   UNL     1       9.587  -2.575  -3.265  1.00  0.00    -0.481 OA
ATOM      5  H   UNL     1       9.756  -3.562  -3.019  1.00  0.00     0.296 HD
ENDBRANCH   2   4
ENDBRANCH   1   2
BRANCH   1   6
ATOM      6  C   UNL     1       7.069  -0.062  -2.131  1.00  0.00     0.047 C 
BRANCH   6   7
ATOM      7  C   UNL     1       6.484   0.098  -0.774  1.00  0.00    -0.047 A 
ATOM      8  C   UNL     1       6.590  -0.902   0.173  1.00  0.00     0.004 A 
ATOM      9  C   UNL     1       5.813   1.245  -0.393  1.00  0.00     0.004 A 
ATOM     10  C   UNL     1       6.043  -0.743   1.432  1.00  0.00     0.000 A 
ATOM     11  C   UNL     1       5.267   1.406   0.861  1.00  0.00     0.000 A 
ATOM     12  C   UNL     1       5.374   0.405   1.805  1.00  0.00     0.000 A 
ENDBRANCH   6   7
ENDBRANCH   1   6
TORSDOF 4
ENDMDL
MODEL 3
REMARK VINA RESULT:      -6.8      3.388      5.103
REMARK SMILES O=C(O)CCc1ccccc1
REMARK SMILES IDX 4 1 2 2 1 3 3 4 5 6 6 7 7 8 11 9 8 10 10 11 9 12
REMARK H PARENT 3 5
REMARK Flexibility Score: inf
ROOT
ATOM      1  C   UNL     1       4.980   1.791   0.697  1.00  0.00     0.127 C 
ENDROOT
BRANCH   1   2
ATOM      2  C   UNL     1       4.457   1.120   1.915  1.00  0.00     0.303 C 
ATOM      3  O   UNL     1       5.142   0.221   2.461  1.00  0.00    -0.252 OA
BRANCH   2   4
ATOM      4  O   UNL     1       3.229   1.450   2.481  1.00  0.00    -0.481 OA
ATOM      5  H   UNL     1       3.119   1.596   3.496  1.00  0.00     0.296 HD
ENDBRANCH   2   4
ENDBRANCH   1   2
BRANCH   1   6
ATOM      6  C   UNL     1       6.481   1.798   0.793  1.00  0.00     0.047 C 
BRANCH   6   7
ATOM      7  C   UNL     1       7.124   1.041  -0.313  1.00  0.00    -0.047 A 
ATOM      8  C   UNL     1       6.409   0.131  -1.066  1.00  0.00     0.004 A 
ATOM      9  C   UNL     1       8.456   1.209  -0.641  1.00  0.00     0.004 A 
ATOM     10  C   UNL     1       7.017  -0.568  -2.092  1.00  0.00     0.000 A 
ATOM     11  C   UNL     1       9.064   0.514  -1.663  1.00  0.00     0.000 A 
ATOM     12  C   UNL     1       8.347  -0.396  -2.414  1.00  0.00     0.000 A 
ENDBRANCH   6   7
ENDBRANCH   1   6
TORSDOF 4
ENDMDL
MODEL 4
REMARK VINA RESULT:      -6.7      3.851      4.992
REMARK SMILES O=C(O)CCc1ccccc1
REMARK SMILES IDX 4 1 2 2 1 3 3 4 5 6 6 7 7 8 11 9 8 10 10 11 9 12
REMARK H PARENT 3 5
REMARK Flexibility Score: inf
ROOT
ATOM      1  C   UNL     1       5.528   2.871  -0.028  1.00  0.00     0.127 C 
ENDROOT
BRANCH   1   2
ATOM      2  C   UNL     1       6.263   3.860   0.802  1.00  0.00     0.303 C 
ATOM      3  O   UNL     1       6.909   4.775   0.236  1.00  0.00    -0.252 OA
BRANCH   2   4
ATOM      4  O   UNL     1       6.265   3.814   2.194  1.00  0.00    -0.481 OA
ATOM      5  H   UNL     1       5.450   4.117   2.750  1.00  0.00     0.296 HD
ENDBRANCH   2   4
ENDBRANCH   1   2
BRANCH   1   6
ATOM      6  C   UNL     1       4.931   1.853   0.904  1.00  0.00     0.047 C 
BRANCH   6   7
ATOM      7  C   UNL     1       5.718   0.592   0.947  1.00  0.00    -0.047 A 
ATOM      8  C   UNL     1       5.773  -0.178   2.092  1.00  0.00     0.004 A 
ATOM      9  C   UNL     1       6.426   0.130  -0.146  1.00  0.00     0.004 A 
ATOM     10  C   UNL     1       6.508  -1.348   2.121  1.00  0.00     0.000 A 
ATOM     11  C   UNL     1       7.159  -1.035  -0.120  1.00  0.00     0.000 A 
ATOM     12  C   UNL     1       7.213  -1.803   1.026  1.00  0.00     0.000 A 
ENDBRANCH   6   7
ENDBRANCH   1   6
TORSDOF 4
ENDMDL
MODEL 5
REMARK VINA RESULT:      -6.6      1.906      2.636
REMARK SMILES O=C(O)CCc1ccccc1
REMARK SMILES IDX 4 1 2 2 1 3 3 4 5 6 6 7 7 8 11 9 8 10 10 11 9 12
REMARK H PARENT 3 5
REMARK Flexibility Score: inf
ROOT
ATOM      1  C   UNL     1       8.192   0.263  -2.194  1.00  0.00     0.127 C 
ENDROOT
BRANCH   1   2
ATOM      2  C   UNL     1       9.340   0.353  -1.255  1.00  0.00     0.303 C 
ATOM      3  O   UNL     1       9.404  -0.443  -0.288  1.00  0.00    -0.252 OA
BRANCH   2   4
ATOM      4  O   UNL     1      10.357   1.293  -1.406  1.00  0.00    -0.481 OA
ATOM      5  H   UNL     1      11.352   1.023  -1.398  1.00  0.00     0.296 HD
ENDBRANCH   2   4
ENDBRANCH   1   2
BRANCH   1   6
ATOM      6  C   UNL     1       7.126  -0.562  -1.527  1.00  0.00     0.047 C 
BRANCH   6   7
ATOM      7  C   UNL     1       6.342   0.218  -0.534  1.00  0.00    -0.047 A 
ATOM      8  C   UNL     1       6.114  -0.269   0.739  1.00  0.00     0.004 A 
ATOM      9  C   UNL     1       5.808   1.458  -0.829  1.00  0.00     0.004 A 
ATOM     10  C   UNL     1       5.384   0.465   1.654  1.00  0.00     0.000 A 
ATOM     11  C   UNL     1       5.081   2.191   0.082  1.00  0.00     0.000 A 
ATOM     12  C   UNL     1       4.853   1.702   1.352  1.00  0.00     0.000 A 
ENDBRANCH   6   7
ENDBRANCH   1   6
TORSDOF 4
ENDMDL
