@<TRIPOS>MOLECULE
/home/cewinharhar/GITHUB/reincatalyze/data/processed/docking_pred/2023-Apr-25-2033_maxeplen5_maxtrainstep200_exh16_gamma099_lrac3e-4_lrcr1e-3/3dd20a82ca316ee4e9168eadca9f8684e5881f32_ligand_2.pdbqt
 12 12 0 0 0
SMALL
GASTEIGER

@<TRIPOS>ATOM
      1  C          8.4690   -0.5700   -2.2420 C.3     1  UNL1        0.1270
      2  C          8.4960   -1.8820   -2.9390 C.2     1  UNL1        0.3030
      3  O          9.5960   -2.4600   -3.1150 O.2     1  UNL1       -0.2520
      4  O          7.3410   -2.5010   -3.4100 O.3     1  UNL1       -0.4810
      5  H          6.6790   -2.0160   -4.0340 H       1  UNL1        0.2960
      6  C          7.0420   -0.0970   -2.2210 C.3     1  UNL1        0.0470
      7  C          6.5170    0.0620   -0.8400 C.2     1  UNL1       -0.0470
      8  C          5.9030    1.2330   -0.4380 C.2     1  UNL1        0.0040
      9  C          6.6140   -0.9430    0.1040 C.2     1  UNL1        0.0040
     10  C          5.4180    1.3700    0.8490 C.2     1  UNL1        0.0000
     11  C          6.1320   -0.8080    1.3870 C.2     1  UNL1        0.0000
     12  C          5.5190    0.3630    1.7860 C.2     1  UNL1        0.0000
@<TRIPOS>BOND
     1     5     4    1
     2     4     2    1
     3     3     2    2
     4     2     1    1
     5     1     6    1
     6     6     7    1
     7     7     8    2
     8     7     9    1
     9     8    10    1
    10     9    11    2
    11    10    12    2
    12    11    12    1
