@<TRIPOS>MOLECULE
/home/cewinharhar/GITHUB/reincatalyze/data/processed/docking_pred/2023-Apr-25-2033_maxeplen5_maxtrainstep200_exh16_gamma099_lrac3e-4_lrcr1e-3/3dd20a82ca316ee4e9168eadca9f8684e5881f32_ligand_2.pdbqt
 12 12 0 0 0
SMALL
GASTEIGER

@<TRIPOS>ATOM
      1  C          4.9800    1.7910    0.6970 C.3     1  UNL1        0.1270
      2  C          4.4570    1.1200    1.9150 C.2     1  UNL1        0.3030
      3  O          5.1420    0.2210    2.4610 O.2     1  UNL1       -0.2520
      4  O          3.2290    1.4500    2.4810 O.3     1  UNL1       -0.4810
      5  H          3.1190    1.5960    3.4960 H       1  UNL1        0.2960
      6  C          6.4810    1.7980    0.7930 C.3     1  UNL1        0.0470
      7  C          7.1240    1.0410   -0.3130 C.2     1  UNL1       -0.0470
      8  C          6.4090    0.1310   -1.0660 C.2     1  UNL1        0.0040
      9  C          8.4560    1.2090   -0.6410 C.2     1  UNL1        0.0040
     10  C          7.0170   -0.5680   -2.0920 C.2     1  UNL1        0.0000
     11  C          9.0640    0.5140   -1.6630 C.2     1  UNL1        0.0000
     12  C          8.3470   -0.3960   -2.4140 C.2     1  UNL1        0.0000
@<TRIPOS>BOND
     1    12    10    2
     2    12    11    1
     3    10     8    1
     4    11     9    2
     5     8     7    2
     6     9     7    1
     7     7     6    1
     8     1     6    1
     9     1     2    1
    10     2     3    2
    11     2     4    1
    12     4     5    1
