@<TRIPOS>MOLECULE
/home/cewinharhar/GITHUB/reincatalyze/data/processed/docking_pred/2023-Apr-25-2033_maxeplen5_maxtrainstep200_exh16_gamma099_lrac3e-4_lrcr1e-3/3dd20a82ca316ee4e9168eadca9f8684e5881f32_ligand_2.pdbqt
 12 12 0 0 0
SMALL
GASTEIGER

@<TRIPOS>ATOM
      1  C          8.1920    0.2630   -2.1940 C.3     1  UNL1        0.1270
      2  C          9.3400    0.3530   -1.2550 C.2     1  UNL1        0.3030
      3  O          9.4040   -0.4430   -0.2880 O.2     1  UNL1       -0.2520
      4  O         10.3570    1.2930   -1.4060 O.3     1  UNL1       -0.4810
      5  H         11.3520    1.0230   -1.3980 H       1  UNL1        0.2960
      6  C          7.1260   -0.5620   -1.5270 C.3     1  UNL1        0.0470
      7  C          6.3420    0.2180   -0.5340 C.2     1  UNL1       -0.0470
      8  C          6.1140   -0.2690    0.7390 C.2     1  UNL1        0.0040
      9  C          5.8080    1.4580   -0.8290 C.2     1  UNL1        0.0040
     10  C          5.3840    0.4650    1.6540 C.2     1  UNL1        0.0000
     11  C          5.0810    2.1910    0.0820 C.2     1  UNL1        0.0000
     12  C          4.8530    1.7020    1.3520 C.2     1  UNL1        0.0000
@<TRIPOS>BOND
     1     1     6    1
     2     1     2    1
     3     6     7    1
     4     4     5    1
     5     4     2    1
     6     2     3    2
     7     9     7    2
     8     9    11    1
     9     7     8    1
    10    11    12    2
    11     8    10    2
    12    12    10    1
