@<TRIPOS>MOLECULE
/home/cewinharhar/GITHUB/reincatalyze/data/processed/docking_pred/2023-Apr-25-2033_maxeplen5_maxtrainstep200_exh16_gamma099_lrac3e-4_lrcr1e-3/3dd20a82ca316ee4e9168eadca9f8684e5881f32_ligand_2.pdbqt
 12 12 0 0 0
SMALL
GASTEIGER

@<TRIPOS>ATOM
      1  C          8.4540   -0.6480   -2.0940 C.3     1  UNL1        0.1270
      2  C          8.4260   -1.9100   -2.8780 C.2     1  UNL1        0.3030
      3  O          7.3200   -2.4020   -3.2080 O.2     1  UNL1       -0.2520
      4  O          9.5870   -2.5750   -3.2650 O.3     1  UNL1       -0.4810
      5  H          9.7560   -3.5620   -3.0190 H       1  UNL1        0.2960
      6  C          7.0690   -0.0620   -2.1310 C.3     1  UNL1        0.0470
      7  C          6.4840    0.0980   -0.7740 C.2     1  UNL1       -0.0470
      8  C          6.5900   -0.9020    0.1730 C.2     1  UNL1        0.0040
      9  C          5.8130    1.2450   -0.3930 C.2     1  UNL1        0.0040
     10  C          6.0430   -0.7430    1.4320 C.2     1  UNL1        0.0000
     11  C          5.2670    1.4060    0.8610 C.2     1  UNL1        0.0000
     12  C          5.3740    0.4050    1.8050 C.2     1  UNL1        0.0000
@<TRIPOS>BOND
     1     4     5    1
     2     4     2    1
     3     3     2    2
     4     2     1    1
     5     6     1    1
     6     6     7    1
     7     7     9    2
     8     7     8    1
     9     9    11    1
    10     8    10    2
    11    11    12    2
    12    10    12    1
