@<TRIPOS>MOLECULE
/home/cewinharhar/GITHUB/reincatalyze/data/processed/docking_pred/2023-Apr-25-2033_maxeplen5_maxtrainstep200_exh16_gamma099_lrac3e-4_lrcr1e-3/3ef00b253c4480de2280c2f95d83164b82996574_ligand_2.pdbqt
 12 12 0 0 0
SMALL
GASTEIGER

@<TRIPOS>ATOM
      1  C          8.4930    0.6600   -1.6950 C.3     1  UNL1        0.1270
      2  C          9.6520    0.2960   -0.8390 C.2     1  UNL1        0.3030
      3  O          9.4840   -0.5100    0.1080 O.2     1  UNL1       -0.2520
      4  O         10.9270    0.8150   -1.0470 O.3     1  UNL1       -0.4810
      5  H         11.5010    0.5390   -1.8580 H       1  UNL1        0.2960
      6  C          7.3640   -0.2720   -1.3490 C.3     1  UNL1        0.0470
      7  C          6.4430    0.3040   -0.3340 C.2     1  UNL1       -0.0470
      8  C          6.1770   -0.3600    0.8480 C.2     1  UNL1        0.0040
      9  C          5.8140    1.5200   -0.5190 C.2     1  UNL1        0.0040
     10  C          5.3190    0.1850    1.7840 C.2     1  UNL1        0.0000
     11  C          4.9590    2.0650    0.4130 C.2     1  UNL1        0.0000
     12  C          4.6940    1.4000    1.5930 C.2     1  UNL1        0.0000
@<TRIPOS>BOND
     1     5     4    1
     2     1     6    1
     3     1     2    1
     4     6     7    1
     5     4     2    1
     6     2     3    2
     7     9     7    2
     8     9    11    1
     9     7     8    1
    10    11    12    2
    11     8    10    2
    12    12    10    1
