@<TRIPOS>MOLECULE
/home/cewinharhar/GITHUB/reincatalyze/data/processed/docking_pred/2023-Apr-25-2033_maxeplen5_maxtrainstep200_exh16_gamma099_lrac3e-4_lrcr1e-3/3ef00b253c4480de2280c2f95d83164b82996574_ligand_2.pdbqt
 12 12 0 0 0
SMALL
GASTEIGER

@<TRIPOS>ATOM
      1  C          8.4640   -0.6340   -2.1160 C.3     1  UNL1        0.1270
      2  C          8.4680   -1.8970   -2.9000 C.2     1  UNL1        0.3030
      3  O          9.5550   -2.4930   -3.0950 O.2     1  UNL1       -0.2520
      4  O          7.3060   -2.4520   -3.4300 O.3     1  UNL1       -0.4810
      5  H          7.2810   -2.8600   -4.3770 H       1  UNL1        0.2960
      6  C          7.0600   -0.0960   -2.1340 C.3     1  UNL1        0.0470
      7  C          6.4900    0.0490   -0.7690 C.2     1  UNL1       -0.0470
      8  C          5.8400    1.2050   -0.3840 C.2     1  UNL1        0.0040
      9  C          6.5800   -0.9560    0.1760 C.2     1  UNL1        0.0040
     10  C          5.3140    1.3290    0.8880 C.2     1  UNL1        0.0000
     11  C          6.0570   -0.8350    1.4440 C.2     1  UNL1        0.0000
     12  C          5.4080    0.3220    1.8260 C.2     1  UNL1        0.0000
@<TRIPOS>BOND
     1     5     4    1
     2     4     2    1
     3     3     2    2
     4     2     1    1
     5     6     1    1
     6     6     7    1
     7     7     8    2
     8     7     9    1
     9     8    10    1
    10     9    11    2
    11    10    12    2
    12    11    12    1
