@<TRIPOS>MOLECULE
/home/cewinharhar/GITHUB/reincatalyze/data/processed/docking_pred/2023-Apr-25-2033_maxeplen5_maxtrainstep200_exh16_gamma099_lrac3e-4_lrcr1e-3/3ef00b253c4480de2280c2f95d83164b82996574_ligand_2.pdbqt
 12 12 0 0 0
SMALL
GASTEIGER

@<TRIPOS>ATOM
      1  C          5.4030    2.9420    0.0550 C.3     1  UNL1        0.1270
      2  C          6.2290    3.8900    0.8470 C.2     1  UNL1        0.3030
      3  O          6.8900    4.7730    0.2490 O.2     1  UNL1       -0.2520
      4  O          6.2980    3.8400    2.2370 O.3     1  UNL1       -0.4810
      5  H          5.5090    4.1330    2.8330 H       1  UNL1        0.2960
      6  C          4.8900    1.8910    1.0000 C.3     1  UNL1        0.0470
      7  C          5.7000    0.6450    0.9580 C.2     1  UNL1       -0.0470
      8  C          6.3520    0.2550   -0.1960 C.2     1  UNL1        0.0040
      9  C          5.8420   -0.1770    2.0600 C.2     1  UNL1        0.0040
     10  C          7.1030   -0.9050   -0.2240 C.2     1  UNL1        0.0000
     11  C          6.5900   -1.3330    2.0340 C.2     1  UNL1        0.0000
     12  C          7.2400   -1.7210    0.8800 C.2     1  UNL1        0.0000
@<TRIPOS>BOND
     1    10     8    1
     2    10    12    2
     3     8     7    2
     4     1     2    1
     5     1     6    1
     6     3     2    2
     7     2     4    1
     8    12    11    1
     9     7     6    1
    10     7     9    1
    11    11     9    2
    12     4     5    1
