MODEL 1
REMARK VINA RESULT:      -7.3      0.000      0.000
REMARK SMILES O=C(O)CCc1ccccc1
REMARK SMILES IDX 4 1 2 2 1 3 3 4 5 6 6 7 7 8 11 9 8 10 10 11 9 12
REMARK H PARENT 3 5
REMARK Flexibility Score: inf
ROOT
ATOM      1  C   UNL     1       8.464  -0.634  -2.116  1.00  0.00     0.127 C 
ENDROOT
BRANCH   1   2
ATOM      2  C   UNL     1       8.468  -1.897  -2.900  1.00  0.00     0.303 C 
ATOM      3  O   UNL     1       9.555  -2.493  -3.095  1.00  0.00    -0.252 OA
BRANCH   2   4
ATOM      4  O   UNL     1       7.306  -2.452  -3.430  1.00  0.00    -0.481 OA
ATOM      5  H   UNL     1       7.281  -2.860  -4.377  1.00  0.00     0.296 HD
ENDBRANCH   2   4
ENDBRANCH   1   2
BRANCH   1   6
ATOM      6  C   UNL     1       7.060  -0.096  -2.134  1.00  0.00     0.047 C 
BRANCH   6   7
ATOM      7  C   UNL     1       6.490   0.049  -0.769  1.00  0.00    -0.047 A 
ATOM      8  C   UNL     1       5.840   1.205  -0.384  1.00  0.00     0.004 A 
ATOM      9  C   UNL     1       6.580  -0.956   0.176  1.00  0.00     0.004 A 
ATOM     10  C   UNL     1       5.314   1.329   0.888  1.00  0.00     0.000 A 
ATOM     11  C   UNL     1       6.057  -0.835   1.444  1.00  0.00     0.000 A 
ATOM     12  C   UNL     1       5.408   0.322   1.826  1.00  0.00     0.000 A 
ENDBRANCH   6   7
ENDBRANCH   1   6
TORSDOF 4
ENDMDL
MODEL 2
REMARK VINA RESULT:      -7.3      0.075      1.421
REMARK SMILES O=C(O)CCc1ccccc1
REMARK SMILES IDX 4 1 2 2 1 3 3 4 5 6 6 7 7 8 11 9 8 10 10 11 9 12
REMARK H PARENT 3 5
REMARK Flexibility Score: inf
ROOT
ATOM      1  C   UNL     1       8.447  -0.557  -2.229  1.00  0.00     0.127 C 
ENDROOT
BRANCH   1   2
ATOM      2  C   UNL     1       8.453  -1.872  -2.921  1.00  0.00     0.303 C 
ATOM      3  O   UNL     1       9.535  -2.495  -3.042  1.00  0.00    -0.252 OA
BRANCH   2   4
ATOM      4  O   UNL     1       7.297  -2.446  -3.444  1.00  0.00    -0.481 OA
ATOM      5  H   UNL     1       7.282  -2.886  -4.376  1.00  0.00     0.296 HD
ENDBRANCH   2   4
ENDBRANCH   1   2
BRANCH   1   6
ATOM      6  C   UNL     1       7.027  -0.062  -2.208  1.00  0.00     0.047 C 
BRANCH   6   7
ATOM      7  C   UNL     1       6.492   0.069  -0.827  1.00  0.00    -0.047 A 
ATOM      8  C   UNL     1       6.600  -0.964   0.083  1.00  0.00     0.004 A 
ATOM      9  C   UNL     1       5.866   1.221  -0.388  1.00  0.00     0.004 A 
ATOM     10  C   UNL     1       6.099  -0.831   1.364  1.00  0.00     0.000 A 
ATOM     11  C   UNL     1       5.366   1.355   0.888  1.00  0.00     0.000 A 
ATOM     12  C   UNL     1       5.475   0.321   1.796  1.00  0.00     0.000 A 
ENDBRANCH   6   7
ENDBRANCH   1   6
TORSDOF 4
ENDMDL
MODEL 3
REMARK VINA RESULT:      -6.8      3.387      5.078
REMARK SMILES O=C(O)CCc1ccccc1
REMARK SMILES IDX 4 1 2 2 1 3 3 4 5 6 6 7 7 8 11 9 8 10 10 11 9 12
REMARK H PARENT 3 5
REMARK Flexibility Score: inf
ROOT
ATOM      1  C   UNL     1       4.995   1.777   0.710  1.00  0.00     0.127 C 
ENDROOT
BRANCH   1   2
ATOM      2  C   UNL     1       4.455   1.115   1.925  1.00  0.00     0.303 C 
ATOM      3  O   UNL     1       5.126   0.211   2.479  1.00  0.00    -0.252 OA
BRANCH   2   4
ATOM      4  O   UNL     1       3.225   1.459   2.480  1.00  0.00    -0.481 OA
ATOM      5  H   UNL     1       2.848   2.417   2.415  1.00  0.00     0.296 HD
ENDBRANCH   2   4
ENDBRANCH   1   2
BRANCH   1   6
ATOM      6  C   UNL     1       6.495   1.752   0.809  1.00  0.00     0.047 C 
BRANCH   6   7
ATOM      7  C   UNL     1       7.126   0.996  -0.304  1.00  0.00    -0.047 A 
ATOM      8  C   UNL     1       8.436   1.229  -0.675  1.00  0.00     0.004 A 
ATOM      9  C   UNL     1       6.441   0.031  -1.018  1.00  0.00     0.004 A 
ATOM     10  C   UNL     1       9.012   0.521  -1.713  1.00  0.00     0.000 A 
ATOM     11  C   UNL     1       7.013  -0.677  -2.052  1.00  0.00     0.000 A 
ATOM     12  C   UNL     1       8.322  -0.442  -2.421  1.00  0.00     0.000 A 
ENDBRANCH   6   7
ENDBRANCH   1   6
TORSDOF 4
ENDMDL
MODEL 4
REMARK VINA RESULT:      -6.6      3.822      4.957
REMARK SMILES O=C(O)CCc1ccccc1
REMARK SMILES IDX 4 1 2 2 1 3 3 4 5 6 6 7 7 8 11 9 8 10 10 11 9 12
REMARK H PARENT 3 5
REMARK Flexibility Score: inf
ROOT
ATOM      1  C   UNL     1       5.403   2.942   0.055  1.00  0.00     0.127 C 
ENDROOT
BRANCH   1   2
ATOM      2  C   UNL     1       6.229   3.890   0.847  1.00  0.00     0.303 C 
ATOM      3  O   UNL     1       6.890   4.773   0.249  1.00  0.00    -0.252 OA
BRANCH   2   4
ATOM      4  O   UNL     1       6.298   3.840   2.237  1.00  0.00    -0.481 OA
ATOM      5  H   UNL     1       5.509   4.133   2.833  1.00  0.00     0.296 HD
ENDBRANCH   2   4
ENDBRANCH   1   2
BRANCH   1   6
ATOM      6  C   UNL     1       4.890   1.891   1.000  1.00  0.00     0.047 C 
BRANCH   6   7
ATOM      7  C   UNL     1       5.700   0.645   0.958  1.00  0.00    -0.047 A 
ATOM      8  C   UNL     1       6.352   0.255  -0.196  1.00  0.00     0.004 A 
ATOM      9  C   UNL     1       5.842  -0.177   2.060  1.00  0.00     0.004 A 
ATOM     10  C   UNL     1       7.103  -0.905  -0.224  1.00  0.00     0.000 A 
ATOM     11  C   UNL     1       6.590  -1.333   2.034  1.00  0.00     0.000 A 
ATOM     12  C   UNL     1       7.240  -1.721   0.880  1.00  0.00     0.000 A 
ENDBRANCH   6   7
ENDBRANCH   1   6
TORSDOF 4
ENDMDL
MODEL 5
REMARK VINA RESULT:      -6.5      2.066      2.743
REMARK SMILES O=C(O)CCc1ccccc1
REMARK SMILES IDX 4 1 2 2 1 3 3 4 5 6 6 7 7 8 11 9 8 10 10 11 9 12
REMARK H PARENT 3 5
REMARK Flexibility Score: inf
ROOT
ATOM      1  C   UNL     1       8.493   0.660  -1.695  1.00  0.00     0.127 C 
ENDROOT
BRANCH   1   2
ATOM      2  C   UNL     1       9.652   0.296  -0.839  1.00  0.00     0.303 C 
ATOM      3  O   UNL     1       9.484  -0.510   0.108  1.00  0.00    -0.252 OA
BRANCH   2   4
ATOM      4  O   UNL     1      10.927   0.815  -1.047  1.00  0.00    -0.481 OA
ATOM      5  H   UNL     1      11.501   0.539  -1.858  1.00  0.00     0.296 HD
ENDBRANCH   2   4
ENDBRANCH   1   2
BRANCH   1   6
ATOM      6  C   UNL     1       7.364  -0.272  -1.349  1.00  0.00     0.047 C 
BRANCH   6   7
ATOM      7  C   UNL     1       6.443   0.304  -0.334  1.00  0.00    -0.047 A 
ATOM      8  C   UNL     1       6.177  -0.360   0.848  1.00  0.00     0.004 A 
ATOM      9  C   UNL     1       5.814   1.520  -0.519  1.00  0.00     0.004 A 
ATOM     10  C   UNL     1       5.319   0.185   1.784  1.00  0.00     0.000 A 
ATOM     11  C   UNL     1       4.959   2.065   0.413  1.00  0.00     0.000 A 
ATOM     12  C   UNL     1       4.694   1.400   1.593  1.00  0.00     0.000 A 
ENDBRANCH   6   7
ENDBRANCH   1   6
TORSDOF 4
ENDMDL
