@<TRIPOS>MOLECULE
/home/cewinharhar/GITHUB/reincatalyze/data/processed/docking_pred/2023-Apr-25-2033_maxeplen5_maxtrainstep200_exh16_gamma099_lrac3e-4_lrcr1e-3/3ef00b253c4480de2280c2f95d83164b82996574_ligand_2.pdbqt
 12 12 0 0 0
SMALL
GASTEIGER

@<TRIPOS>ATOM
      1  C          8.4470   -0.5570   -2.2290 C.3     1  UNL1        0.1270
      2  C          8.4530   -1.8720   -2.9210 C.2     1  UNL1        0.3030
      3  O          9.5350   -2.4950   -3.0420 O.2     1  UNL1       -0.2520
      4  O          7.2970   -2.4460   -3.4440 O.3     1  UNL1       -0.4810
      5  H          7.2820   -2.8860   -4.3760 H       1  UNL1        0.2960
      6  C          7.0270   -0.0620   -2.2080 C.3     1  UNL1        0.0470
      7  C          6.4920    0.0690   -0.8270 C.2     1  UNL1       -0.0470
      8  C          6.6000   -0.9640    0.0830 C.2     1  UNL1        0.0040
      9  C          5.8660    1.2210   -0.3880 C.2     1  UNL1        0.0040
     10  C          6.0990   -0.8310    1.3640 C.2     1  UNL1        0.0000
     11  C          5.3660    1.3550    0.8880 C.2     1  UNL1        0.0000
     12  C          5.4750    0.3210    1.7960 C.2     1  UNL1        0.0000
@<TRIPOS>BOND
     1     5     4    1
     2     4     2    1
     3     3     2    2
     4     2     1    1
     5     1     6    1
     6     6     7    1
     7     7     9    2
     8     7     8    1
     9     9    11    1
    10     8    10    2
    11    11    12    2
    12    10    12    1
