@<TRIPOS>MOLECULE
/home/cewinharhar/GITHUB/reincatalyze/data/processed/docking_pred/2023-Apr-25-2033_maxeplen5_maxtrainstep200_exh16_gamma099_lrac3e-4_lrcr1e-3/3ef00b253c4480de2280c2f95d83164b82996574_ligand_2.pdbqt
 12 12 0 0 0
SMALL
GASTEIGER

@<TRIPOS>ATOM
      1  C          4.9950    1.7770    0.7100 C.3     1  UNL1        0.1270
      2  C          4.4550    1.1150    1.9250 C.2     1  UNL1        0.3030
      3  O          5.1260    0.2110    2.4790 O.2     1  UNL1       -0.2520
      4  O          3.2250    1.4590    2.4800 O.3     1  UNL1       -0.4810
      5  H          2.8480    2.4170    2.4150 H       1  UNL1        0.2960
      6  C          6.4950    1.7520    0.8090 C.3     1  UNL1        0.0470
      7  C          7.1260    0.9960   -0.3040 C.2     1  UNL1       -0.0470
      8  C          8.4360    1.2290   -0.6750 C.2     1  UNL1        0.0040
      9  C          6.4410    0.0310   -1.0180 C.2     1  UNL1        0.0040
     10  C          9.0120    0.5210   -1.7130 C.2     1  UNL1        0.0000
     11  C          7.0130   -0.6770   -2.0520 C.2     1  UNL1        0.0000
     12  C          8.3220   -0.4420   -2.4210 C.2     1  UNL1        0.0000
@<TRIPOS>BOND
     1    12    11    2
     2    12    10    1
     3    11     9    1
     4    10     8    2
     5     9     7    2
     6     8     7    1
     7     7     6    1
     8     1     6    1
     9     1     2    1
    10     2     3    2
    11     2     4    1
    12     5     4    1
