@<TRIPOS>MOLECULE
/home/cewinharhar/GITHUB/reincatalyze/data/processed/docking_pred/2023-Apr-25-2033_maxeplen5_maxtrainstep200_exh16_gamma099_lrac3e-4_lrcr1e-3/40246e00fe273733fff606c0d5025fbb5a6aafa7_ligand_2.pdbqt
 12 12 0 0 0
SMALL
GASTEIGER

@<TRIPOS>ATOM
      1  C          8.4520   -0.6370   -2.1250 C.3     1  UNL1        0.1270
      2  C          8.4600   -1.9050   -2.9000 C.2     1  UNL1        0.3030
      3  O          9.5500   -2.4940   -3.0990 O.2     1  UNL1       -0.2520
      4  O          7.2990   -2.4710   -3.4190 O.3     1  UNL1       -0.4810
      5  H          6.9370   -3.3760   -3.0820 H       1  UNL1        0.2960
      6  C          7.0420   -0.1140   -2.1280 C.3     1  UNL1        0.0470
      7  C          6.4860    0.0260   -0.7560 C.2     1  UNL1       -0.0470
      8  C          5.8420    1.1820   -0.3600 C.2     1  UNL1        0.0040
      9  C          6.5820   -0.9830    0.1830 C.2     1  UNL1        0.0040
     10  C          5.3280    1.3020    0.9170 C.2     1  UNL1        0.0000
     11  C          6.0710   -0.8670    1.4560 C.2     1  UNL1        0.0000
     12  C          5.4290    0.2900    1.8500 C.2     1  UNL1        0.0000
@<TRIPOS>BOND
     1     4     5    1
     2     4     2    1
     3     3     2    2
     4     2     1    1
     5     6     1    1
     6     6     7    1
     7     7     8    2
     8     7     9    1
     9     8    10    1
    10     9    11    2
    11    10    12    2
    12    11    12    1
