MODEL 1
REMARK VINA RESULT:      -7.3      0.000      0.000
REMARK SMILES O=C(O)CCc1ccccc1
REMARK SMILES IDX 4 1 2 2 1 3 3 4 5 6 6 7 7 8 11 9 8 10 10 11 9 12
REMARK H PARENT 3 5
REMARK Flexibility Score: inf
ROOT
ATOM      1  C   UNL     1       8.452  -0.637  -2.125  1.00  0.00     0.127 C 
ENDROOT
BRANCH   1   2
ATOM      2  C   UNL     1       8.460  -1.905  -2.900  1.00  0.00     0.303 C 
ATOM      3  O   UNL     1       9.550  -2.494  -3.099  1.00  0.00    -0.252 OA
BRANCH   2   4
ATOM      4  O   UNL     1       7.299  -2.471  -3.419  1.00  0.00    -0.481 OA
ATOM      5  H   UNL     1       6.937  -3.376  -3.082  1.00  0.00     0.296 HD
ENDBRANCH   2   4
ENDBRANCH   1   2
BRANCH   1   6
ATOM      6  C   UNL     1       7.042  -0.114  -2.128  1.00  0.00     0.047 C 
BRANCH   6   7
ATOM      7  C   UNL     1       6.486   0.026  -0.756  1.00  0.00    -0.047 A 
ATOM      8  C   UNL     1       5.842   1.182  -0.360  1.00  0.00     0.004 A 
ATOM      9  C   UNL     1       6.582  -0.983   0.183  1.00  0.00     0.004 A 
ATOM     10  C   UNL     1       5.328   1.302   0.917  1.00  0.00     0.000 A 
ATOM     11  C   UNL     1       6.071  -0.867   1.456  1.00  0.00     0.000 A 
ATOM     12  C   UNL     1       5.429   0.290   1.850  1.00  0.00     0.000 A 
ENDBRANCH   6   7
ENDBRANCH   1   6
TORSDOF 4
ENDMDL
MODEL 2
REMARK VINA RESULT:      -7.3      0.086      1.421
REMARK SMILES O=C(O)CCc1ccccc1
REMARK SMILES IDX 4 1 2 2 1 3 3 4 5 6 6 7 7 8 11 9 8 10 10 11 9 12
REMARK H PARENT 3 5
REMARK Flexibility Score: inf
ROOT
ATOM      1  C   UNL     1       8.447  -0.530  -2.244  1.00  0.00     0.127 C 
ENDROOT
BRANCH   1   2
ATOM      2  C   UNL     1       8.476  -1.854  -2.917  1.00  0.00     0.303 C 
ATOM      3  O   UNL     1       9.572  -2.448  -3.053  1.00  0.00    -0.252 OA
BRANCH   2   4
ATOM      4  O   UNL     1       7.326  -2.468  -3.408  1.00  0.00    -0.481 OA
ATOM      5  H   UNL     1       6.621  -2.885  -2.780  1.00  0.00     0.296 HD
ENDBRANCH   2   4
ENDBRANCH   1   2
BRANCH   1   6
ATOM      6  C   UNL     1       7.014  -0.074  -2.202  1.00  0.00     0.047 C 
BRANCH   6   7
ATOM      7  C   UNL     1       6.498   0.049  -0.814  1.00  0.00    -0.047 A 
ATOM      8  C   UNL     1       6.626  -0.986   0.091  1.00  0.00     0.004 A 
ATOM      9  C   UNL     1       5.870   1.194  -0.362  1.00  0.00     0.004 A 
ATOM     10  C   UNL     1       6.142  -0.861   1.380  1.00  0.00     0.000 A 
ATOM     11  C   UNL     1       5.387   1.321   0.921  1.00  0.00     0.000 A 
ATOM     12  C   UNL     1       5.516   0.285   1.824  1.00  0.00     0.000 A 
ENDBRANCH   6   7
ENDBRANCH   1   6
TORSDOF 4
ENDMDL
MODEL 3
REMARK VINA RESULT:      -6.8      1.048      1.990
REMARK SMILES O=C(O)CCc1ccccc1
REMARK SMILES IDX 4 1 2 2 1 3 3 4 5 6 6 7 7 8 11 9 8 10 10 11 9 12
REMARK H PARENT 3 5
REMARK Flexibility Score: inf
ROOT
ATOM      1  C   UNL     1       7.328  -1.429  -2.143  1.00  0.00     0.127 C 
ENDROOT
BRANCH   1   2
ATOM      2  C   UNL     1       8.774  -1.388  -2.480  1.00  0.00     0.303 C 
ATOM      3  O   UNL     1       9.267  -2.309  -3.176  1.00  0.00    -0.252 OA
BRANCH   2   4
ATOM      4  O   UNL     1       9.613  -0.363  -2.051  1.00  0.00    -0.481 OA
ATOM      5  H   UNL     1       9.306   0.622  -2.037  1.00  0.00     0.296 HD
ENDBRANCH   2   4
ENDBRANCH   1   2
BRANCH   1   6
ATOM      6  C   UNL     1       7.212  -1.480  -0.645  1.00  0.00     0.047 C 
BRANCH   6   7
ATOM      7  C   UNL     1       6.444  -0.333  -0.095  1.00  0.00    -0.047 A 
ATOM      8  C   UNL     1       5.973  -0.344   1.204  1.00  0.00     0.004 A 
ATOM      9  C   UNL     1       6.164   0.793  -0.847  1.00  0.00     0.004 A 
ATOM     10  C   UNL     1       5.259   0.728   1.705  1.00  0.00     0.000 A 
ATOM     11  C   UNL     1       5.453   1.862  -0.349  1.00  0.00     0.000 A 
ATOM     12  C   UNL     1       4.983   1.848   0.949  1.00  0.00     0.000 A 
ENDBRANCH   6   7
ENDBRANCH   1   6
TORSDOF 4
ENDMDL
MODEL 4
REMARK VINA RESULT:      -6.8      3.394      5.118
REMARK SMILES O=C(O)CCc1ccccc1
REMARK SMILES IDX 4 1 2 2 1 3 3 4 5 6 6 7 7 8 11 9 8 10 10 11 9 12
REMARK H PARENT 3 5
REMARK Flexibility Score: inf
ROOT
ATOM      1  C   UNL     1       5.050   1.795   0.748  1.00  0.00     0.127 C 
ENDROOT
BRANCH   1   2
ATOM      2  C   UNL     1       4.482   1.127   1.949  1.00  0.00     0.303 C 
ATOM      3  O   UNL     1       5.147   0.230   2.522  1.00  0.00    -0.252 OA
BRANCH   2   4
ATOM      4  O   UNL     1       3.233   1.458   2.468  1.00  0.00    -0.481 OA
ATOM      5  H   UNL     1       3.033   2.395   2.848  1.00  0.00     0.296 HD
ENDBRANCH   2   4
ENDBRANCH   1   2
BRANCH   1   6
ATOM      6  C   UNL     1       6.548   1.718   0.854  1.00  0.00     0.047 C 
BRANCH   6   7
ATOM      7  C   UNL     1       7.160   0.986  -0.286  1.00  0.00    -0.047 A 
ATOM      8  C   UNL     1       6.435   0.065  -1.017  1.00  0.00     0.004 A 
ATOM      9  C   UNL     1       8.473   1.187  -0.669  1.00  0.00     0.004 A 
ATOM     10  C   UNL     1       7.014  -0.610  -2.074  1.00  0.00     0.000 A 
ATOM     11  C   UNL     1       9.052   0.515  -1.722  1.00  0.00     0.000 A 
ATOM     12  C   UNL     1       8.325  -0.405  -2.451  1.00  0.00     0.000 A 
ENDBRANCH   6   7
ENDBRANCH   1   6
TORSDOF 4
ENDMDL
MODEL 5
REMARK VINA RESULT:      -6.5      3.736      4.977
REMARK SMILES O=C(O)CCc1ccccc1
REMARK SMILES IDX 4 1 2 2 1 3 3 4 5 6 6 7 7 8 11 9 8 10 10 11 9 12
REMARK H PARENT 3 5
REMARK Flexibility Score: inf
ROOT
ATOM      1  C   UNL     1       5.330   2.941   0.098  1.00  0.00     0.127 C 
ENDROOT
BRANCH   1   2
ATOM      2  C   UNL     1       6.219   3.847   0.870  1.00  0.00     0.303 C 
ATOM      3  O   UNL     1       6.854   4.743   0.265  1.00  0.00    -0.252 OA
BRANCH   2   4
ATOM      4  O   UNL     1       6.378   3.741   2.250  1.00  0.00    -0.481 OA
ATOM      5  H   UNL     1       7.111   3.149   2.669  1.00  0.00     0.296 HD
ENDBRANCH   2   4
ENDBRANCH   1   2
BRANCH   1   6
ATOM      6  C   UNL     1       5.233   1.646   0.857  1.00  0.00     0.047 C 
BRANCH   6   7
ATOM      7  C   UNL     1       6.032   0.560   0.232  1.00  0.00    -0.047 A 
ATOM      8  C   UNL     1       6.326   0.574  -1.118  1.00  0.00     0.004 A 
ATOM      9  C   UNL     1       6.519  -0.508   0.962  1.00  0.00     0.004 A 
ATOM     10  C   UNL     1       7.070  -0.440  -1.689  1.00  0.00     0.000 A 
ATOM     11  C   UNL     1       7.261  -1.520   0.395  1.00  0.00     0.000 A 
ATOM     12  C   UNL     1       7.552  -1.504  -0.954  1.00  0.00     0.000 A 
ENDBRANCH   6   7
ENDBRANCH   1   6
TORSDOF 4
ENDMDL
