@<TRIPOS>MOLECULE
/home/cewinharhar/GITHUB/reincatalyze/data/processed/docking_pred/2023-Apr-25-2033_maxeplen5_maxtrainstep200_exh16_gamma099_lrac3e-4_lrcr1e-3/40246e00fe273733fff606c0d5025fbb5a6aafa7_ligand_2.pdbqt
 12 12 0 0 0
SMALL
GASTEIGER

@<TRIPOS>ATOM
      1  C          5.0500    1.7950    0.7480 C.3     1  UNL1        0.1270
      2  C          4.4820    1.1270    1.9490 C.2     1  UNL1        0.3030
      3  O          5.1470    0.2300    2.5220 O.2     1  UNL1       -0.2520
      4  O          3.2330    1.4580    2.4680 O.3     1  UNL1       -0.4810
      5  H          3.0330    2.3950    2.8480 H       1  UNL1        0.2960
      6  C          6.5480    1.7180    0.8540 C.3     1  UNL1        0.0470
      7  C          7.1600    0.9860   -0.2860 C.2     1  UNL1       -0.0470
      8  C          6.4350    0.0650   -1.0170 C.2     1  UNL1        0.0040
      9  C          8.4730    1.1870   -0.6690 C.2     1  UNL1        0.0040
     10  C          7.0140   -0.6100   -2.0740 C.2     1  UNL1        0.0000
     11  C          9.0520    0.5150   -1.7220 C.2     1  UNL1        0.0000
     12  C          8.3250   -0.4050   -2.4510 C.2     1  UNL1        0.0000
@<TRIPOS>BOND
     1    12    10    2
     2    12    11    1
     3    10     8    1
     4    11     9    2
     5     8     7    2
     6     9     7    1
     7     7     6    1
     8     1     6    1
     9     1     2    1
    10     2     4    1
    11     2     3    2
    12     4     5    1
