@<TRIPOS>MOLECULE
/home/cewinharhar/GITHUB/reincatalyze/data/processed/docking_pred/2023-Apr-25-2033_maxeplen5_maxtrainstep200_exh16_gamma099_lrac3e-4_lrcr1e-3/40246e00fe273733fff606c0d5025fbb5a6aafa7_ligand_2.pdbqt
 12 12 0 0 0
SMALL
GASTEIGER

@<TRIPOS>ATOM
      1  C          8.4470   -0.5300   -2.2440 C.3     1  UNL1        0.1270
      2  C          8.4760   -1.8540   -2.9170 C.2     1  UNL1        0.3030
      3  O          9.5720   -2.4480   -3.0530 O.2     1  UNL1       -0.2520
      4  O          7.3260   -2.4680   -3.4080 O.3     1  UNL1       -0.4810
      5  H          6.6210   -2.8850   -2.7800 H       1  UNL1        0.2960
      6  C          7.0140   -0.0740   -2.2020 C.3     1  UNL1        0.0470
      7  C          6.4980    0.0490   -0.8140 C.2     1  UNL1       -0.0470
      8  C          6.6260   -0.9860    0.0910 C.2     1  UNL1        0.0040
      9  C          5.8700    1.1940   -0.3620 C.2     1  UNL1        0.0040
     10  C          6.1420   -0.8610    1.3800 C.2     1  UNL1        0.0000
     11  C          5.3870    1.3210    0.9210 C.2     1  UNL1        0.0000
     12  C          5.5160    0.2850    1.8240 C.2     1  UNL1        0.0000
@<TRIPOS>BOND
     1     4     2    1
     2     4     5    1
     3     3     2    2
     4     2     1    1
     5     1     6    1
     6     6     7    1
     7     7     9    2
     8     7     8    1
     9     9    11    1
    10     8    10    2
    11    11    12    2
    12    10    12    1
