@<TRIPOS>MOLECULE
/home/cewinharhar/GITHUB/reincatalyze/data/processed/docking_pred/2023-Apr-25-2033_maxeplen5_maxtrainstep200_exh16_gamma099_lrac3e-4_lrcr1e-3/40246e00fe273733fff606c0d5025fbb5a6aafa7_ligand_2.pdbqt
 12 12 0 0 0
SMALL
GASTEIGER

@<TRIPOS>ATOM
      1  C          5.3300    2.9410    0.0980 C.3     1  UNL1        0.1270
      2  C          6.2190    3.8470    0.8700 C.2     1  UNL1        0.3030
      3  O          6.8540    4.7430    0.2650 O.2     1  UNL1       -0.2520
      4  O          6.3780    3.7410    2.2500 O.3     1  UNL1       -0.4810
      5  H          7.1110    3.1490    2.6690 H       1  UNL1        0.2960
      6  C          5.2330    1.6460    0.8570 C.3     1  UNL1        0.0470
      7  C          6.0320    0.5600    0.2320 C.2     1  UNL1       -0.0470
      8  C          6.3260    0.5740   -1.1180 C.2     1  UNL1        0.0040
      9  C          6.5190   -0.5080    0.9620 C.2     1  UNL1        0.0040
     10  C          7.0700   -0.4400   -1.6890 C.2     1  UNL1        0.0000
     11  C          7.2610   -1.5200    0.3950 C.2     1  UNL1        0.0000
     12  C          7.5520   -1.5040   -0.9540 C.2     1  UNL1        0.0000
@<TRIPOS>BOND
     1    10     8    1
     2    10    12    2
     3     8     7    2
     4    12    11    1
     5     1     6    1
     6     1     2    1
     7     7     6    1
     8     7     9    1
     9     3     2    2
    10    11     9    2
    11     2     4    1
    12     4     5    1
