@<TRIPOS>MOLECULE
/home/cewinharhar/GITHUB/reincatalyze/data/processed/docking_pred/2023-Apr-25-2033_maxeplen5_maxtrainstep200_exh16_gamma099_lrac3e-4_lrcr1e-3/40246e00fe273733fff606c0d5025fbb5a6aafa7_ligand_2.pdbqt
 12 12 0 0 0
SMALL
GASTEIGER

@<TRIPOS>ATOM
      1  C          7.3280   -1.4290   -2.1430 C.3     1  UNL1        0.1270
      2  C          8.7740   -1.3880   -2.4800 C.2     1  UNL1        0.3030
      3  O          9.2670   -2.3090   -3.1760 O.2     1  UNL1       -0.2520
      4  O          9.6130   -0.3630   -2.0510 O.3     1  UNL1       -0.4810
      5  H          9.3060    0.6220   -2.0370 H       1  UNL1        0.2960
      6  C          7.2120   -1.4800   -0.6450 C.3     1  UNL1        0.0470
      7  C          6.4440   -0.3330   -0.0950 C.2     1  UNL1       -0.0470
      8  C          5.9730   -0.3440    1.2040 C.2     1  UNL1        0.0040
      9  C          6.1640    0.7930   -0.8470 C.2     1  UNL1        0.0040
     10  C          5.2590    0.7280    1.7050 C.2     1  UNL1        0.0000
     11  C          5.4530    1.8620   -0.3490 C.2     1  UNL1        0.0000
     12  C          4.9830    1.8480    0.9490 C.2     1  UNL1        0.0000
@<TRIPOS>BOND
     1     3     2    2
     2     2     1    1
     3     2     4    1
     4     1     6    1
     5     4     5    1
     6     9    11    1
     7     9     7    2
     8     6     7    1
     9    11    12    2
    10     7     8    1
    11    12    10    1
    12     8    10    2
