@<TRIPOS>MOLECULE
/home/cewinharhar/GITHUB/reincatalyze/data/processed/docking_pred/2023-Apr-25-2033_maxeplen5_maxtrainstep200_exh16_gamma099_lrac3e-4_lrcr1e-3/404021d27c656f8fbd9408a440432f577c9906d0_ligand_2.pdbqt
 12 12 0 0 0
SMALL
GASTEIGER

@<TRIPOS>ATOM
      1  C          8.4680   -0.6350   -2.1530 C.3     1  UNL1        0.1270
      2  C          8.4460   -1.9140   -2.9080 C.2     1  UNL1        0.3030
      3  O          7.3420   -2.4190   -3.2260 O.2     1  UNL1       -0.2520
      4  O          9.6100   -2.5820   -3.2810 O.3     1  UNL1       -0.4810
      5  H          9.5990   -3.3530   -3.9650 H       1  UNL1        0.2960
      6  C          7.0490   -0.1500   -2.0430 C.3     1  UNL1        0.0470
      7  C          6.5620   -0.1350   -0.6380 C.2     1  UNL1       -0.0470
      8  C          6.7770   -1.2070    0.2050 C.2     1  UNL1        0.0040
      9  C          5.8770    0.9430   -0.1090 C.2     1  UNL1        0.0040
     10  C          6.3190   -1.1820    1.5090 C.2     1  UNL1        0.0000
     11  C          5.4210    0.9710    1.1900 C.2     1  UNL1        0.0000
     12  C          5.6360   -0.1030    2.0300 C.2     1  UNL1        0.0000
@<TRIPOS>BOND
     1     5     4    1
     2     4     2    1
     3     3     2    2
     4     2     1    1
     5     1     6    1
     6     6     7    1
     7     7     9    2
     8     7     8    1
     9     9    11    1
    10     8    10    2
    11    11    12    2
    12    10    12    1
