@<TRIPOS>MOLECULE
/home/cewinharhar/GITHUB/reincatalyze/data/processed/docking_pred/2023-Apr-25-2033_maxeplen5_maxtrainstep200_exh16_gamma099_lrac3e-4_lrcr1e-3/404021d27c656f8fbd9408a440432f577c9906d0_ligand_2.pdbqt
 12 12 0 0 0
SMALL
GASTEIGER

@<TRIPOS>ATOM
      1  C          8.4850   -0.5730   -2.2220 C.3     1  UNL1        0.1270
      2  C          8.4790   -1.8650   -2.9550 C.2     1  UNL1        0.3030
      3  O          9.5590   -2.4850   -3.1130 O.2     1  UNL1       -0.2520
      4  O          7.3150   -2.4220   -3.4790 O.3     1  UNL1       -0.4810
      5  H          6.4010   -2.3060   -3.0160 H       1  UNL1        0.2960
      6  C          7.0590   -0.1070   -2.1130 C.3     1  UNL1        0.0470
      7  C          6.5730   -0.0910   -0.7090 C.2     1  UNL1       -0.0470
      8  C          5.9060    1.0040   -0.1950 C.2     1  UNL1        0.0040
      9  C          6.7590   -1.1610    0.1460 C.2     1  UNL1        0.0040
     10  C          5.4580    1.0080    1.1120 C.2     1  UNL1        0.0000
     11  C          6.3130   -1.1600    1.4490 C.2     1  UNL1        0.0000
     12  C          5.6480   -0.0630    1.9600 C.2     1  UNL1        0.0000
@<TRIPOS>BOND
     1     4     5    1
     2     4     2    1
     3     3     2    2
     4     2     1    1
     5     1     6    1
     6     6     7    1
     7     7     8    2
     8     7     9    1
     9     8    10    1
    10     9    11    2
    11    10    12    2
    12    11    12    1
