MODEL 1
REMARK VINA RESULT:      -7.3      0.000      0.000
REMARK SMILES O=C(O)CCc1ccccc1
REMARK SMILES IDX 4 1 2 2 1 3 3 4 5 6 6 7 7 8 11 9 8 10 10 11 9 12
REMARK H PARENT 3 5
REMARK Flexibility Score: inf
ROOT
ATOM      1  C   UNL     1       8.485  -0.573  -2.222  1.00  0.00     0.127 C 
ENDROOT
BRANCH   1   2
ATOM      2  C   UNL     1       8.479  -1.865  -2.955  1.00  0.00     0.303 C 
ATOM      3  O   UNL     1       9.559  -2.485  -3.113  1.00  0.00    -0.252 OA
BRANCH   2   4
ATOM      4  O   UNL     1       7.315  -2.422  -3.479  1.00  0.00    -0.481 OA
ATOM      5  H   UNL     1       6.401  -2.306  -3.016  1.00  0.00     0.296 HD
ENDBRANCH   2   4
ENDBRANCH   1   2
BRANCH   1   6
ATOM      6  C   UNL     1       7.059  -0.107  -2.113  1.00  0.00     0.047 C 
BRANCH   6   7
ATOM      7  C   UNL     1       6.573  -0.091  -0.709  1.00  0.00    -0.047 A 
ATOM      8  C   UNL     1       5.906   1.004  -0.195  1.00  0.00     0.004 A 
ATOM      9  C   UNL     1       6.759  -1.161   0.146  1.00  0.00     0.004 A 
ATOM     10  C   UNL     1       5.458   1.008   1.112  1.00  0.00     0.000 A 
ATOM     11  C   UNL     1       6.313  -1.160   1.449  1.00  0.00     0.000 A 
ATOM     12  C   UNL     1       5.648  -0.063   1.960  1.00  0.00     0.000 A 
ENDBRANCH   6   7
ENDBRANCH   1   6
TORSDOF 4
ENDMDL
MODEL 2
REMARK VINA RESULT:      -7.2      0.125      1.718
REMARK SMILES O=C(O)CCc1ccccc1
REMARK SMILES IDX 4 1 2 2 1 3 3 4 5 6 6 7 7 8 11 9 8 10 10 11 9 12
REMARK H PARENT 3 5
REMARK Flexibility Score: inf
ROOT
ATOM      1  C   UNL     1       8.468  -0.635  -2.153  1.00  0.00     0.127 C 
ENDROOT
BRANCH   1   2
ATOM      2  C   UNL     1       8.446  -1.914  -2.908  1.00  0.00     0.303 C 
ATOM      3  O   UNL     1       7.342  -2.419  -3.226  1.00  0.00    -0.252 OA
BRANCH   2   4
ATOM      4  O   UNL     1       9.610  -2.582  -3.281  1.00  0.00    -0.481 OA
ATOM      5  H   UNL     1       9.599  -3.353  -3.965  1.00  0.00     0.296 HD
ENDBRANCH   2   4
ENDBRANCH   1   2
BRANCH   1   6
ATOM      6  C   UNL     1       7.049  -0.150  -2.043  1.00  0.00     0.047 C 
BRANCH   6   7
ATOM      7  C   UNL     1       6.562  -0.135  -0.638  1.00  0.00    -0.047 A 
ATOM      8  C   UNL     1       6.777  -1.207   0.205  1.00  0.00     0.004 A 
ATOM      9  C   UNL     1       5.877   0.943  -0.109  1.00  0.00     0.004 A 
ATOM     10  C   UNL     1       6.319  -1.182   1.509  1.00  0.00     0.000 A 
ATOM     11  C   UNL     1       5.421   0.971   1.190  1.00  0.00     0.000 A 
ATOM     12  C   UNL     1       5.636  -0.103   2.030  1.00  0.00     0.000 A 
ENDBRANCH   6   7
ENDBRANCH   1   6
TORSDOF 4
ENDMDL
MODEL 3
REMARK VINA RESULT:      -6.6      3.239      4.925
REMARK SMILES O=C(O)CCc1ccccc1
REMARK SMILES IDX 4 1 2 2 1 3 3 4 5 6 6 7 7 8 11 9 8 10 10 11 9 12
REMARK H PARENT 3 5
REMARK Flexibility Score: inf
ROOT
ATOM      1  C   UNL     1       5.977  -0.763   1.804  1.00  0.00     0.127 C 
ENDROOT
BRANCH   1   2
ATOM      2  C   UNL     1       5.299   0.543   2.014  1.00  0.00     0.303 C 
ATOM      3  O   UNL     1       4.126   0.559   2.459  1.00  0.00    -0.252 OA
BRANCH   2   4
ATOM      4  O   UNL     1       5.917   1.759   1.735  1.00  0.00    -0.481 OA
ATOM      5  H   UNL     1       6.221   2.009   0.782  1.00  0.00     0.296 HD
ENDBRANCH   2   4
ENDBRANCH   1   2
BRANCH   1   6
ATOM      6  C   UNL     1       7.416  -0.478   1.476  1.00  0.00     0.047 C 
BRANCH   6   7
ATOM      7  C   UNL     1       7.663  -0.417   0.011  1.00  0.00    -0.047 A 
ATOM      8  C   UNL     1       8.588   0.458  -0.523  1.00  0.00     0.004 A 
ATOM      9  C   UNL     1       6.987  -1.227  -0.882  1.00  0.00     0.004 A 
ATOM     10  C   UNL     1       8.810   0.506  -1.886  1.00  0.00     0.000 A 
ATOM     11  C   UNL     1       7.206  -1.181  -2.241  1.00  0.00     0.000 A 
ATOM     12  C   UNL     1       8.131  -0.305  -2.772  1.00  0.00     0.000 A 
ENDBRANCH   6   7
ENDBRANCH   1   6
TORSDOF 4
ENDMDL
MODEL 4
REMARK VINA RESULT:      -6.5      3.122      4.885
REMARK SMILES O=C(O)CCc1ccccc1
REMARK SMILES IDX 4 1 2 2 1 3 3 4 5 6 6 7 7 8 11 9 8 10 10 11 9 12
REMARK H PARENT 3 5
REMARK Flexibility Score: inf
ROOT
ATOM      1  C   UNL     1       6.109   1.419   1.210  1.00  0.00     0.127 C 
ENDROOT
BRANCH   1   2
ATOM      2  C   UNL     1       5.240   0.544   2.039  1.00  0.00     0.303 C 
ATOM      3  O   UNL     1       5.660  -0.587   2.383  1.00  0.00    -0.252 OA
BRANCH   2   4
ATOM      4  O   UNL     1       3.969   0.931   2.455  1.00  0.00    -0.481 OA
ATOM      5  H   UNL     1       3.121   0.666   1.931  1.00  0.00     0.296 HD
ENDBRANCH   2   4
ENDBRANCH   1   2
BRANCH   1   6
ATOM      6  C   UNL     1       5.748   1.182  -0.230  1.00  0.00     0.047 C 
BRANCH   6   7
ATOM      7  C   UNL     1       6.833   0.500  -0.982  1.00  0.00    -0.047 A 
ATOM      8  C   UNL     1       6.585  -0.643  -1.717  1.00  0.00     0.004 A 
ATOM      9  C   UNL     1       8.133   0.971  -0.986  1.00  0.00     0.004 A 
ATOM     10  C   UNL     1       7.602  -1.268  -2.414  1.00  0.00     0.000 A 
ATOM     11  C   UNL     1       9.148   0.349  -1.679  1.00  0.00     0.000 A 
ATOM     12  C   UNL     1       8.897  -0.793  -2.413  1.00  0.00     0.000 A 
ENDBRANCH   6   7
ENDBRANCH   1   6
TORSDOF 4
ENDMDL
