@<TRIPOS>MOLECULE
/home/cewinharhar/GITHUB/reincatalyze/data/processed/docking_pred/2023-Apr-25-2033_maxeplen5_maxtrainstep200_exh16_gamma099_lrac3e-4_lrcr1e-3/404021d27c656f8fbd9408a440432f577c9906d0_ligand_2.pdbqt
 12 12 0 0 0
SMALL
GASTEIGER

@<TRIPOS>ATOM
      1  C          6.1090    1.4190    1.2100 C.3     1  UNL1        0.1270
      2  C          5.2400    0.5440    2.0390 C.2     1  UNL1        0.3030
      3  O          5.6600   -0.5870    2.3830 O.2     1  UNL1       -0.2520
      4  O          3.9690    0.9310    2.4550 O.3     1  UNL1       -0.4810
      5  H          3.1210    0.6660    1.9310 H       1  UNL1        0.2960
      6  C          5.7480    1.1820   -0.2300 C.3     1  UNL1        0.0470
      7  C          6.8330    0.5000   -0.9820 C.2     1  UNL1       -0.0470
      8  C          6.5850   -0.6430   -1.7170 C.2     1  UNL1        0.0040
      9  C          8.1330    0.9710   -0.9860 C.2     1  UNL1        0.0040
     10  C          7.6020   -1.2680   -2.4140 C.2     1  UNL1        0.0000
     11  C          9.1480    0.3490   -1.6790 C.2     1  UNL1        0.0000
     12  C          8.8970   -0.7930   -2.4130 C.2     1  UNL1        0.0000
@<TRIPOS>BOND
     1    10    12    2
     2    10     8    1
     3    12    11    1
     4     8     7    2
     5    11     9    2
     6     9     7    1
     7     7     6    1
     8     6     1    1
     9     1     2    1
    10     5     4    1
    11     2     3    2
    12     2     4    1
