@<TRIPOS>MOLECULE
/home/cewinharhar/GITHUB/reincatalyze/data/processed/docking_pred/2023-Apr-25-2033_maxeplen5_maxtrainstep200_exh16_gamma099_lrac3e-4_lrcr1e-3/404021d27c656f8fbd9408a440432f577c9906d0_ligand_2.pdbqt
 12 12 0 0 0
SMALL
GASTEIGER

@<TRIPOS>ATOM
      1  C          5.9770   -0.7630    1.8040 C.3     1  UNL1        0.1270
      2  C          5.2990    0.5430    2.0140 C.2     1  UNL1        0.3030
      3  O          4.1260    0.5590    2.4590 O.2     1  UNL1       -0.2520
      4  O          5.9170    1.7590    1.7350 O.3     1  UNL1       -0.4810
      5  H          6.2210    2.0090    0.7820 H       1  UNL1        0.2960
      6  C          7.4160   -0.4780    1.4760 C.3     1  UNL1        0.0470
      7  C          7.6630   -0.4170    0.0110 C.2     1  UNL1       -0.0470
      8  C          8.5880    0.4580   -0.5230 C.2     1  UNL1        0.0040
      9  C          6.9870   -1.2270   -0.8820 C.2     1  UNL1        0.0040
     10  C          8.8100    0.5060   -1.8860 C.2     1  UNL1        0.0000
     11  C          7.2060   -1.1810   -2.2410 C.2     1  UNL1        0.0000
     12  C          8.1310   -0.3050   -2.7720 C.2     1  UNL1        0.0000
@<TRIPOS>BOND
     1    12    11    2
     2    12    10    1
     3    11     9    1
     4    10     8    2
     5     9     7    2
     6     8     7    1
     7     7     6    1
     8     5     4    1
     9     6     1    1
    10     4     2    1
    11     1     2    1
    12     2     3    2
