@<TRIPOS>MOLECULE
/home/cewinharhar/GITHUB/reincatalyze/data/processed/docking_pred/2023-Apr-25-2033_maxeplen5_maxtrainstep200_exh16_gamma099_lrac3e-4_lrcr1e-3/41d0b72e0d67d5e9a3b384f9954b5fa92cfe5642_ligand_2.pdbqt
 12 12 0 0 0
SMALL
GASTEIGER

@<TRIPOS>ATOM
      1  C          8.2440    0.1630   -2.1900 C.3     1  UNL1        0.1270
      2  C          9.3680    0.3360   -1.2330 C.2     1  UNL1        0.3030
      3  O          9.4400   -0.4150   -0.2310 O.2     1  UNL1       -0.2520
      4  O         10.3530    1.3060   -1.4050 O.3     1  UNL1       -0.4810
      5  H         10.3910    1.9000   -2.2470 H       1  UNL1        0.2960
      6  C          7.1720   -0.6260   -1.4910 C.3     1  UNL1        0.0470
      7  C          6.3640    0.2110   -0.5650 C.2     1  UNL1       -0.0470
      8  C          6.1020   -0.2010    0.7270 C.2     1  UNL1        0.0040
      9  C          5.8390    1.4320   -0.9460 C.2     1  UNL1        0.0040
     10  C          5.3500    0.5850    1.5800 C.2     1  UNL1        0.0000
     11  C          5.0900    2.2160   -0.0980 C.2     1  UNL1        0.0000
     12  C          4.8290    1.8020    1.1930 C.2     1  UNL1        0.0000
@<TRIPOS>BOND
     1     5     4    1
     2     1     6    1
     3     1     2    1
     4     6     7    1
     5     4     2    1
     6     2     3    2
     7     9     7    2
     8     9    11    1
     9     7     8    1
    10    11    12    2
    11     8    10    2
    12    12    10    1
