@<TRIPOS>MOLECULE
/home/cewinharhar/GITHUB/reincatalyze/data/processed/docking_pred/2023-Apr-25-2033_maxeplen5_maxtrainstep200_exh16_gamma099_lrac3e-4_lrcr1e-3/41d0b72e0d67d5e9a3b384f9954b5fa92cfe5642_ligand_2.pdbqt
 12 12 0 0 0
SMALL
GASTEIGER

@<TRIPOS>ATOM
      1  C          8.4680   -0.6200   -2.1450 C.3     1  UNL1        0.1270
      2  C          8.4650   -1.8970   -2.9040 C.2     1  UNL1        0.3030
      3  O          9.5490   -2.5000   -3.0930 O.2     1  UNL1       -0.2520
      4  O          7.2990   -2.4580   -3.4190 O.3     1  UNL1       -0.4810
      5  H          7.1530   -2.5740   -4.4340 H       1  UNL1        0.2960
      6  C          7.0620   -0.0860   -2.1520 C.3     1  UNL1        0.0470
      7  C          6.5000    0.0510   -0.7820 C.2     1  UNL1       -0.0470
      8  C          6.6070   -0.9720    0.1400 C.2     1  UNL1        0.0040
      9  C          5.8500    1.1970   -0.3650 C.2     1  UNL1        0.0040
     10  C          6.0810   -0.8340    1.4110 C.2     1  UNL1        0.0000
     11  C          5.3260    1.3370    0.9010 C.2     1  UNL1        0.0000
     12  C          5.4330    0.3130    1.8200 C.2     1  UNL1        0.0000
@<TRIPOS>BOND
     1     5     4    1
     2     4     2    1
     3     3     2    2
     4     2     1    1
     5     6     1    1
     6     6     7    1
     7     7     9    2
     8     7     8    1
     9     9    11    1
    10     8    10    2
    11    11    12    2
    12    10    12    1
