MODEL 1
REMARK VINA RESULT:      -7.3      0.000      0.000
REMARK SMILES O=C(O)CCc1ccccc1
REMARK SMILES IDX 4 1 2 2 1 3 3 4 5 6 6 7 7 8 11 9 8 10 10 11 9 12
REMARK H PARENT 3 5
REMARK Flexibility Score: inf
ROOT
ATOM      1  C   UNL     1       8.468  -0.620  -2.145  1.00  0.00     0.127 C 
ENDROOT
BRANCH   1   2
ATOM      2  C   UNL     1       8.465  -1.897  -2.904  1.00  0.00     0.303 C 
ATOM      3  O   UNL     1       9.549  -2.500  -3.093  1.00  0.00    -0.252 OA
BRANCH   2   4
ATOM      4  O   UNL     1       7.299  -2.458  -3.419  1.00  0.00    -0.481 OA
ATOM      5  H   UNL     1       7.153  -2.574  -4.434  1.00  0.00     0.296 HD
ENDBRANCH   2   4
ENDBRANCH   1   2
BRANCH   1   6
ATOM      6  C   UNL     1       7.062  -0.086  -2.152  1.00  0.00     0.047 C 
BRANCH   6   7
ATOM      7  C   UNL     1       6.500   0.051  -0.782  1.00  0.00    -0.047 A 
ATOM      8  C   UNL     1       6.607  -0.972   0.140  1.00  0.00     0.004 A 
ATOM      9  C   UNL     1       5.850   1.197  -0.365  1.00  0.00     0.004 A 
ATOM     10  C   UNL     1       6.081  -0.834   1.411  1.00  0.00     0.000 A 
ATOM     11  C   UNL     1       5.326   1.337   0.901  1.00  0.00     0.000 A 
ATOM     12  C   UNL     1       5.433   0.313   1.820  1.00  0.00     0.000 A 
ENDBRANCH   6   7
ENDBRANCH   1   6
TORSDOF 4
ENDMDL
MODEL 2
REMARK VINA RESULT:      -7.3      0.030      1.420
REMARK SMILES O=C(O)CCc1ccccc1
REMARK SMILES IDX 4 1 2 2 1 3 3 4 5 6 6 7 7 8 11 9 8 10 10 11 9 12
REMARK H PARENT 3 5
REMARK Flexibility Score: inf
ROOT
ATOM      1  C   UNL     1       8.473  -0.604  -2.171  1.00  0.00     0.127 C 
ENDROOT
BRANCH   1   2
ATOM      2  C   UNL     1       8.476  -1.887  -2.920  1.00  0.00     0.303 C 
ATOM      3  O   UNL     1       9.558  -2.502  -3.078  1.00  0.00    -0.252 OA
BRANCH   2   4
ATOM      4  O   UNL     1       7.317  -2.440  -3.459  1.00  0.00    -0.481 OA
ATOM      5  H   UNL     1       7.103  -3.446  -3.372  1.00  0.00     0.296 HD
ENDBRANCH   2   4
ENDBRANCH   1   2
BRANCH   1   6
ATOM      6  C   UNL     1       7.062  -0.083  -2.170  1.00  0.00     0.047 C 
BRANCH   6   7
ATOM      7  C   UNL     1       6.510   0.056  -0.797  1.00  0.00    -0.047 A 
ATOM      8  C   UNL     1       5.857   1.207  -0.402  1.00  0.00     0.004 A 
ATOM      9  C   UNL     1       6.619  -0.950   0.145  1.00  0.00     0.004 A 
ATOM     10  C   UNL     1       5.347   1.326   0.877  1.00  0.00     0.000 A 
ATOM     11  C   UNL     1       6.112  -0.834   1.420  1.00  0.00     0.000 A 
ATOM     12  C   UNL     1       5.460   0.318   1.813  1.00  0.00     0.000 A 
ENDBRANCH   6   7
ENDBRANCH   1   6
TORSDOF 4
ENDMDL
MODEL 3
REMARK VINA RESULT:      -7.2      0.678      1.161
REMARK SMILES O=C(O)CCc1ccccc1
REMARK SMILES IDX 4 1 2 2 1 3 3 4 5 6 6 7 7 8 11 9 8 10 10 11 9 12
REMARK H PARENT 3 5
REMARK Flexibility Score: inf
ROOT
ATOM      1  C   UNL     1       8.389  -0.992  -1.756  1.00  0.00     0.127 C 
ENDROOT
BRANCH   1   2
ATOM      2  C   UNL     1       8.446  -2.045  -2.803  1.00  0.00     0.303 C 
ATOM      3  O   UNL     1       9.554  -2.557  -3.097  1.00  0.00    -0.252 OA
BRANCH   2   4
ATOM      4  O   UNL     1       7.312  -2.491  -3.477  1.00  0.00    -0.481 OA
ATOM      5  H   UNL     1       6.602  -1.837  -3.839  1.00  0.00     0.296 HD
ENDBRANCH   2   4
ENDBRANCH   1   2
BRANCH   1   6
ATOM      6  C   UNL     1       7.451  -1.472  -0.683  1.00  0.00     0.047 C 
BRANCH   6   7
ATOM      7  C   UNL     1       6.613  -0.376  -0.130  1.00  0.00    -0.047 A 
ATOM      8  C   UNL     1       6.128  -0.428   1.162  1.00  0.00     0.004 A 
ATOM      9  C   UNL     1       6.280   0.742  -0.873  1.00  0.00     0.004 A 
ATOM     10  C   UNL     1       5.349   0.597   1.666  1.00  0.00     0.000 A 
ATOM     11  C   UNL     1       5.505   1.764  -0.374  1.00  0.00     0.000 A 
ATOM     12  C   UNL     1       5.021   1.709   0.918  1.00  0.00     0.000 A 
ENDBRANCH   6   7
ENDBRANCH   1   6
TORSDOF 4
ENDMDL
MODEL 4
REMARK VINA RESULT:      -6.8      3.378      5.079
REMARK SMILES O=C(O)CCc1ccccc1
REMARK SMILES IDX 4 1 2 2 1 3 3 4 5 6 6 7 7 8 11 9 8 10 10 11 9 12
REMARK H PARENT 3 5
REMARK Flexibility Score: inf
ROOT
ATOM      1  C   UNL     1       5.004   1.751   0.696  1.00  0.00     0.127 C 
ENDROOT
BRANCH   1   2
ATOM      2  C   UNL     1       4.472   1.101   1.922  1.00  0.00     0.303 C 
ATOM      3  O   UNL     1       5.153   0.210   2.486  1.00  0.00    -0.252 OA
BRANCH   2   4
ATOM      4  O   UNL     1       3.241   1.442   2.476  1.00  0.00    -0.481 OA
ATOM      5  H   UNL     1       2.730   0.801   3.102  1.00  0.00     0.296 HD
ENDBRANCH   2   4
ENDBRANCH   1   2
BRANCH   1   6
ATOM      6  C   UNL     1       6.504   1.744   0.794  1.00  0.00     0.047 C 
BRANCH   6   7
ATOM      7  C   UNL     1       7.142   1.003  -0.325  1.00  0.00    -0.047 A 
ATOM      8  C   UNL     1       6.428   0.092  -1.079  1.00  0.00     0.004 A 
ATOM      9  C   UNL     1       8.470   1.185  -0.665  1.00  0.00     0.004 A 
ATOM     10  C   UNL     1       7.031  -0.592  -2.118  1.00  0.00     0.000 A 
ATOM     11  C   UNL     1       9.073   0.504  -1.700  1.00  0.00     0.000 A 
ATOM     12  C   UNL     1       8.357  -0.405  -2.451  1.00  0.00     0.000 A 
ENDBRANCH   6   7
ENDBRANCH   1   6
TORSDOF 4
ENDMDL
MODEL 5
REMARK VINA RESULT:      -6.6      1.929      2.319
REMARK SMILES O=C(O)CCc1ccccc1
REMARK SMILES IDX 4 1 2 2 1 3 3 4 5 6 6 7 7 8 11 9 8 10 10 11 9 12
REMARK H PARENT 3 5
REMARK Flexibility Score: inf
ROOT
ATOM      1  C   UNL     1       8.244   0.163  -2.190  1.00  0.00     0.127 C 
ENDROOT
BRANCH   1   2
ATOM      2  C   UNL     1       9.368   0.336  -1.233  1.00  0.00     0.303 C 
ATOM      3  O   UNL     1       9.440  -0.415  -0.231  1.00  0.00    -0.252 OA
BRANCH   2   4
ATOM      4  O   UNL     1      10.353   1.306  -1.405  1.00  0.00    -0.481 OA
ATOM      5  H   UNL     1      10.391   1.900  -2.247  1.00  0.00     0.296 HD
ENDBRANCH   2   4
ENDBRANCH   1   2
BRANCH   1   6
ATOM      6  C   UNL     1       7.172  -0.626  -1.491  1.00  0.00     0.047 C 
BRANCH   6   7
ATOM      7  C   UNL     1       6.364   0.211  -0.565  1.00  0.00    -0.047 A 
ATOM      8  C   UNL     1       6.102  -0.201   0.727  1.00  0.00     0.004 A 
ATOM      9  C   UNL     1       5.839   1.432  -0.946  1.00  0.00     0.004 A 
ATOM     10  C   UNL     1       5.350   0.585   1.580  1.00  0.00     0.000 A 
ATOM     11  C   UNL     1       5.090   2.216  -0.098  1.00  0.00     0.000 A 
ATOM     12  C   UNL     1       4.829   1.802   1.193  1.00  0.00     0.000 A 
ENDBRANCH   6   7
ENDBRANCH   1   6
TORSDOF 4
ENDMDL
