@<TRIPOS>MOLECULE
/home/cewinharhar/GITHUB/reincatalyze/data/processed/docking_pred/2023-Apr-25-2033_maxeplen5_maxtrainstep200_exh16_gamma099_lrac3e-4_lrcr1e-3/41d0b72e0d67d5e9a3b384f9954b5fa92cfe5642_ligand_2.pdbqt
 12 12 0 0 0
SMALL
GASTEIGER

@<TRIPOS>ATOM
      1  C          5.0040    1.7510    0.6960 C.3     1  UNL1        0.1270
      2  C          4.4720    1.1010    1.9220 C.2     1  UNL1        0.3030
      3  O          5.1530    0.2100    2.4860 O.2     1  UNL1       -0.2520
      4  O          3.2410    1.4420    2.4760 O.3     1  UNL1       -0.4810
      5  H          2.7300    0.8010    3.1020 H       1  UNL1        0.2960
      6  C          6.5040    1.7440    0.7940 C.3     1  UNL1        0.0470
      7  C          7.1420    1.0030   -0.3250 C.2     1  UNL1       -0.0470
      8  C          6.4280    0.0920   -1.0790 C.2     1  UNL1        0.0040
      9  C          8.4700    1.1850   -0.6650 C.2     1  UNL1        0.0040
     10  C          7.0310   -0.5920   -2.1180 C.2     1  UNL1        0.0000
     11  C          9.0730    0.5040   -1.7000 C.2     1  UNL1        0.0000
     12  C          8.3570   -0.4050   -2.4510 C.2     1  UNL1        0.0000
@<TRIPOS>BOND
     1    12    10    2
     2    12    11    1
     3    10     8    1
     4    11     9    2
     5     8     7    2
     6     9     7    1
     7     7     6    1
     8     1     6    1
     9     1     2    1
    10     2     4    1
    11     2     3    2
    12     4     5    1
