@<TRIPOS>MOLECULE
/home/cewinharhar/GITHUB/reincatalyze/data/processed/docking_pred/2023-Apr-25-2033_maxeplen5_maxtrainstep200_exh16_gamma099_lrac3e-4_lrcr1e-3/41d0b72e0d67d5e9a3b384f9954b5fa92cfe5642_ligand_2.pdbqt
 12 12 0 0 0
SMALL
GASTEIGER

@<TRIPOS>ATOM
      1  C          8.3890   -0.9920   -1.7560 C.3     1  UNL1        0.1270
      2  C          8.4460   -2.0450   -2.8030 C.2     1  UNL1        0.3030
      3  O          9.5540   -2.5570   -3.0970 O.2     1  UNL1       -0.2520
      4  O          7.3120   -2.4910   -3.4770 O.3     1  UNL1       -0.4810
      5  H          6.6020   -1.8370   -3.8390 H       1  UNL1        0.2960
      6  C          7.4510   -1.4720   -0.6830 C.3     1  UNL1        0.0470
      7  C          6.6130   -0.3760   -0.1300 C.2     1  UNL1       -0.0470
      8  C          6.1280   -0.4280    1.1620 C.2     1  UNL1        0.0040
      9  C          6.2800    0.7420   -0.8730 C.2     1  UNL1        0.0040
     10  C          5.3490    0.5970    1.6660 C.2     1  UNL1        0.0000
     11  C          5.5050    1.7640   -0.3740 C.2     1  UNL1        0.0000
     12  C          5.0210    1.7090    0.9180 C.2     1  UNL1        0.0000
@<TRIPOS>BOND
     1     5     4    1
     2     4     2    1
     3     3     2    2
     4     2     1    1
     5     1     6    1
     6     9    11    1
     7     9     7    2
     8     6     7    1
     9    11    12    2
    10     7     8    1
    11    12    10    1
    12     8    10    2
