@<TRIPOS>MOLECULE
/home/cewinharhar/GITHUB/reincatalyze/data/processed/docking_pred/2023-Apr-25-2033_maxeplen5_maxtrainstep200_exh16_gamma099_lrac3e-4_lrcr1e-3/41d0b72e0d67d5e9a3b384f9954b5fa92cfe5642_ligand_2.pdbqt
 12 12 0 0 0
SMALL
GASTEIGER

@<TRIPOS>ATOM
      1  C          8.4730   -0.6040   -2.1710 C.3     1  UNL1        0.1270
      2  C          8.4760   -1.8870   -2.9200 C.2     1  UNL1        0.3030
      3  O          9.5580   -2.5020   -3.0780 O.2     1  UNL1       -0.2520
      4  O          7.3170   -2.4400   -3.4590 O.3     1  UNL1       -0.4810
      5  H          7.1030   -3.4460   -3.3720 H       1  UNL1        0.2960
      6  C          7.0620   -0.0830   -2.1700 C.3     1  UNL1        0.0470
      7  C          6.5100    0.0560   -0.7970 C.2     1  UNL1       -0.0470
      8  C          5.8570    1.2070   -0.4020 C.2     1  UNL1        0.0040
      9  C          6.6190   -0.9500    0.1450 C.2     1  UNL1        0.0040
     10  C          5.3470    1.3260    0.8770 C.2     1  UNL1        0.0000
     11  C          6.1120   -0.8340    1.4200 C.2     1  UNL1        0.0000
     12  C          5.4600    0.3180    1.8130 C.2     1  UNL1        0.0000
@<TRIPOS>BOND
     1     4     5    1
     2     4     2    1
     3     3     2    2
     4     2     1    1
     5     1     6    1
     6     6     7    1
     7     7     8    2
     8     7     9    1
     9     8    10    1
    10     9    11    2
    11    10    12    2
    12    11    12    1
