@<TRIPOS>MOLECULE
/home/cewinharhar/GITHUB/reincatalyze/data/processed/docking_pred/2023-Apr-25-2033_maxeplen5_maxtrainstep200_exh16_gamma099_lrac3e-4_lrcr1e-3/42234a6127519c7502e2f6bf4b16ee47cf11c698_ligand_2.pdbqt
 12 12 0 0 0
SMALL
GASTEIGER

@<TRIPOS>ATOM
      1  C          8.4570   -0.5880   -2.1810 C.3     1  UNL1        0.1270
      2  C          8.4610   -1.8800   -2.9140 C.2     1  UNL1        0.3030
      3  O          9.5490   -2.4820   -3.0880 O.2     1  UNL1       -0.2520
      4  O          7.2990   -2.4570   -3.4190 O.3     1  UNL1       -0.4810
      5  H          6.4900   -2.6680   -2.8150 H       1  UNL1        0.2960
      6  C          7.0430   -0.0770   -2.1710 C.3     1  UNL1        0.0470
      7  C          6.4980    0.0600   -0.7950 C.2     1  UNL1       -0.0470
      8  C          6.6060   -0.9670    0.1230 C.2     1  UNL1        0.0040
      9  C          5.8640    1.2110   -0.3670 C.2     1  UNL1        0.0040
     10  C          6.0960   -0.8280    1.4000 C.2     1  UNL1        0.0000
     11  C          5.3550    1.3520    0.9050 C.2     1  UNL1        0.0000
     12  C          5.4640    0.3240    1.8200 C.2     1  UNL1        0.0000
@<TRIPOS>BOND
     1     4     2    1
     2     4     5    1
     3     3     2    2
     4     2     1    1
     5     1     6    1
     6     6     7    1
     7     7     9    2
     8     7     8    1
     9     9    11    1
    10     8    10    2
    11    11    12    2
    12    10    12    1
