@<TRIPOS>MOLECULE
/home/cewinharhar/GITHUB/reincatalyze/data/processed/docking_pred/2023-Apr-25-2033_maxeplen5_maxtrainstep200_exh16_gamma099_lrac3e-4_lrcr1e-3/42234a6127519c7502e2f6bf4b16ee47cf11c698_ligand_2.pdbqt
 12 12 0 0 0
SMALL
GASTEIGER

@<TRIPOS>ATOM
      1  C          5.0160    1.7970    0.7330 C.3     1  UNL1        0.1270
      2  C          4.4640    1.1150    1.9330 C.2     1  UNL1        0.3030
      3  O          5.1300    0.2020    2.4780 O.2     1  UNL1       -0.2520
      4  O          3.2300    1.4510    2.4820 O.3     1  UNL1       -0.4810
      5  H          2.3550    1.0010    2.1720 H       1  UNL1        0.2960
      6  C          6.5150    1.7500    0.8350 C.3     1  UNL1        0.0470
      7  C          7.1380    1.0070   -0.2920 C.2     1  UNL1       -0.0470
      8  C          6.4200    0.0770   -1.0180 C.2     1  UNL1        0.0040
      9  C          8.4530    1.2080   -0.6680 C.2     1  UNL1        0.0040
     10  C          7.0090   -0.6090   -2.0640 C.2     1  UNL1        0.0000
     11  C          9.0410    0.5270   -1.7100 C.2     1  UNL1        0.0000
     12  C          8.3220   -0.4030   -2.4340 C.2     1  UNL1        0.0000
@<TRIPOS>BOND
     1    12    10    2
     2    12    11    1
     3    10     8    1
     4    11     9    2
     5     8     7    2
     6     9     7    1
     7     7     6    1
     8     1     6    1
     9     1     2    1
    10     2     3    2
    11     2     4    1
    12     5     4    1
