@<TRIPOS>MOLECULE
/home/cewinharhar/GITHUB/reincatalyze/data/processed/docking_pred/2023-Apr-25-2033_maxeplen5_maxtrainstep200_exh16_gamma099_lrac3e-4_lrcr1e-3/42234a6127519c7502e2f6bf4b16ee47cf11c698_ligand_2.pdbqt
 12 12 0 0 0
SMALL
GASTEIGER

@<TRIPOS>ATOM
      1  C          8.4510   -0.5740   -2.2040 C.3     1  UNL1        0.1270
      2  C          8.4600   -1.8720   -2.9260 C.2     1  UNL1        0.3030
      3  O          9.5500   -2.4710   -3.0950 O.2     1  UNL1       -0.2520
      4  O          7.3000   -2.4570   -3.4270 O.3     1  UNL1       -0.4810
      5  H          6.8590   -2.1290   -4.3000 H       1  UNL1        0.2960
      6  C          7.0320   -0.0780   -2.1810 C.3     1  UNL1        0.0470
      7  C          6.4970    0.0480   -0.7990 C.2     1  UNL1       -0.0470
      8  C          5.8640    1.2020   -0.3800 C.2     1  UNL1        0.0040
      9  C          6.6040   -0.9720    0.1270 C.2     1  UNL1        0.0040
     10  C          5.3700    1.3090    0.9060 C.2     1  UNL1        0.0000
     11  C          6.1130   -0.8680    1.4090 C.2     1  UNL1        0.0000
     12  C          5.4810    0.2860    1.8260 C.2     1  UNL1        0.0000
@<TRIPOS>BOND
     1     5     4    1
     2     4     2    1
     3     3     2    2
     4     2     1    1
     5     1     6    1
     6     6     7    1
     7     7     8    2
     8     7     9    1
     9     8    10    1
    10     9    11    2
    11    10    12    2
    12    11    12    1
