@<TRIPOS>MOLECULE
/home/cewinharhar/GITHUB/reincatalyze/data/processed/docking_pred/2023-Apr-25-2033_maxeplen5_maxtrainstep200_exh16_gamma099_lrac3e-4_lrcr1e-3/42234a6127519c7502e2f6bf4b16ee47cf11c698_ligand_2.pdbqt
 12 12 0 0 0
SMALL
GASTEIGER

@<TRIPOS>ATOM
      1  C          8.2650   -1.5780    1.0440 C.3     1  UNL1        0.1270
      2  C          8.4940   -2.8170    0.2550 C.2     1  UNL1        0.3030
      3  O          9.0810   -3.7860    0.7940 O.2     1  UNL1       -0.2520
      4  O          8.0790   -2.9470   -1.0670 O.3     1  UNL1       -0.4810
      5  H          8.7490   -3.1200   -1.8330 H       1  UNL1        0.2960
      6  C          6.7880   -1.4730    1.3030 C.3     1  UNL1        0.0470
      7  C          6.2100   -0.2050    0.7840 C.2     1  UNL1       -0.0470
      8  C          5.4480    0.6170    1.5910 C.2     1  UNL1        0.0040
      9  C          6.4050    0.2130   -0.5190 C.2     1  UNL1        0.0040
     10  C          4.9150    1.7930    1.0980 C.2     1  UNL1        0.0000
     11  C          5.8760    1.3850   -1.0120 C.2     1  UNL1        0.0000
     12  C          5.1140    2.2040   -0.2040 C.2     1  UNL1        0.0000
@<TRIPOS>BOND
     1     5     4    1
     2     4     2    1
     3    11     9    1
     4    11    12    2
     5     9     7    2
     6    12    10    1
     7     2     3    2
     8     2     1    1
     9     7     6    1
    10     7     8    1
    11     1     6    1
    12    10     8    2
