@<TRIPOS>MOLECULE
/home/cewinharhar/GITHUB/reincatalyze/data/processed/docking_pred/2023-Apr-25-2033_maxeplen5_maxtrainstep200_exh16_gamma099_lrac3e-4_lrcr1e-3/42234a6127519c7502e2f6bf4b16ee47cf11c698_ligand_2.pdbqt
 12 12 0 0 0
SMALL
GASTEIGER

@<TRIPOS>ATOM
      1  C          5.3370    2.9480    0.0600 C.3     1  UNL1        0.1270
      2  C          6.2160    3.8510    0.8480 C.2     1  UNL1        0.3030
      3  O          6.8620    4.7480    0.2540 O.2     1  UNL1       -0.2520
      4  O          6.3530    3.7410    2.2290 O.3     1  UNL1       -0.4810
      5  H          5.5710    3.9410    2.8710 H       1  UNL1        0.2960
      6  C          5.2340    1.6490    0.8090 C.3     1  UNL1        0.0470
      7  C          6.0250    0.5630    0.1730 C.2     1  UNL1       -0.0470
      8  C          6.4710   -0.5210    0.9050 C.2     1  UNL1        0.0040
      9  C          6.3510    0.5800   -1.1710 C.2     1  UNL1        0.0040
     10  C          7.2050   -1.5250    0.3030 C.2     1  UNL1        0.0000
     11  C          7.0830   -0.4190   -1.7720 C.2     1  UNL1        0.0000
     12  C          7.5270   -1.5000   -1.0380 C.2     1  UNL1        0.0000
@<TRIPOS>BOND
     1    11     9    1
     2    11    12    2
     3     9     7    2
     4    12    10    1
     5     1     6    1
     6     1     2    1
     7     7     6    1
     8     7     8    1
     9     3     2    2
    10    10     8    2
    11     2     4    1
    12     4     5    1
