@<TRIPOS>MOLECULE
/home/cewinharhar/GITHUB/reincatalyze/data/processed/docking_pred/2023-Apr-25-2033_maxeplen5_maxtrainstep200_exh16_gamma099_lrac3e-4_lrcr1e-3/4295960a5818388fac6ce93a10a8a6662c8ec52f_ligand_2.pdbqt
 12 12 0 0 0
SMALL
GASTEIGER

@<TRIPOS>ATOM
      1  C          8.4370   -0.6360   -2.1040 C.3     1  UNL1        0.1270
      2  C          8.4160   -1.9040   -2.8780 C.2     1  UNL1        0.3030
      3  O          7.3130   -2.4060   -3.2020 O.2     1  UNL1       -0.2520
      4  O          9.5810   -2.5650   -3.2620 O.3     1  UNL1       -0.4810
      5  H          9.7180   -3.5720   -3.0880 H       1  UNL1        0.2960
      6  C          7.0460   -0.0650   -2.1330 C.3     1  UNL1        0.0470
      7  C          6.4710    0.0970   -0.7720 C.2     1  UNL1       -0.0470
      8  C          6.5730   -0.9060    0.1720 C.2     1  UNL1        0.0040
      9  C          5.8130    1.2490   -0.3840 C.2     1  UNL1        0.0040
     10  C          6.0350   -0.7450    1.4350 C.2     1  UNL1        0.0000
     11  C          5.2760    1.4130    0.8730 C.2     1  UNL1        0.0000
     12  C          5.3780    0.4080    1.8140 C.2     1  UNL1        0.0000
@<TRIPOS>BOND
     1     4     5    1
     2     4     2    1
     3     3     2    2
     4     2     1    1
     5     6     1    1
     6     6     7    1
     7     7     9    2
     8     7     8    1
     9     9    11    1
    10     8    10    2
    11    11    12    2
    12    10    12    1
