MODEL 1
REMARK VINA RESULT:      -7.3      0.000      0.000
REMARK SMILES O=C(O)CCc1ccccc1
REMARK SMILES IDX 4 1 2 2 1 3 3 4 5 6 6 7 7 8 11 9 8 10 10 11 9 12
REMARK H PARENT 3 5
REMARK Flexibility Score: inf
ROOT
ATOM      1  C   UNL     1       8.437  -0.636  -2.104  1.00  0.00     0.127 C 
ENDROOT
BRANCH   1   2
ATOM      2  C   UNL     1       8.416  -1.904  -2.878  1.00  0.00     0.303 C 
ATOM      3  O   UNL     1       7.313  -2.406  -3.202  1.00  0.00    -0.252 OA
BRANCH   2   4
ATOM      4  O   UNL     1       9.581  -2.565  -3.262  1.00  0.00    -0.481 OA
ATOM      5  H   UNL     1       9.718  -3.572  -3.088  1.00  0.00     0.296 HD
ENDBRANCH   2   4
ENDBRANCH   1   2
BRANCH   1   6
ATOM      6  C   UNL     1       7.046  -0.065  -2.133  1.00  0.00     0.047 C 
BRANCH   6   7
ATOM      7  C   UNL     1       6.471   0.097  -0.772  1.00  0.00    -0.047 A 
ATOM      8  C   UNL     1       6.573  -0.906   0.172  1.00  0.00     0.004 A 
ATOM      9  C   UNL     1       5.813   1.249  -0.384  1.00  0.00     0.004 A 
ATOM     10  C   UNL     1       6.035  -0.745   1.435  1.00  0.00     0.000 A 
ATOM     11  C   UNL     1       5.276   1.413   0.873  1.00  0.00     0.000 A 
ATOM     12  C   UNL     1       5.378   0.408   1.814  1.00  0.00     0.000 A 
ENDBRANCH   6   7
ENDBRANCH   1   6
TORSDOF 4
ENDMDL
MODEL 2
REMARK VINA RESULT:      -7.2      0.078      1.421
REMARK SMILES O=C(O)CCc1ccccc1
REMARK SMILES IDX 4 1 2 2 1 3 3 4 5 6 6 7 7 8 11 9 8 10 10 11 9 12
REMARK H PARENT 3 5
REMARK Flexibility Score: inf
ROOT
ATOM      1  C   UNL     1       8.447  -0.595  -2.170  1.00  0.00     0.127 C 
ENDROOT
BRANCH   1   2
ATOM      2  C   UNL     1       8.434  -1.892  -2.895  1.00  0.00     0.303 C 
ATOM      3  O   UNL     1       7.334  -2.414  -3.197  1.00  0.00    -0.252 OA
BRANCH   2   4
ATOM      4  O   UNL     1       9.602  -2.558  -3.257  1.00  0.00    -0.481 OA
ATOM      5  H   UNL     1      10.188  -2.240  -4.044  1.00  0.00     0.296 HD
ENDBRANCH   2   4
ENDBRANCH   1   2
BRANCH   1   6
ATOM      6  C   UNL     1       7.038  -0.070  -2.157  1.00  0.00     0.047 C 
BRANCH   6   7
ATOM      7  C   UNL     1       6.492   0.058  -0.781  1.00  0.00    -0.047 A 
ATOM      8  C   UNL     1       5.848   1.209  -0.371  1.00  0.00     0.004 A 
ATOM      9  C   UNL     1       6.598  -0.959   0.150  1.00  0.00     0.004 A 
ATOM     10  C   UNL     1       5.343   1.317   0.911  1.00  0.00     0.000 A 
ATOM     11  C   UNL     1       6.096  -0.853   1.428  1.00  0.00     0.000 A 
ATOM     12  C   UNL     1       5.454   0.299   1.835  1.00  0.00     0.000 A 
ENDBRANCH   6   7
ENDBRANCH   1   6
TORSDOF 4
ENDMDL
MODEL 3
REMARK VINA RESULT:      -6.8      0.660      1.620
REMARK SMILES O=C(O)CCc1ccccc1
REMARK SMILES IDX 4 1 2 2 1 3 3 4 5 6 6 7 7 8 11 9 8 10 10 11 9 12
REMARK H PARENT 3 5
REMARK Flexibility Score: inf
ROOT
ATOM      1  C   UNL     1       8.433  -1.213  -1.494  1.00  0.00     0.127 C 
ENDROOT
BRANCH   1   2
ATOM      2  C   UNL     1       8.443  -2.098  -2.688  1.00  0.00     0.303 C 
ATOM      3  O   UNL     1       7.352  -2.468  -3.185  1.00  0.00    -0.252 OA
BRANCH   2   4
ATOM      4  O   UNL     1       9.623  -2.536  -3.283  1.00  0.00    -0.481 OA
ATOM      5  H   UNL     1      10.533  -2.469  -2.802  1.00  0.00     0.296 HD
ENDBRANCH   2   4
ENDBRANCH   1   2
BRANCH   1   6
ATOM      6  C   UNL     1       7.268  -1.624  -0.636  1.00  0.00     0.047 C 
BRANCH   6   7
ATOM      7  C   UNL     1       6.519  -0.458  -0.100  1.00  0.00    -0.047 A 
ATOM      8  C   UNL     1       6.287   0.661  -0.876  1.00  0.00     0.004 A 
ATOM      9  C   UNL     1       6.018  -0.434   1.188  1.00  0.00     0.004 A 
ATOM     10  C   UNL     1       5.589   1.740  -0.368  1.00  0.00     0.000 A 
ATOM     11  C   UNL     1       5.322   0.639   1.697  1.00  0.00     0.000 A 
ATOM     12  C   UNL     1       5.093   1.757   0.920  1.00  0.00     0.000 A 
ENDBRANCH   6   7
ENDBRANCH   1   6
TORSDOF 4
ENDMDL
MODEL 4
REMARK VINA RESULT:      -6.8      3.301      5.176
REMARK SMILES O=C(O)CCc1ccccc1
REMARK SMILES IDX 4 1 2 2 1 3 3 4 5 6 6 7 7 8 11 9 8 10 10 11 9 12
REMARK H PARENT 3 5
REMARK Flexibility Score: inf
ROOT
ATOM      1  C   UNL     1       5.000   1.769   0.691  1.00  0.00     0.127 C 
ENDROOT
BRANCH   1   2
ATOM      2  C   UNL     1       4.471   1.117   1.917  1.00  0.00     0.303 C 
ATOM      3  O   UNL     1       5.154   0.228   2.481  1.00  0.00    -0.252 OA
BRANCH   2   4
ATOM      4  O   UNL     1       3.239   1.456   2.472  1.00  0.00    -0.481 OA
ATOM      5  H   UNL     1       2.808   2.379   2.316  1.00  0.00     0.296 HD
ENDBRANCH   2   4
ENDBRANCH   1   2
BRANCH   1   6
ATOM      6  C   UNL     1       6.500   1.766   0.788  1.00  0.00     0.047 C 
BRANCH   6   7
ATOM      7  C   UNL     1       7.138   1.002  -0.316  1.00  0.00    -0.047 A 
ATOM      8  C   UNL     1       8.461   1.209  -0.658  1.00  0.00     0.004 A 
ATOM      9  C   UNL     1       6.449   0.054  -1.049  1.00  0.00     0.004 A 
ATOM     10  C   UNL     1       9.044   0.493  -1.686  1.00  0.00     0.000 A 
ATOM     11  C   UNL     1       7.028  -0.661  -2.073  1.00  0.00     0.000 A 
ATOM     12  C   UNL     1       8.349  -0.451  -2.414  1.00  0.00     0.000 A 
ENDBRANCH   6   7
ENDBRANCH   1   6
TORSDOF 4
ENDMDL
MODEL 5
REMARK VINA RESULT:      -6.5      3.697      5.108
REMARK SMILES O=C(O)CCc1ccccc1
REMARK SMILES IDX 4 1 2 2 1 3 3 4 5 6 6 7 7 8 11 9 8 10 10 11 9 12
REMARK H PARENT 3 5
REMARK Flexibility Score: inf
ROOT
ATOM      1  C   UNL     1       5.387   2.964   0.043  1.00  0.00     0.127 C 
ENDROOT
BRANCH   1   2
ATOM      2  C   UNL     1       6.244   3.869   0.852  1.00  0.00     0.303 C 
ATOM      3  O   UNL     1       6.894   4.775   0.277  1.00  0.00    -0.252 OA
BRANCH   2   4
ATOM      4  O   UNL     1       6.355   3.753   2.235  1.00  0.00    -0.481 OA
ATOM      5  H   UNL     1       5.592   3.367   2.813  1.00  0.00     0.296 HD
ENDBRANCH   2   4
ENDBRANCH   1   2
BRANCH   1   6
ATOM      6  C   UNL     1       5.209   1.691   0.823  1.00  0.00     0.047 C 
BRANCH   6   7
ATOM      7  C   UNL     1       6.006   0.567   0.265  1.00  0.00    -0.047 A 
ATOM      8  C   UNL     1       6.369   0.540  -1.068  1.00  0.00     0.004 A 
ATOM      9  C   UNL     1       6.422  -0.497   1.043  1.00  0.00     0.004 A 
ATOM     10  C   UNL     1       7.110  -0.510  -1.576  1.00  0.00     0.000 A 
ATOM     11  C   UNL     1       7.161  -1.544   0.539  1.00  0.00     0.000 A 
ATOM     12  C   UNL     1       7.521  -1.569  -0.793  1.00  0.00     0.000 A 
ENDBRANCH   6   7
ENDBRANCH   1   6
TORSDOF 4
ENDMDL
