@<TRIPOS>MOLECULE
/home/cewinharhar/GITHUB/reincatalyze/data/processed/docking_pred/2023-Apr-25-2033_maxeplen5_maxtrainstep200_exh16_gamma099_lrac3e-4_lrcr1e-3/4295960a5818388fac6ce93a10a8a6662c8ec52f_ligand_2.pdbqt
 12 12 0 0 0
SMALL
GASTEIGER

@<TRIPOS>ATOM
      1  C          8.4470   -0.5950   -2.1700 C.3     1  UNL1        0.1270
      2  C          8.4340   -1.8920   -2.8950 C.2     1  UNL1        0.3030
      3  O          7.3340   -2.4140   -3.1970 O.2     1  UNL1       -0.2520
      4  O          9.6020   -2.5580   -3.2570 O.3     1  UNL1       -0.4810
      5  H         10.1880   -2.2400   -4.0440 H       1  UNL1        0.2960
      6  C          7.0380   -0.0700   -2.1570 C.3     1  UNL1        0.0470
      7  C          6.4920    0.0580   -0.7810 C.2     1  UNL1       -0.0470
      8  C          5.8480    1.2090   -0.3710 C.2     1  UNL1        0.0040
      9  C          6.5980   -0.9590    0.1500 C.2     1  UNL1        0.0040
     10  C          5.3430    1.3170    0.9110 C.2     1  UNL1        0.0000
     11  C          6.0960   -0.8530    1.4280 C.2     1  UNL1        0.0000
     12  C          5.4540    0.2990    1.8350 C.2     1  UNL1        0.0000
@<TRIPOS>BOND
     1     5     4    1
     2     4     2    1
     3     3     2    2
     4     2     1    1
     5     1     6    1
     6     6     7    1
     7     7     8    2
     8     7     9    1
     9     8    10    1
    10     9    11    2
    11    10    12    2
    12    11    12    1
