@<TRIPOS>MOLECULE
/home/cewinharhar/GITHUB/reincatalyze/data/processed/docking_pred/2023-Apr-25-2033_maxeplen5_maxtrainstep200_exh16_gamma099_lrac3e-4_lrcr1e-3/4295960a5818388fac6ce93a10a8a6662c8ec52f_ligand_2.pdbqt
 12 12 0 0 0
SMALL
GASTEIGER

@<TRIPOS>ATOM
      1  C          5.3870    2.9640    0.0430 C.3     1  UNL1        0.1270
      2  C          6.2440    3.8690    0.8520 C.2     1  UNL1        0.3030
      3  O          6.8940    4.7750    0.2770 O.2     1  UNL1       -0.2520
      4  O          6.3550    3.7530    2.2350 O.3     1  UNL1       -0.4810
      5  H          5.5920    3.3670    2.8130 H       1  UNL1        0.2960
      6  C          5.2090    1.6910    0.8230 C.3     1  UNL1        0.0470
      7  C          6.0060    0.5670    0.2650 C.2     1  UNL1       -0.0470
      8  C          6.3690    0.5400   -1.0680 C.2     1  UNL1        0.0040
      9  C          6.4220   -0.4970    1.0430 C.2     1  UNL1        0.0040
     10  C          7.1100   -0.5100   -1.5760 C.2     1  UNL1        0.0000
     11  C          7.1610   -1.5440    0.5390 C.2     1  UNL1        0.0000
     12  C          7.5210   -1.5690   -0.7930 C.2     1  UNL1        0.0000
@<TRIPOS>BOND
     1    10     8    1
     2    10    12    2
     3     8     7    2
     4    12    11    1
     5     1     6    1
     6     1     2    1
     7     7     6    1
     8     7     9    1
     9     3     2    2
    10    11     9    2
    11     2     4    1
    12     4     5    1
