@<TRIPOS>MOLECULE
/home/cewinharhar/GITHUB/reincatalyze/data/processed/docking_pred/2023-Apr-25-2033_maxeplen5_maxtrainstep200_exh16_gamma099_lrac3e-4_lrcr1e-3/4295960a5818388fac6ce93a10a8a6662c8ec52f_ligand_2.pdbqt
 12 12 0 0 0
SMALL
GASTEIGER

@<TRIPOS>ATOM
      1  C          5.0000    1.7690    0.6910 C.3     1  UNL1        0.1270
      2  C          4.4710    1.1170    1.9170 C.2     1  UNL1        0.3030
      3  O          5.1540    0.2280    2.4810 O.2     1  UNL1       -0.2520
      4  O          3.2390    1.4560    2.4720 O.3     1  UNL1       -0.4810
      5  H          2.8080    2.3790    2.3160 H       1  UNL1        0.2960
      6  C          6.5000    1.7660    0.7880 C.3     1  UNL1        0.0470
      7  C          7.1380    1.0020   -0.3160 C.2     1  UNL1       -0.0470
      8  C          8.4610    1.2090   -0.6580 C.2     1  UNL1        0.0040
      9  C          6.4490    0.0540   -1.0490 C.2     1  UNL1        0.0040
     10  C          9.0440    0.4930   -1.6860 C.2     1  UNL1        0.0000
     11  C          7.0280   -0.6610   -2.0730 C.2     1  UNL1        0.0000
     12  C          8.3490   -0.4510   -2.4140 C.2     1  UNL1        0.0000
@<TRIPOS>BOND
     1    12    11    2
     2    12    10    1
     3    11     9    1
     4    10     8    2
     5     9     7    2
     6     8     7    1
     7     7     6    1
     8     1     6    1
     9     1     2    1
    10     2     4    1
    11     2     3    2
    12     5     4    1
