@<TRIPOS>MOLECULE
/home/cewinharhar/GITHUB/reincatalyze/data/processed/docking_pred/2023-Apr-25-2033_maxeplen5_maxtrainstep200_exh16_gamma099_lrac3e-4_lrcr1e-3/4295960a5818388fac6ce93a10a8a6662c8ec52f_ligand_2.pdbqt
 12 12 0 0 0
SMALL
GASTEIGER

@<TRIPOS>ATOM
      1  C          8.4330   -1.2130   -1.4940 C.3     1  UNL1        0.1270
      2  C          8.4430   -2.0980   -2.6880 C.2     1  UNL1        0.3030
      3  O          7.3520   -2.4680   -3.1850 O.2     1  UNL1       -0.2520
      4  O          9.6230   -2.5360   -3.2830 O.3     1  UNL1       -0.4810
      5  H         10.5330   -2.4690   -2.8020 H       1  UNL1        0.2960
      6  C          7.2680   -1.6240   -0.6360 C.3     1  UNL1        0.0470
      7  C          6.5190   -0.4580   -0.1000 C.2     1  UNL1       -0.0470
      8  C          6.2870    0.6610   -0.8760 C.2     1  UNL1        0.0040
      9  C          6.0180   -0.4340    1.1880 C.2     1  UNL1        0.0040
     10  C          5.5890    1.7400   -0.3680 C.2     1  UNL1        0.0000
     11  C          5.3220    0.6390    1.6970 C.2     1  UNL1        0.0000
     12  C          5.0930    1.7570    0.9200 C.2     1  UNL1        0.0000
@<TRIPOS>BOND
     1     4     5    1
     2     4     2    1
     3     3     2    2
     4     2     1    1
     5     1     6    1
     6     8    10    1
     7     8     7    2
     8     6     7    1
     9    10    12    2
    10     7     9    1
    11    12    11    1
    12     9    11    2
