MODEL 1
REMARK VINA RESULT:      -7.3      0.000      0.000
REMARK SMILES O=C(O)CCc1ccccc1
REMARK SMILES IDX 4 1 2 2 1 3 3 4 5 6 6 7 7 8 11 9 8 10 10 11 9 12
REMARK H PARENT 3 5
REMARK Flexibility Score: inf
ROOT
ATOM      1  C   UNL     1       8.443  -0.574  -2.216  1.00  0.00     0.127 C 
ENDROOT
BRANCH   1   2
ATOM      2  C   UNL     1       8.453  -1.878  -2.928  1.00  0.00     0.303 C 
ATOM      3  O   UNL     1       9.544  -2.472  -3.102  1.00  0.00    -0.252 OA
BRANCH   2   4
ATOM      4  O   UNL     1       7.291  -2.473  -3.414  1.00  0.00    -0.481 OA
ATOM      5  H   UNL     1       6.733  -2.042  -4.166  1.00  0.00     0.296 HD
ENDBRANCH   2   4
ENDBRANCH   1   2
BRANCH   1   6
ATOM      6  C   UNL     1       7.022  -0.082  -2.192  1.00  0.00     0.047 C 
BRANCH   6   7
ATOM      7  C   UNL     1       6.491   0.053  -0.810  1.00  0.00    -0.047 A 
ATOM      8  C   UNL     1       5.849   1.205  -0.400  1.00  0.00     0.004 A 
ATOM      9  C   UNL     1       6.609  -0.959   0.124  1.00  0.00     0.004 A 
ATOM     10  C   UNL     1       5.359   1.319   0.888  1.00  0.00     0.000 A 
ATOM     11  C   UNL     1       6.121  -0.847   1.407  1.00  0.00     0.000 A 
ATOM     12  C   UNL     1       5.481   0.306   1.816  1.00  0.00     0.000 A 
ENDBRANCH   6   7
ENDBRANCH   1   6
TORSDOF 4
ENDMDL
MODEL 2
REMARK VINA RESULT:      -7.3      0.150      1.721
REMARK SMILES O=C(O)CCc1ccccc1
REMARK SMILES IDX 4 1 2 2 1 3 3 4 5 6 6 7 7 8 11 9 8 10 10 11 9 12
REMARK H PARENT 3 5
REMARK Flexibility Score: inf
ROOT
ATOM      1  C   UNL     1       8.445  -0.670  -2.059  1.00  0.00     0.127 C 
ENDROOT
BRANCH   1   2
ATOM      2  C   UNL     1       8.420  -1.916  -2.868  1.00  0.00     0.303 C 
ATOM      3  O   UNL     1       7.315  -2.405  -3.205  1.00  0.00    -0.252 OA
BRANCH   2   4
ATOM      4  O   UNL     1       9.582  -2.569  -3.272  1.00  0.00    -0.481 OA
ATOM      5  H   UNL     1      10.134  -3.149  -2.622  1.00  0.00     0.296 HD
ENDBRANCH   2   4
ENDBRANCH   1   2
BRANCH   1   6
ATOM      6  C   UNL     1       7.067  -0.070  -2.109  1.00  0.00     0.047 C 
BRANCH   6   7
ATOM      7  C   UNL     1       6.474   0.102  -0.757  1.00  0.00    -0.047 A 
ATOM      8  C   UNL     1       6.563  -0.894   0.196  1.00  0.00     0.004 A 
ATOM      9  C   UNL     1       5.810   1.257  -0.387  1.00  0.00     0.004 A 
ATOM     10  C   UNL     1       6.008  -0.724   1.449  1.00  0.00     0.000 A 
ATOM     11  C   UNL     1       5.255   1.429   0.862  1.00  0.00     0.000 A 
ATOM     12  C   UNL     1       5.346   0.431   1.812  1.00  0.00     0.000 A 
ENDBRANCH   6   7
ENDBRANCH   1   6
TORSDOF 4
ENDMDL
MODEL 3
REMARK VINA RESULT:      -6.8      3.379      5.066
REMARK SMILES O=C(O)CCc1ccccc1
REMARK SMILES IDX 4 1 2 2 1 3 3 4 5 6 6 7 7 8 11 9 8 10 10 11 9 12
REMARK H PARENT 3 5
REMARK Flexibility Score: inf
ROOT
ATOM      1  C   UNL     1       5.040   1.764   0.717  1.00  0.00     0.127 C 
ENDROOT
BRANCH   1   2
ATOM      2  C   UNL     1       4.466   1.110   1.921  1.00  0.00     0.303 C 
ATOM      3  O   UNL     1       5.108   0.190   2.483  1.00  0.00    -0.252 OA
BRANCH   2   4
ATOM      4  O   UNL     1       3.234   1.479   2.456  1.00  0.00    -0.481 OA
ATOM      5  H   UNL     1       3.122   2.332   3.025  1.00  0.00     0.296 HD
ENDBRANCH   2   4
ENDBRANCH   1   2
BRANCH   1   6
ATOM      6  C   UNL     1       6.537   1.684   0.829  1.00  0.00     0.047 C 
BRANCH   6   7
ATOM      7  C   UNL     1       7.152   0.942  -0.304  1.00  0.00    -0.047 A 
ATOM      8  C   UNL     1       8.453   1.190  -0.698  1.00  0.00     0.004 A 
ATOM      9  C   UNL     1       6.462  -0.024  -1.012  1.00  0.00     0.004 A 
ATOM     10  C   UNL     1       9.015   0.495  -1.752  1.00  0.00     0.000 A 
ATOM     11  C   UNL     1       7.020  -0.718  -2.062  1.00  0.00     0.000 A 
ATOM     12  C   UNL     1       8.319  -0.468  -2.455  1.00  0.00     0.000 A 
ENDBRANCH   6   7
ENDBRANCH   1   6
TORSDOF 4
ENDMDL
MODEL 4
REMARK VINA RESULT:      -6.8      3.390      5.106
REMARK SMILES O=C(O)CCc1ccccc1
REMARK SMILES IDX 4 1 2 2 1 3 3 4 5 6 6 7 7 8 11 9 8 10 10 11 9 12
REMARK H PARENT 3 5
REMARK Flexibility Score: inf
ROOT
ATOM      1  C   UNL     1       5.008   1.842   0.760  1.00  0.00     0.127 C 
ENDROOT
BRANCH   1   2
ATOM      2  C   UNL     1       4.448   1.133   1.941  1.00  0.00     0.303 C 
ATOM      3  O   UNL     1       5.111   0.208   2.470  1.00  0.00    -0.252 OA
BRANCH   2   4
ATOM      4  O   UNL     1       3.210   1.457   2.489  1.00  0.00    -0.481 OA
ATOM      5  H   UNL     1       2.421   0.793   2.480  1.00  0.00     0.296 HD
ENDBRANCH   2   4
ENDBRANCH   1   2
BRANCH   1   6
ATOM      6  C   UNL     1       6.507   1.779   0.863  1.00  0.00     0.047 C 
BRANCH   6   7
ATOM      7  C   UNL     1       7.124   1.049  -0.275  1.00  0.00    -0.047 A 
ATOM      8  C   UNL     1       6.395   0.147  -1.026  1.00  0.00     0.004 A 
ATOM      9  C   UNL     1       8.445   1.234  -0.638  1.00  0.00     0.004 A 
ATOM     10  C   UNL     1       6.978  -0.526  -2.082  1.00  0.00     0.000 A 
ATOM     11  C   UNL     1       9.028   0.564  -1.690  1.00  0.00     0.000 A 
ATOM     12  C   UNL     1       8.298  -0.337  -2.439  1.00  0.00     0.000 A 
ENDBRANCH   6   7
ENDBRANCH   1   6
TORSDOF 4
ENDMDL
MODEL 5
REMARK VINA RESULT:      -6.6      1.934      2.325
REMARK SMILES O=C(O)CCc1ccccc1
REMARK SMILES IDX 4 1 2 2 1 3 3 4 5 6 6 7 7 8 11 9 8 10 10 11 9 12
REMARK H PARENT 3 5
REMARK Flexibility Score: inf
ROOT
ATOM      1  C   UNL     1       8.260   0.198  -2.186  1.00  0.00     0.127 C 
ENDROOT
BRANCH   1   2
ATOM      2  C   UNL     1       9.389   0.362  -1.234  1.00  0.00     0.303 C 
ATOM      3  O   UNL     1       9.465  -0.396  -0.237  1.00  0.00    -0.252 OA
BRANCH   2   4
ATOM      4  O   UNL     1      10.375   1.331  -1.404  1.00  0.00    -0.481 OA
ATOM      5  H   UNL     1      10.142   2.312  -1.622  1.00  0.00     0.296 HD
ENDBRANCH   2   4
ENDBRANCH   1   2
BRANCH   1   6
ATOM      6  C   UNL     1       7.198  -0.611  -1.493  1.00  0.00     0.047 C 
BRANCH   6   7
ATOM      7  C   UNL     1       6.384   0.206  -0.555  1.00  0.00    -0.047 A 
ATOM      8  C   UNL     1       5.857   1.424  -0.939  1.00  0.00     0.004 A 
ATOM      9  C   UNL     1       6.115  -0.207   0.737  1.00  0.00     0.004 A 
ATOM     10  C   UNL     1       5.101   2.175  -0.059  1.00  0.00     0.000 A 
ATOM     11  C   UNL     1       5.362   0.540   1.615  1.00  0.00     0.000 A 
ATOM     12  C   UNL     1       4.837   1.756   1.229  1.00  0.00     0.000 A 
ENDBRANCH   6   7
ENDBRANCH   1   6
TORSDOF 4
ENDMDL
