@<TRIPOS>MOLECULE
/home/cewinharhar/GITHUB/reincatalyze/data/processed/docking_pred/2023-Apr-25-2033_maxeplen5_maxtrainstep200_exh16_gamma099_lrac3e-4_lrcr1e-3/437598aa9d4ddbb457dda5082e5f4820e6dbe55d_ligand_2.pdbqt
 12 12 0 0 0
SMALL
GASTEIGER

@<TRIPOS>ATOM
      1  C          8.4450   -0.6700   -2.0590 C.3     1  UNL1        0.1270
      2  C          8.4200   -1.9160   -2.8680 C.2     1  UNL1        0.3030
      3  O          7.3150   -2.4050   -3.2050 O.2     1  UNL1       -0.2520
      4  O          9.5820   -2.5690   -3.2720 O.3     1  UNL1       -0.4810
      5  H         10.1340   -3.1490   -2.6220 H       1  UNL1        0.2960
      6  C          7.0670   -0.0700   -2.1090 C.3     1  UNL1        0.0470
      7  C          6.4740    0.1020   -0.7570 C.2     1  UNL1       -0.0470
      8  C          6.5630   -0.8940    0.1960 C.2     1  UNL1        0.0040
      9  C          5.8100    1.2570   -0.3870 C.2     1  UNL1        0.0040
     10  C          6.0080   -0.7240    1.4490 C.2     1  UNL1        0.0000
     11  C          5.2550    1.4290    0.8620 C.2     1  UNL1        0.0000
     12  C          5.3460    0.4310    1.8120 C.2     1  UNL1        0.0000
@<TRIPOS>BOND
     1     4     2    1
     2     4     5    1
     3     3     2    2
     4     2     1    1
     5     6     1    1
     6     6     7    1
     7     7     9    2
     8     7     8    1
     9     9    11    1
    10     8    10    2
    11    11    12    2
    12    10    12    1
