@<TRIPOS>MOLECULE
/home/cewinharhar/GITHUB/reincatalyze/data/processed/docking_pred/2023-Apr-25-2033_maxeplen5_maxtrainstep200_exh16_gamma099_lrac3e-4_lrcr1e-3/437598aa9d4ddbb457dda5082e5f4820e6dbe55d_ligand_2.pdbqt
 12 12 0 0 0
SMALL
GASTEIGER

@<TRIPOS>ATOM
      1  C          8.4430   -0.5740   -2.2160 C.3     1  UNL1        0.1270
      2  C          8.4530   -1.8780   -2.9280 C.2     1  UNL1        0.3030
      3  O          9.5440   -2.4720   -3.1020 O.2     1  UNL1       -0.2520
      4  O          7.2910   -2.4730   -3.4140 O.3     1  UNL1       -0.4810
      5  H          6.7330   -2.0420   -4.1660 H       1  UNL1        0.2960
      6  C          7.0220   -0.0820   -2.1920 C.3     1  UNL1        0.0470
      7  C          6.4910    0.0530   -0.8100 C.2     1  UNL1       -0.0470
      8  C          5.8490    1.2050   -0.4000 C.2     1  UNL1        0.0040
      9  C          6.6090   -0.9590    0.1240 C.2     1  UNL1        0.0040
     10  C          5.3590    1.3190    0.8880 C.2     1  UNL1        0.0000
     11  C          6.1210   -0.8470    1.4070 C.2     1  UNL1        0.0000
     12  C          5.4810    0.3060    1.8160 C.2     1  UNL1        0.0000
@<TRIPOS>BOND
     1     5     4    1
     2     4     2    1
     3     3     2    2
     4     2     1    1
     5     1     6    1
     6     6     7    1
     7     7     8    2
     8     7     9    1
     9     8    10    1
    10     9    11    2
    11    10    12    2
    12    11    12    1
