@<TRIPOS>MOLECULE
/home/cewinharhar/GITHUB/reincatalyze/data/processed/docking_pred/2023-Apr-25-2033_maxeplen5_maxtrainstep200_exh16_gamma099_lrac3e-4_lrcr1e-3/437598aa9d4ddbb457dda5082e5f4820e6dbe55d_ligand_2.pdbqt
 12 12 0 0 0
SMALL
GASTEIGER

@<TRIPOS>ATOM
      1  C          5.0080    1.8420    0.7600 C.3     1  UNL1        0.1270
      2  C          4.4480    1.1330    1.9410 C.2     1  UNL1        0.3030
      3  O          5.1110    0.2080    2.4700 O.2     1  UNL1       -0.2520
      4  O          3.2100    1.4570    2.4890 O.3     1  UNL1       -0.4810
      5  H          2.4210    0.7930    2.4800 H       1  UNL1        0.2960
      6  C          6.5070    1.7790    0.8630 C.3     1  UNL1        0.0470
      7  C          7.1240    1.0490   -0.2750 C.2     1  UNL1       -0.0470
      8  C          6.3950    0.1470   -1.0260 C.2     1  UNL1        0.0040
      9  C          8.4450    1.2340   -0.6380 C.2     1  UNL1        0.0040
     10  C          6.9780   -0.5260   -2.0820 C.2     1  UNL1        0.0000
     11  C          9.0280    0.5640   -1.6900 C.2     1  UNL1        0.0000
     12  C          8.2980   -0.3370   -2.4390 C.2     1  UNL1        0.0000
@<TRIPOS>BOND
     1    12    10    2
     2    12    11    1
     3    10     8    1
     4    11     9    2
     5     8     7    2
     6     9     7    1
     7     7     6    1
     8     1     6    1
     9     1     2    1
    10     2     3    2
    11     2     4    1
    12     5     4    1
