@<TRIPOS>MOLECULE
/home/cewinharhar/GITHUB/reincatalyze/data/processed/docking_pred/2023-Apr-25-2033_maxeplen5_maxtrainstep200_exh16_gamma099_lrac3e-4_lrcr1e-3/437598aa9d4ddbb457dda5082e5f4820e6dbe55d_ligand_2.pdbqt
 12 12 0 0 0
SMALL
GASTEIGER

@<TRIPOS>ATOM
      1  C          5.0400    1.7640    0.7170 C.3     1  UNL1        0.1270
      2  C          4.4660    1.1100    1.9210 C.2     1  UNL1        0.3030
      3  O          5.1080    0.1900    2.4830 O.2     1  UNL1       -0.2520
      4  O          3.2340    1.4790    2.4560 O.3     1  UNL1       -0.4810
      5  H          3.1220    2.3320    3.0250 H       1  UNL1        0.2960
      6  C          6.5370    1.6840    0.8290 C.3     1  UNL1        0.0470
      7  C          7.1520    0.9420   -0.3040 C.2     1  UNL1       -0.0470
      8  C          8.4530    1.1900   -0.6980 C.2     1  UNL1        0.0040
      9  C          6.4620   -0.0240   -1.0120 C.2     1  UNL1        0.0040
     10  C          9.0150    0.4950   -1.7520 C.2     1  UNL1        0.0000
     11  C          7.0200   -0.7180   -2.0620 C.2     1  UNL1        0.0000
     12  C          8.3190   -0.4680   -2.4550 C.2     1  UNL1        0.0000
@<TRIPOS>BOND
     1    12    11    2
     2    12    10    1
     3    11     9    1
     4    10     8    2
     5     9     7    2
     6     8     7    1
     7     7     6    1
     8     1     6    1
     9     1     2    1
    10     2     4    1
    11     2     3    2
    12     4     5    1
