@<TRIPOS>MOLECULE
/home/cewinharhar/GITHUB/reincatalyze/data/processed/docking_pred/2023-Apr-25-2033_maxeplen5_maxtrainstep200_exh16_gamma099_lrac3e-4_lrcr1e-3/437598aa9d4ddbb457dda5082e5f4820e6dbe55d_ligand_2.pdbqt
 12 12 0 0 0
SMALL
GASTEIGER

@<TRIPOS>ATOM
      1  C          8.2600    0.1980   -2.1860 C.3     1  UNL1        0.1270
      2  C          9.3890    0.3620   -1.2340 C.2     1  UNL1        0.3030
      3  O          9.4650   -0.3960   -0.2370 O.2     1  UNL1       -0.2520
      4  O         10.3750    1.3310   -1.4040 O.3     1  UNL1       -0.4810
      5  H         10.1420    2.3120   -1.6220 H       1  UNL1        0.2960
      6  C          7.1980   -0.6110   -1.4930 C.3     1  UNL1        0.0470
      7  C          6.3840    0.2060   -0.5550 C.2     1  UNL1       -0.0470
      8  C          5.8570    1.4240   -0.9390 C.2     1  UNL1        0.0040
      9  C          6.1150   -0.2070    0.7370 C.2     1  UNL1        0.0040
     10  C          5.1010    2.1750   -0.0590 C.2     1  UNL1        0.0000
     11  C          5.3620    0.5400    1.6150 C.2     1  UNL1        0.0000
     12  C          4.8370    1.7560    1.2290 C.2     1  UNL1        0.0000
@<TRIPOS>BOND
     1     1     6    1
     2     1     2    1
     3     5     4    1
     4     6     7    1
     5     4     2    1
     6     2     3    2
     7     8     7    2
     8     8    10    1
     9     7     9    1
    10    10    12    2
    11     9    11    2
    12    12    11    1
