@<TRIPOS>MOLECULE
/home/cewinharhar/GITHUB/reincatalyze/data/processed/docking_pred/2023-Apr-25-2033_maxeplen5_maxtrainstep200_exh16_gamma099_lrac3e-4_lrcr1e-3/43f74fb3996e866f8c2ebaeff785616509de483e_ligand_2.pdbqt
 12 12 0 0 0
SMALL
GASTEIGER

@<TRIPOS>ATOM
      1  C          8.4430   -0.6040   -2.1510 C.3     1  UNL1        0.1270
      2  C          8.4290   -1.8920   -2.8910 C.2     1  UNL1        0.3030
      3  O          7.3280   -2.4080   -3.2010 O.2     1  UNL1       -0.2520
      4  O          9.5960   -2.5560   -3.2580 O.3     1  UNL1       -0.4810
      5  H          9.9290   -2.5730   -4.2340 H       1  UNL1        0.2960
      6  C          7.0380   -0.0690   -2.1470 C.3     1  UNL1        0.0470
      7  C          6.4850    0.0640   -0.7740 C.2     1  UNL1       -0.0470
      8  C          5.8370    1.2160   -0.3710 C.2     1  UNL1        0.0040
      9  C          6.5890   -0.9490    0.1620 C.2     1  UNL1        0.0040
     10  C          5.3260    1.3280    0.9080 C.2     1  UNL1        0.0000
     11  C          6.0810   -0.8390    1.4370 C.2     1  UNL1        0.0000
     12  C          5.4340    0.3130    1.8370 C.2     1  UNL1        0.0000
@<TRIPOS>BOND
     1     5     4    1
     2     4     2    1
     3     3     2    2
     4     2     1    1
     5     1     6    1
     6     6     7    1
     7     7     8    2
     8     7     9    1
     9     8    10    1
    10     9    11    2
    11    10    12    2
    12    11    12    1
