MODEL 1
REMARK VINA RESULT:      -7.3      0.000      0.000
REMARK SMILES O=C(O)CCc1ccccc1
REMARK SMILES IDX 4 1 2 2 1 3 3 4 5 6 6 7 7 8 11 9 8 10 10 11 9 12
REMARK H PARENT 3 5
REMARK Flexibility Score: inf
ROOT
ATOM      1  C   UNL     1       8.462  -0.661  -2.092  1.00  0.00     0.127 C 
ENDROOT
BRANCH   1   2
ATOM      2  C   UNL     1       8.458  -1.911  -2.895  1.00  0.00     0.303 C 
ATOM      3  O   UNL     1       9.540  -2.514  -3.095  1.00  0.00    -0.252 OA
BRANCH   2   4
ATOM      4  O   UNL     1       7.292  -2.446  -3.438  1.00  0.00    -0.481 OA
ATOM      5  H   UNL     1       6.382  -1.968  -3.351  1.00  0.00     0.296 HD
ENDBRANCH   2   4
ENDBRANCH   1   2
BRANCH   1   6
ATOM      6  C   UNL     1       7.064  -0.107  -2.108  1.00  0.00     0.047 C 
BRANCH   6   7
ATOM      7  C   UNL     1       6.492   0.031  -0.743  1.00  0.00    -0.047 A 
ATOM      8  C   UNL     1       6.585  -0.994   0.179  1.00  0.00     0.004 A 
ATOM      9  C   UNL     1       5.846   1.180  -0.329  1.00  0.00     0.004 A 
ATOM     10  C   UNL     1       6.050  -0.856   1.445  1.00  0.00     0.000 A 
ATOM     11  C   UNL     1       5.312   1.321   0.933  1.00  0.00     0.000 A 
ATOM     12  C   UNL     1       5.406   0.295   1.851  1.00  0.00     0.000 A 
ENDBRANCH   6   7
ENDBRANCH   1   6
TORSDOF 4
ENDMDL
MODEL 2
REMARK VINA RESULT:      -7.2      0.102      1.717
REMARK SMILES O=C(O)CCc1ccccc1
REMARK SMILES IDX 4 1 2 2 1 3 3 4 5 6 6 7 7 8 11 9 8 10 10 11 9 12
REMARK H PARENT 3 5
REMARK Flexibility Score: inf
ROOT
ATOM      1  C   UNL     1       8.443  -0.604  -2.151  1.00  0.00     0.127 C 
ENDROOT
BRANCH   1   2
ATOM      2  C   UNL     1       8.429  -1.892  -2.891  1.00  0.00     0.303 C 
ATOM      3  O   UNL     1       7.328  -2.408  -3.201  1.00  0.00    -0.252 OA
BRANCH   2   4
ATOM      4  O   UNL     1       9.596  -2.556  -3.258  1.00  0.00    -0.481 OA
ATOM      5  H   UNL     1       9.929  -2.573  -4.234  1.00  0.00     0.296 HD
ENDBRANCH   2   4
ENDBRANCH   1   2
BRANCH   1   6
ATOM      6  C   UNL     1       7.038  -0.069  -2.147  1.00  0.00     0.047 C 
BRANCH   6   7
ATOM      7  C   UNL     1       6.485   0.064  -0.774  1.00  0.00    -0.047 A 
ATOM      8  C   UNL     1       5.837   1.216  -0.371  1.00  0.00     0.004 A 
ATOM      9  C   UNL     1       6.589  -0.949   0.162  1.00  0.00     0.004 A 
ATOM     10  C   UNL     1       5.326   1.328   0.908  1.00  0.00     0.000 A 
ATOM     11  C   UNL     1       6.081  -0.839   1.437  1.00  0.00     0.000 A 
ATOM     12  C   UNL     1       5.434   0.313   1.837  1.00  0.00     0.000 A 
ENDBRANCH   6   7
ENDBRANCH   1   6
TORSDOF 4
ENDMDL
MODEL 3
REMARK VINA RESULT:      -6.8      3.387      5.111
REMARK SMILES O=C(O)CCc1ccccc1
REMARK SMILES IDX 4 1 2 2 1 3 3 4 5 6 6 7 7 8 11 9 8 10 10 11 9 12
REMARK H PARENT 3 5
REMARK Flexibility Score: inf
ROOT
ATOM      1  C   UNL     1       5.003   1.796   0.720  1.00  0.00     0.127 C 
ENDROOT
BRANCH   1   2
ATOM      2  C   UNL     1       4.469   1.118   1.930  1.00  0.00     0.303 C 
ATOM      3  O   UNL     1       5.151   0.221   2.481  1.00  0.00    -0.252 OA
BRANCH   2   4
ATOM      4  O   UNL     1       3.232   1.441   2.482  1.00  0.00    -0.481 OA
ATOM      5  H   UNL     1       2.818   0.890   3.250  1.00  0.00     0.296 HD
ENDBRANCH   2   4
ENDBRANCH   1   2
BRANCH   1   6
ATOM      6  C   UNL     1       6.503   1.772   0.813  1.00  0.00     0.047 C 
BRANCH   6   7
ATOM      7  C   UNL     1       7.129   1.018  -0.305  1.00  0.00    -0.047 A 
ATOM      8  C   UNL     1       8.452   1.219  -0.650  1.00  0.00     0.004 A 
ATOM      9  C   UNL     1       6.428   0.086  -1.047  1.00  0.00     0.004 A 
ATOM     10  C   UNL     1       9.024   0.513  -1.692  1.00  0.00     0.000 A 
ATOM     11  C   UNL     1       6.996  -0.619  -2.085  1.00  0.00     0.000 A 
ATOM     12  C   UNL     1       8.318  -0.416  -2.429  1.00  0.00     0.000 A 
ENDBRANCH   6   7
ENDBRANCH   1   6
TORSDOF 4
ENDMDL
MODEL 4
REMARK VINA RESULT:      -6.6      1.950      2.335
REMARK SMILES O=C(O)CCc1ccccc1
REMARK SMILES IDX 4 1 2 2 1 3 3 4 5 6 6 7 7 8 11 9 8 10 10 11 9 12
REMARK H PARENT 3 5
REMARK Flexibility Score: inf
ROOT
ATOM      1  C   UNL     1       8.225   0.241  -2.172  1.00  0.00     0.127 C 
ENDROOT
BRANCH   1   2
ATOM      2  C   UNL     1       9.374   0.393  -1.242  1.00  0.00     0.303 C 
ATOM      3  O   UNL     1       9.470  -0.378  -0.257  1.00  0.00    -0.252 OA
BRANCH   2   4
ATOM      4  O   UNL     1      10.358   1.362  -1.421  1.00  0.00    -0.481 OA
ATOM      5  H   UNL     1      10.458   2.162  -0.777  1.00  0.00     0.296 HD
ENDBRANCH   2   4
ENDBRANCH   1   2
BRANCH   1   6
ATOM      6  C   UNL     1       7.177  -0.575  -1.468  1.00  0.00     0.047 C 
BRANCH   6   7
ATOM      7  C   UNL     1       6.362   0.238  -0.527  1.00  0.00    -0.047 A 
ATOM      8  C   UNL     1       6.119  -0.191   0.763  1.00  0.00     0.004 A 
ATOM      9  C   UNL     1       5.811   1.452  -0.892  1.00  0.00     0.004 A 
ATOM     10  C   UNL     1       5.359   0.573   1.629  1.00  0.00     0.000 A 
ATOM     11  C   UNL     1       5.054   2.215  -0.031  1.00  0.00     0.000 A 
ATOM     12  C   UNL     1       4.812   1.784   1.258  1.00  0.00     0.000 A 
ENDBRANCH   6   7
ENDBRANCH   1   6
TORSDOF 4
ENDMDL
MODEL 5
REMARK VINA RESULT:      -6.5      1.893      2.826
REMARK SMILES O=C(O)CCc1ccccc1
REMARK SMILES IDX 4 1 2 2 1 3 3 4 5 6 6 7 7 8 11 9 8 10 10 11 9 12
REMARK H PARENT 3 5
REMARK Flexibility Score: inf
ROOT
ATOM      1  C   UNL     1       8.236  -1.610   1.132  1.00  0.00     0.127 C 
ENDROOT
BRANCH   1   2
ATOM      2  C   UNL     1       8.517  -2.822   0.321  1.00  0.00     0.303 C 
ATOM      3  O   UNL     1       9.168  -3.765   0.834  1.00  0.00    -0.252 OA
BRANCH   2   4
ATOM      4  O   UNL     1       8.086  -2.957  -0.996  1.00  0.00    -0.481 OA
ATOM      5  H   UNL     1       8.747  -2.972  -1.787  1.00  0.00     0.296 HD
ENDBRANCH   2   4
ENDBRANCH   1   2
BRANCH   1   6
ATOM      6  C   UNL     1       6.745  -1.516   1.303  1.00  0.00     0.047 C 
BRANCH   6   7
ATOM      7  C   UNL     1       6.193  -0.238   0.780  1.00  0.00    -0.047 A 
ATOM      8  C   UNL     1       6.425   0.161  -0.522  1.00  0.00     0.004 A 
ATOM      9  C   UNL     1       5.426   0.606   1.561  1.00  0.00     0.004 A 
ATOM     10  C   UNL     1       5.907   1.351  -0.998  1.00  0.00     0.000 A 
ATOM     11  C   UNL     1       4.909   1.792   1.089  1.00  0.00     0.000 A 
ATOM     12  C   UNL     1       5.143   2.189  -0.212  1.00  0.00     0.000 A 
ENDBRANCH   6   7
ENDBRANCH   1   6
TORSDOF 4
ENDMDL
