@<TRIPOS>MOLECULE
/home/cewinharhar/GITHUB/reincatalyze/data/processed/docking_pred/2023-Apr-25-2033_maxeplen5_maxtrainstep200_exh16_gamma099_lrac3e-4_lrcr1e-3/43f74fb3996e866f8c2ebaeff785616509de483e_ligand_2.pdbqt
 12 12 0 0 0
SMALL
GASTEIGER

@<TRIPOS>ATOM
      1  C          8.2250    0.2410   -2.1720 C.3     1  UNL1        0.1270
      2  C          9.3740    0.3930   -1.2420 C.2     1  UNL1        0.3030
      3  O          9.4700   -0.3780   -0.2570 O.2     1  UNL1       -0.2520
      4  O         10.3580    1.3620   -1.4210 O.3     1  UNL1       -0.4810
      5  H         10.4580    2.1620   -0.7770 H       1  UNL1        0.2960
      6  C          7.1770   -0.5750   -1.4680 C.3     1  UNL1        0.0470
      7  C          6.3620    0.2380   -0.5270 C.2     1  UNL1       -0.0470
      8  C          6.1190   -0.1910    0.7630 C.2     1  UNL1        0.0040
      9  C          5.8110    1.4520   -0.8920 C.2     1  UNL1        0.0040
     10  C          5.3590    0.5730    1.6290 C.2     1  UNL1        0.0000
     11  C          5.0540    2.2150   -0.0310 C.2     1  UNL1        0.0000
     12  C          4.8120    1.7840    1.2580 C.2     1  UNL1        0.0000
@<TRIPOS>BOND
     1     1     6    1
     2     1     2    1
     3     6     7    1
     4     4     2    1
     5     4     5    1
     6     2     3    2
     7     9     7    2
     8     9    11    1
     9     7     8    1
    10    11    12    2
    11     8    10    2
    12    12    10    1
