@<TRIPOS>MOLECULE
/home/cewinharhar/GITHUB/reincatalyze/data/processed/docking_pred/2023-Apr-25-2033_maxeplen5_maxtrainstep200_exh16_gamma099_lrac3e-4_lrcr1e-3/43f74fb3996e866f8c2ebaeff785616509de483e_ligand_2.pdbqt
 12 12 0 0 0
SMALL
GASTEIGER

@<TRIPOS>ATOM
      1  C          8.4620   -0.6610   -2.0920 C.3     1  UNL1        0.1270
      2  C          8.4580   -1.9110   -2.8950 C.2     1  UNL1        0.3030
      3  O          9.5400   -2.5140   -3.0950 O.2     1  UNL1       -0.2520
      4  O          7.2920   -2.4460   -3.4380 O.3     1  UNL1       -0.4810
      5  H          6.3820   -1.9680   -3.3510 H       1  UNL1        0.2960
      6  C          7.0640   -0.1070   -2.1080 C.3     1  UNL1        0.0470
      7  C          6.4920    0.0310   -0.7430 C.2     1  UNL1       -0.0470
      8  C          6.5850   -0.9940    0.1790 C.2     1  UNL1        0.0040
      9  C          5.8460    1.1800   -0.3290 C.2     1  UNL1        0.0040
     10  C          6.0500   -0.8560    1.4450 C.2     1  UNL1        0.0000
     11  C          5.3120    1.3210    0.9330 C.2     1  UNL1        0.0000
     12  C          5.4060    0.2950    1.8510 C.2     1  UNL1        0.0000
@<TRIPOS>BOND
     1     4     5    1
     2     4     2    1
     3     3     2    2
     4     2     1    1
     5     6     1    1
     6     6     7    1
     7     7     9    2
     8     7     8    1
     9     9    11    1
    10     8    10    2
    11    11    12    2
    12    10    12    1
