@<TRIPOS>MOLECULE
/home/cewinharhar/GITHUB/reincatalyze/data/processed/docking_pred/2023-Apr-25-2033_maxeplen5_maxtrainstep200_exh16_gamma099_lrac3e-4_lrcr1e-3/43f74fb3996e866f8c2ebaeff785616509de483e_ligand_2.pdbqt
 12 12 0 0 0
SMALL
GASTEIGER

@<TRIPOS>ATOM
      1  C          5.0030    1.7960    0.7200 C.3     1  UNL1        0.1270
      2  C          4.4690    1.1180    1.9300 C.2     1  UNL1        0.3030
      3  O          5.1510    0.2210    2.4810 O.2     1  UNL1       -0.2520
      4  O          3.2320    1.4410    2.4820 O.3     1  UNL1       -0.4810
      5  H          2.8180    0.8900    3.2500 H       1  UNL1        0.2960
      6  C          6.5030    1.7720    0.8130 C.3     1  UNL1        0.0470
      7  C          7.1290    1.0180   -0.3050 C.2     1  UNL1       -0.0470
      8  C          8.4520    1.2190   -0.6500 C.2     1  UNL1        0.0040
      9  C          6.4280    0.0860   -1.0470 C.2     1  UNL1        0.0040
     10  C          9.0240    0.5130   -1.6920 C.2     1  UNL1        0.0000
     11  C          6.9960   -0.6190   -2.0850 C.2     1  UNL1        0.0000
     12  C          8.3180   -0.4160   -2.4290 C.2     1  UNL1        0.0000
@<TRIPOS>BOND
     1    12    11    2
     2    12    10    1
     3    11     9    1
     4    10     8    2
     5     9     7    2
     6     8     7    1
     7     7     6    1
     8     1     6    1
     9     1     2    1
    10     2     3    2
    11     2     4    1
    12     4     5    1
