@<TRIPOS>MOLECULE
/home/cewinharhar/GITHUB/reincatalyze/data/processed/docking_pred/2023-Apr-25-2033_maxeplen5_maxtrainstep200_exh16_gamma099_lrac3e-4_lrcr1e-3/44bf36be1ccee3462d679cf400989bbed31f99fd_ligand_2.pdbqt
 12 12 0 0 0
SMALL
GASTEIGER

@<TRIPOS>ATOM
      1  C          4.9870    1.7510    0.7040 C.3     1  UNL1        0.1270
      2  C          4.4560    1.0970    1.9280 C.2     1  UNL1        0.3030
      3  O          5.1270    0.1900    2.4770 O.2     1  UNL1       -0.2520
      4  O          3.2360    1.4530    2.4960 O.3     1  UNL1       -0.4810
      5  H          2.5490    0.7450    2.7980 H       1  UNL1        0.2960
      6  C          6.4870    1.7420    0.8000 C.3     1  UNL1        0.0470
      7  C          7.1230    0.9940   -0.3170 C.2     1  UNL1       -0.0470
      8  C          8.4380    1.2240   -0.6740 C.2     1  UNL1        0.0040
      9  C          6.4400    0.0400   -1.0460 C.2     1  UNL1        0.0040
     10  C          9.0190    0.5240   -1.7140 C.2     1  UNL1        0.0000
     11  C          7.0170   -0.6600   -2.0820 C.2     1  UNL1        0.0000
     12  C          8.3300   -0.4280   -2.4380 C.2     1  UNL1        0.0000
@<TRIPOS>BOND
     1    12    11    2
     2    12    10    1
     3    11     9    1
     4    10     8    2
     5     9     7    2
     6     8     7    1
     7     7     6    1
     8     1     6    1
     9     1     2    1
    10     2     3    2
    11     2     4    1
    12     4     5    1
