@<TRIPOS>MOLECULE
/home/cewinharhar/GITHUB/reincatalyze/data/processed/docking_pred/2023-Apr-25-2033_maxeplen5_maxtrainstep200_exh16_gamma099_lrac3e-4_lrcr1e-3/44bf36be1ccee3462d679cf400989bbed31f99fd_ligand_2.pdbqt
 12 12 0 0 0
SMALL
GASTEIGER

@<TRIPOS>ATOM
      1  C          8.4670   -0.6790   -2.0560 C.3     1  UNL1        0.1270
      2  C          8.4340   -1.9330   -2.8530 C.2     1  UNL1        0.3030
      3  O          7.3270   -2.4020   -3.2110 O.2     1  UNL1       -0.2520
      4  O          9.5920   -2.6130   -3.2240 O.3     1  UNL1       -0.4810
      5  H          9.8920   -2.6790   -4.2080 H       1  UNL1        0.2960
      6  C          7.0930   -0.0710   -2.1130 C.3     1  UNL1        0.0470
      7  C          6.4930    0.1040   -0.7650 C.2     1  UNL1       -0.0470
      8  C          6.5940   -0.8820    0.1970 C.2     1  UNL1        0.0040
      9  C          5.8100    1.2520   -0.4070 C.2     1  UNL1        0.0040
     10  C          6.0320   -0.7090    1.4470 C.2     1  UNL1        0.0000
     11  C          5.2490    1.4270    0.8380 C.2     1  UNL1        0.0000
     12  C          5.3510    0.4390    1.7970 C.2     1  UNL1        0.0000
@<TRIPOS>BOND
     1     5     4    1
     2     4     2    1
     3     3     2    2
     4     2     1    1
     5     6     1    1
     6     6     7    1
     7     7     9    2
     8     7     8    1
     9     9    11    1
    10     8    10    2
    11    11    12    2
    12    10    12    1
