MODEL 1
REMARK VINA RESULT:      -7.2      0.000      0.000
REMARK SMILES O=C(O)CCc1ccccc1
REMARK SMILES IDX 4 1 2 2 1 3 3 4 5 6 6 7 7 8 11 9 8 10 10 11 9 12
REMARK H PARENT 3 5
REMARK Flexibility Score: inf
ROOT
ATOM      1  C   UNL     1       8.430  -0.615  -2.139  1.00  0.00     0.127 C 
ENDROOT
BRANCH   1   2
ATOM      2  C   UNL     1       8.411  -1.899  -2.887  1.00  0.00     0.303 C 
ATOM      3  O   UNL     1       7.308  -2.405  -3.206  1.00  0.00    -0.252 OA
BRANCH   2   4
ATOM      4  O   UNL     1       9.576  -2.570  -3.250  1.00  0.00    -0.481 OA
ATOM      5  H   UNL     1      10.015  -3.271  -2.635  1.00  0.00     0.296 HD
ENDBRANCH   2   4
ENDBRANCH   1   2
BRANCH   1   6
ATOM      6  C   UNL     1       7.027  -0.075  -2.131  1.00  0.00     0.047 C 
BRANCH   6   7
ATOM      7  C   UNL     1       6.475   0.052  -0.757  1.00  0.00    -0.047 A 
ATOM      8  C   UNL     1       5.828   1.202  -0.349  1.00  0.00     0.004 A 
ATOM      9  C   UNL     1       6.580  -0.964   0.174  1.00  0.00     0.004 A 
ATOM     10  C   UNL     1       5.319   1.310   0.931  1.00  0.00     0.000 A 
ATOM     11  C   UNL     1       6.074  -0.860   1.451  1.00  0.00     0.000 A 
ATOM     12  C   UNL     1       5.428   0.291   1.855  1.00  0.00     0.000 A 
ENDBRANCH   6   7
ENDBRANCH   1   6
TORSDOF 4
ENDMDL
MODEL 2
REMARK VINA RESULT:      -7.2      0.106      1.423
REMARK SMILES O=C(O)CCc1ccccc1
REMARK SMILES IDX 4 1 2 2 1 3 3 4 5 6 6 7 7 8 11 9 8 10 10 11 9 12
REMARK H PARENT 3 5
REMARK Flexibility Score: inf
ROOT
ATOM      1  C   UNL     1       8.467  -0.679  -2.056  1.00  0.00     0.127 C 
ENDROOT
BRANCH   1   2
ATOM      2  C   UNL     1       8.434  -1.933  -2.853  1.00  0.00     0.303 C 
ATOM      3  O   UNL     1       7.327  -2.402  -3.211  1.00  0.00    -0.252 OA
BRANCH   2   4
ATOM      4  O   UNL     1       9.592  -2.613  -3.224  1.00  0.00    -0.481 OA
ATOM      5  H   UNL     1       9.892  -2.679  -4.208  1.00  0.00     0.296 HD
ENDBRANCH   2   4
ENDBRANCH   1   2
BRANCH   1   6
ATOM      6  C   UNL     1       7.093  -0.071  -2.113  1.00  0.00     0.047 C 
BRANCH   6   7
ATOM      7  C   UNL     1       6.493   0.104  -0.765  1.00  0.00    -0.047 A 
ATOM      8  C   UNL     1       6.594  -0.882   0.197  1.00  0.00     0.004 A 
ATOM      9  C   UNL     1       5.810   1.252  -0.407  1.00  0.00     0.004 A 
ATOM     10  C   UNL     1       6.032  -0.709   1.447  1.00  0.00     0.000 A 
ATOM     11  C   UNL     1       5.249   1.427   0.838  1.00  0.00     0.000 A 
ATOM     12  C   UNL     1       5.351   0.439   1.797  1.00  0.00     0.000 A 
ENDBRANCH   6   7
ENDBRANCH   1   6
TORSDOF 4
ENDMDL
MODEL 3
REMARK VINA RESULT:      -6.7      3.309      5.150
REMARK SMILES O=C(O)CCc1ccccc1
REMARK SMILES IDX 4 1 2 2 1 3 3 4 5 6 6 7 7 8 11 9 8 10 10 11 9 12
REMARK H PARENT 3 5
REMARK Flexibility Score: inf
ROOT
ATOM      1  C   UNL     1       4.987   1.751   0.704  1.00  0.00     0.127 C 
ENDROOT
BRANCH   1   2
ATOM      2  C   UNL     1       4.456   1.097   1.928  1.00  0.00     0.303 C 
ATOM      3  O   UNL     1       5.127   0.190   2.477  1.00  0.00    -0.252 OA
BRANCH   2   4
ATOM      4  O   UNL     1       3.236   1.453   2.496  1.00  0.00    -0.481 OA
ATOM      5  H   UNL     1       2.549   0.745   2.798  1.00  0.00     0.296 HD
ENDBRANCH   2   4
ENDBRANCH   1   2
BRANCH   1   6
ATOM      6  C   UNL     1       6.487   1.742   0.800  1.00  0.00     0.047 C 
BRANCH   6   7
ATOM      7  C   UNL     1       7.123   0.994  -0.317  1.00  0.00    -0.047 A 
ATOM      8  C   UNL     1       8.438   1.224  -0.674  1.00  0.00     0.004 A 
ATOM      9  C   UNL     1       6.440   0.040  -1.046  1.00  0.00     0.004 A 
ATOM     10  C   UNL     1       9.019   0.524  -1.714  1.00  0.00     0.000 A 
ATOM     11  C   UNL     1       7.017  -0.660  -2.082  1.00  0.00     0.000 A 
ATOM     12  C   UNL     1       8.330  -0.428  -2.438  1.00  0.00     0.000 A 
ENDBRANCH   6   7
ENDBRANCH   1   6
TORSDOF 4
ENDMDL
MODEL 4
REMARK VINA RESULT:      -6.5      1.916      2.591
REMARK SMILES O=C(O)CCc1ccccc1
REMARK SMILES IDX 4 1 2 2 1 3 3 4 5 6 6 7 7 8 11 9 8 10 10 11 9 12
REMARK H PARENT 3 5
REMARK Flexibility Score: inf
ROOT
ATOM      1  C   UNL     1       8.234   0.203  -2.216  1.00  0.00     0.127 C 
ENDROOT
BRANCH   1   2
ATOM      2  C   UNL     1       9.376   0.373  -1.280  1.00  0.00     0.303 C 
ATOM      3  O   UNL     1       9.465  -0.379  -0.280  1.00  0.00    -0.252 OA
BRANCH   2   4
ATOM      4  O   UNL     1      10.360   1.339  -1.470  1.00  0.00    -0.481 OA
ATOM      5  H   UNL     1      11.362   1.096  -1.511  1.00  0.00     0.296 HD
ENDBRANCH   2   4
ENDBRANCH   1   2
BRANCH   1   6
ATOM      6  C   UNL     1       7.185  -0.608  -1.507  1.00  0.00     0.047 C 
BRANCH   6   7
ATOM      7  C   UNL     1       6.377   0.209  -0.564  1.00  0.00    -0.047 A 
ATOM      8  C   UNL     1       6.126  -0.223   0.724  1.00  0.00     0.004 A 
ATOM      9  C   UNL     1       5.841   1.432  -0.924  1.00  0.00     0.004 A 
ATOM     10  C   UNL     1       5.374   0.545   1.592  1.00  0.00     0.000 A 
ATOM     11  C   UNL     1       5.091   2.199  -0.060  1.00  0.00     0.000 A 
ATOM     12  C   UNL     1       4.842   1.764   1.226  1.00  0.00     0.000 A 
ENDBRANCH   6   7
ENDBRANCH   1   6
TORSDOF 4
ENDMDL
MODEL 5
REMARK VINA RESULT:      -6.5      3.671      4.979
REMARK SMILES O=C(O)CCc1ccccc1
REMARK SMILES IDX 4 1 2 2 1 3 3 4 5 6 6 7 7 8 11 9 8 10 10 11 9 12
REMARK H PARENT 3 5
REMARK Flexibility Score: inf
ROOT
ATOM      1  C   UNL     1       5.328   2.955   0.057  1.00  0.00     0.127 C 
ENDROOT
BRANCH   1   2
ATOM      2  C   UNL     1       6.211   3.856   0.841  1.00  0.00     0.303 C 
ATOM      3  O   UNL     1       6.875   4.737   0.242  1.00  0.00    -0.252 OA
BRANCH   2   4
ATOM      4  O   UNL     1       6.334   3.764   2.225  1.00  0.00    -0.481 OA
ATOM      5  H   UNL     1       5.705   4.275   2.862  1.00  0.00     0.296 HD
ENDBRANCH   2   4
ENDBRANCH   1   2
BRANCH   1   6
ATOM      6  C   UNL     1       5.211   1.663   0.817  1.00  0.00     0.047 C 
BRANCH   6   7
ATOM      7  C   UNL     1       6.015   0.571   0.208  1.00  0.00    -0.047 A 
ATOM      8  C   UNL     1       6.335   0.582  -1.136  1.00  0.00     0.004 A 
ATOM      9  C   UNL     1       6.481  -0.500   0.948  1.00  0.00     0.004 A 
ATOM     10  C   UNL     1       7.084  -0.438  -1.691  1.00  0.00     0.000 A 
ATOM     11  C   UNL     1       7.227  -1.518   0.397  1.00  0.00     0.000 A 
ATOM     12  C   UNL     1       7.545  -1.505  -0.947  1.00  0.00     0.000 A 
ENDBRANCH   6   7
ENDBRANCH   1   6
TORSDOF 4
ENDMDL
