@<TRIPOS>MOLECULE
/home/cewinharhar/GITHUB/reincatalyze/data/processed/docking_pred/2023-Apr-25-2033_maxeplen5_maxtrainstep200_exh16_gamma099_lrac3e-4_lrcr1e-3/44bf36be1ccee3462d679cf400989bbed31f99fd_ligand_2.pdbqt
 12 12 0 0 0
SMALL
GASTEIGER

@<TRIPOS>ATOM
      1  C          8.2340    0.2030   -2.2160 C.3     1  UNL1        0.1270
      2  C          9.3760    0.3730   -1.2800 C.2     1  UNL1        0.3030
      3  O          9.4650   -0.3790   -0.2800 O.2     1  UNL1       -0.2520
      4  O         10.3600    1.3390   -1.4700 O.3     1  UNL1       -0.4810
      5  H         11.3620    1.0960   -1.5110 H       1  UNL1        0.2960
      6  C          7.1850   -0.6080   -1.5070 C.3     1  UNL1        0.0470
      7  C          6.3770    0.2090   -0.5640 C.2     1  UNL1       -0.0470
      8  C          6.1260   -0.2230    0.7240 C.2     1  UNL1        0.0040
      9  C          5.8410    1.4320   -0.9240 C.2     1  UNL1        0.0040
     10  C          5.3740    0.5450    1.5920 C.2     1  UNL1        0.0000
     11  C          5.0910    2.1990   -0.0600 C.2     1  UNL1        0.0000
     12  C          4.8420    1.7640    1.2260 C.2     1  UNL1        0.0000
@<TRIPOS>BOND
     1     1     6    1
     2     1     2    1
     3     5     4    1
     4     6     7    1
     5     4     2    1
     6     2     3    2
     7     9     7    2
     8     9    11    1
     9     7     8    1
    10    11    12    2
    11     8    10    2
    12    12    10    1
