@<TRIPOS>MOLECULE
/home/cewinharhar/GITHUB/reincatalyze/data/processed/docking_pred/2023-Apr-25-2033_maxeplen5_maxtrainstep200_exh16_gamma099_lrac3e-4_lrcr1e-3/44bf36be1ccee3462d679cf400989bbed31f99fd_ligand_2.pdbqt
 12 12 0 0 0
SMALL
GASTEIGER

@<TRIPOS>ATOM
      1  C          8.4300   -0.6150   -2.1390 C.3     1  UNL1        0.1270
      2  C          8.4110   -1.8990   -2.8870 C.2     1  UNL1        0.3030
      3  O          7.3080   -2.4050   -3.2060 O.2     1  UNL1       -0.2520
      4  O          9.5760   -2.5700   -3.2500 O.3     1  UNL1       -0.4810
      5  H         10.0150   -3.2710   -2.6350 H       1  UNL1        0.2960
      6  C          7.0270   -0.0750   -2.1310 C.3     1  UNL1        0.0470
      7  C          6.4750    0.0520   -0.7570 C.2     1  UNL1       -0.0470
      8  C          5.8280    1.2020   -0.3490 C.2     1  UNL1        0.0040
      9  C          6.5800   -0.9640    0.1740 C.2     1  UNL1        0.0040
     10  C          5.3190    1.3100    0.9310 C.2     1  UNL1        0.0000
     11  C          6.0740   -0.8600    1.4510 C.2     1  UNL1        0.0000
     12  C          5.4280    0.2910    1.8550 C.2     1  UNL1        0.0000
@<TRIPOS>BOND
     1     4     2    1
     2     4     5    1
     3     3     2    2
     4     2     1    1
     5     1     6    1
     6     6     7    1
     7     7     8    2
     8     7     9    1
     9     8    10    1
    10     9    11    2
    11    10    12    2
    12    11    12    1
