@<TRIPOS>MOLECULE
/home/cewinharhar/GITHUB/reincatalyze/data/processed/docking_pred/2023-Apr-25-2033_maxeplen5_maxtrainstep200_exh16_gamma099_lrac3e-4_lrcr1e-3/46861e00ed193d15618049a480e2ca269f83ce14_ligand_2.pdbqt
 12 12 0 0 0
SMALL
GASTEIGER

@<TRIPOS>ATOM
      1  C          8.4330   -0.5800   -2.1960 C.3     1  UNL1        0.1270
      2  C          8.4480   -1.8770   -2.9210 C.2     1  UNL1        0.3030
      3  O          9.5410   -2.4700   -3.0920 O.2     1  UNL1       -0.2520
      4  O          7.2900   -2.4660   -3.4220 O.3     1  UNL1       -0.4810
      5  H          7.0650   -3.4580   -3.2480 H       1  UNL1        0.2960
      6  C          7.0110   -0.0900   -2.1740 C.3     1  UNL1        0.0470
      7  C          6.4780    0.0460   -0.7930 C.2     1  UNL1       -0.0470
      8  C          5.8480    1.2050   -0.3810 C.2     1  UNL1        0.0040
      9  C          6.5840   -0.9690    0.1390 C.2     1  UNL1        0.0040
     10  C          5.3560    1.3210    0.9050 C.2     1  UNL1        0.0000
     11  C          6.0950   -0.8550    1.4210 C.2     1  UNL1        0.0000
     12  C          5.4660    0.3030    1.8310 C.2     1  UNL1        0.0000
@<TRIPOS>BOND
     1     4     5    1
     2     4     2    1
     3     3     2    2
     4     2     1    1
     5     1     6    1
     6     6     7    1
     7     7     8    2
     8     7     9    1
     9     8    10    1
    10     9    11    2
    11    10    12    2
    12    11    12    1
