@<TRIPOS>MOLECULE
/home/cewinharhar/GITHUB/reincatalyze/data/processed/docking_pred/2023-Apr-25-2033_maxeplen5_maxtrainstep200_exh16_gamma099_lrac3e-4_lrcr1e-3/46861e00ed193d15618049a480e2ca269f83ce14_ligand_2.pdbqt
 12 12 0 0 0
SMALL
GASTEIGER

@<TRIPOS>ATOM
      1  C          5.0090    1.8040    0.6680 C.3     1  UNL1        0.1270
      2  C          4.4940    1.1400    1.8940 C.2     1  UNL1        0.3030
      3  O          5.1930    0.2630    2.4550 O.2     1  UNL1       -0.2520
      4  O          3.2560    1.4550    2.4500 O.3     1  UNL1       -0.4810
      5  H          2.3710    1.2160    1.9780 H       1  UNL1        0.2960
      6  C          6.5100    1.8060    0.7520 C.3     1  UNL1        0.0470
      7  C          7.1410    1.0320   -0.3490 C.2     1  UNL1       -0.0470
      8  C          8.4830    1.1720   -0.6440 C.2     1  UNL1        0.0040
      9  C          6.4250    0.1410   -1.1260 C.2     1  UNL1        0.0040
     10  C          9.0600    0.4470   -1.6700 C.2     1  UNL1        0.0000
     11  C          6.9970   -0.5830   -2.1480 C.2     1  UNL1        0.0000
     12  C          8.3380   -0.4410   -2.4410 C.2     1  UNL1        0.0000
@<TRIPOS>BOND
     1    12    11    2
     2    12    10    1
     3    11     9    1
     4    10     8    2
     5     9     7    2
     6     8     7    1
     7     7     6    1
     8     1     6    1
     9     1     2    1
    10     2     4    1
    11     2     3    2
    12     5     4    1
