@<TRIPOS>MOLECULE
/home/cewinharhar/GITHUB/reincatalyze/data/processed/docking_pred/2023-Apr-25-2033_maxeplen5_maxtrainstep200_exh16_gamma099_lrac3e-4_lrcr1e-3/46861e00ed193d15618049a480e2ca269f83ce14_ligand_2.pdbqt
 12 12 0 0 0
SMALL
GASTEIGER

@<TRIPOS>ATOM
      1  C          8.4290   -0.6280   -2.1240 C.3     1  UNL1        0.1270
      2  C          8.4040   -1.9050   -2.8840 C.2     1  UNL1        0.3030
      3  O          7.2990   -2.3940   -3.2220 O.2     1  UNL1       -0.2520
      4  O          9.5650   -2.5860   -3.2390 O.3     1  UNL1       -0.4810
      5  H          9.5370   -3.5330   -3.6470 H       1  UNL1        0.2960
      6  C          7.0340   -0.0670   -2.1350 C.3     1  UNL1        0.0470
      7  C          6.4730    0.0840   -0.7660 C.2     1  UNL1       -0.0470
      8  C          6.5900   -0.9250    0.1700 C.2     1  UNL1        0.0040
      9  C          5.8130    1.2300   -0.3650 C.2     1  UNL1        0.0040
     10  C          6.0650   -0.7740    1.4390 C.2     1  UNL1        0.0000
     11  C          5.2880    1.3820    0.8990 C.2     1  UNL1        0.0000
     12  C          5.4060    0.3730    1.8330 C.2     1  UNL1        0.0000
@<TRIPOS>BOND
     1     5     4    1
     2     4     2    1
     3     3     2    2
     4     2     1    1
     5     6     1    1
     6     6     7    1
     7     7     9    2
     8     7     8    1
     9     9    11    1
    10     8    10    2
    11    11    12    2
    12    10    12    1
