@<TRIPOS>MOLECULE
/home/cewinharhar/GITHUB/reincatalyze/data/processed/docking_pred/2023-Apr-25-2033_maxeplen5_maxtrainstep200_exh16_gamma099_lrac3e-4_lrcr1e-3/46861e00ed193d15618049a480e2ca269f83ce14_ligand_2.pdbqt
 12 12 0 0 0
SMALL
GASTEIGER

@<TRIPOS>ATOM
      1  C          5.3240    2.9710    0.0480 C.3     1  UNL1        0.1270
      2  C          6.2130    3.8590    0.8410 C.2     1  UNL1        0.3030
      3  O          6.8770    4.7460    0.2520 O.2     1  UNL1       -0.2520
      4  O          6.3420    3.7460    2.2230 O.3     1  UNL1       -0.4810
      5  H          5.5360    3.8620    2.8560 H       1  UNL1        0.2960
      6  C          5.1840    1.6790    0.8040 C.3     1  UNL1        0.0470
      7  C          5.9930    0.5830    0.2080 C.2     1  UNL1       -0.0470
      8  C          6.4300   -0.4800    0.9740 C.2     1  UNL1        0.0040
      9  C          6.3440    0.5710   -1.1290 C.2     1  UNL1        0.0040
     10  C          7.1810   -1.4940    0.4100 C.2     1  UNL1        0.0000
     11  C          7.0920   -0.4380   -1.6930 C.2     1  UNL1        0.0000
     12  C          7.5290   -1.4990   -0.9250 C.2     1  UNL1        0.0000
@<TRIPOS>BOND
     1    11     9    1
     2    11    12    2
     3     9     7    2
     4    12    10    1
     5     1     6    1
     6     1     2    1
     7     7     6    1
     8     7     8    1
     9     3     2    2
    10    10     8    2
    11     2     4    1
    12     4     5    1
