MODEL 1
REMARK VINA RESULT:      -7.3      0.000      0.000
REMARK SMILES O=C(O)CCc1ccccc1
REMARK SMILES IDX 4 1 2 2 1 3 3 4 5 6 6 7 7 8 11 9 8 10 10 11 9 12
REMARK H PARENT 3 5
REMARK Flexibility Score: inf
ROOT
ATOM      1  C   UNL     1       8.433  -0.580  -2.196  1.00  0.00     0.127 C 
ENDROOT
BRANCH   1   2
ATOM      2  C   UNL     1       8.448  -1.877  -2.921  1.00  0.00     0.303 C 
ATOM      3  O   UNL     1       9.541  -2.470  -3.092  1.00  0.00    -0.252 OA
BRANCH   2   4
ATOM      4  O   UNL     1       7.290  -2.466  -3.422  1.00  0.00    -0.481 OA
ATOM      5  H   UNL     1       7.065  -3.458  -3.248  1.00  0.00     0.296 HD
ENDBRANCH   2   4
ENDBRANCH   1   2
BRANCH   1   6
ATOM      6  C   UNL     1       7.011  -0.090  -2.174  1.00  0.00     0.047 C 
BRANCH   6   7
ATOM      7  C   UNL     1       6.478   0.046  -0.793  1.00  0.00    -0.047 A 
ATOM      8  C   UNL     1       5.848   1.205  -0.381  1.00  0.00     0.004 A 
ATOM      9  C   UNL     1       6.584  -0.969   0.139  1.00  0.00     0.004 A 
ATOM     10  C   UNL     1       5.356   1.321   0.905  1.00  0.00     0.000 A 
ATOM     11  C   UNL     1       6.095  -0.855   1.421  1.00  0.00     0.000 A 
ATOM     12  C   UNL     1       5.466   0.303   1.831  1.00  0.00     0.000 A 
ENDBRANCH   6   7
ENDBRANCH   1   6
TORSDOF 4
ENDMDL
MODEL 2
REMARK VINA RESULT:      -7.3      0.107      1.718
REMARK SMILES O=C(O)CCc1ccccc1
REMARK SMILES IDX 4 1 2 2 1 3 3 4 5 6 6 7 7 8 11 9 8 10 10 11 9 12
REMARK H PARENT 3 5
REMARK Flexibility Score: inf
ROOT
ATOM      1  C   UNL     1       8.429  -0.628  -2.124  1.00  0.00     0.127 C 
ENDROOT
BRANCH   1   2
ATOM      2  C   UNL     1       8.404  -1.905  -2.884  1.00  0.00     0.303 C 
ATOM      3  O   UNL     1       7.299  -2.394  -3.222  1.00  0.00    -0.252 OA
BRANCH   2   4
ATOM      4  O   UNL     1       9.565  -2.586  -3.239  1.00  0.00    -0.481 OA
ATOM      5  H   UNL     1       9.537  -3.533  -3.647  1.00  0.00     0.296 HD
ENDBRANCH   2   4
ENDBRANCH   1   2
BRANCH   1   6
ATOM      6  C   UNL     1       7.034  -0.067  -2.135  1.00  0.00     0.047 C 
BRANCH   6   7
ATOM      7  C   UNL     1       6.473   0.084  -0.766  1.00  0.00    -0.047 A 
ATOM      8  C   UNL     1       6.590  -0.925   0.170  1.00  0.00     0.004 A 
ATOM      9  C   UNL     1       5.813   1.230  -0.365  1.00  0.00     0.004 A 
ATOM     10  C   UNL     1       6.065  -0.774   1.439  1.00  0.00     0.000 A 
ATOM     11  C   UNL     1       5.288   1.382   0.899  1.00  0.00     0.000 A 
ATOM     12  C   UNL     1       5.406   0.373   1.833  1.00  0.00     0.000 A 
ENDBRANCH   6   7
ENDBRANCH   1   6
TORSDOF 4
ENDMDL
MODEL 3
REMARK VINA RESULT:      -6.8      3.375      5.068
REMARK SMILES O=C(O)CCc1ccccc1
REMARK SMILES IDX 4 1 2 2 1 3 3 4 5 6 6 7 7 8 11 9 8 10 10 11 9 12
REMARK H PARENT 3 5
REMARK Flexibility Score: inf
ROOT
ATOM      1  C   UNL     1       5.009   1.804   0.668  1.00  0.00     0.127 C 
ENDROOT
BRANCH   1   2
ATOM      2  C   UNL     1       4.494   1.140   1.894  1.00  0.00     0.303 C 
ATOM      3  O   UNL     1       5.193   0.263   2.455  1.00  0.00    -0.252 OA
BRANCH   2   4
ATOM      4  O   UNL     1       3.256   1.455   2.450  1.00  0.00    -0.481 OA
ATOM      5  H   UNL     1       2.371   1.216   1.978  1.00  0.00     0.296 HD
ENDBRANCH   2   4
ENDBRANCH   1   2
BRANCH   1   6
ATOM      6  C   UNL     1       6.510   1.806   0.752  1.00  0.00     0.047 C 
BRANCH   6   7
ATOM      7  C   UNL     1       7.141   1.032  -0.349  1.00  0.00    -0.047 A 
ATOM      8  C   UNL     1       8.483   1.172  -0.644  1.00  0.00     0.004 A 
ATOM      9  C   UNL     1       6.425   0.141  -1.126  1.00  0.00     0.004 A 
ATOM     10  C   UNL     1       9.060   0.447  -1.670  1.00  0.00     0.000 A 
ATOM     11  C   UNL     1       6.997  -0.583  -2.148  1.00  0.00     0.000 A 
ATOM     12  C   UNL     1       8.338  -0.441  -2.441  1.00  0.00     0.000 A 
ENDBRANCH   6   7
ENDBRANCH   1   6
TORSDOF 4
ENDMDL
MODEL 4
REMARK VINA RESULT:      -6.6      3.728      5.085
REMARK SMILES O=C(O)CCc1ccccc1
REMARK SMILES IDX 4 1 2 2 1 3 3 4 5 6 6 7 7 8 11 9 8 10 10 11 9 12
REMARK H PARENT 3 5
REMARK Flexibility Score: inf
ROOT
ATOM      1  C   UNL     1       5.324   2.971   0.048  1.00  0.00     0.127 C 
ENDROOT
BRANCH   1   2
ATOM      2  C   UNL     1       6.213   3.859   0.841  1.00  0.00     0.303 C 
ATOM      3  O   UNL     1       6.877   4.746   0.252  1.00  0.00    -0.252 OA
BRANCH   2   4
ATOM      4  O   UNL     1       6.342   3.746   2.223  1.00  0.00    -0.481 OA
ATOM      5  H   UNL     1       5.536   3.862   2.856  1.00  0.00     0.296 HD
ENDBRANCH   2   4
ENDBRANCH   1   2
BRANCH   1   6
ATOM      6  C   UNL     1       5.184   1.679   0.804  1.00  0.00     0.047 C 
BRANCH   6   7
ATOM      7  C   UNL     1       5.993   0.583   0.208  1.00  0.00    -0.047 A 
ATOM      8  C   UNL     1       6.430  -0.480   0.974  1.00  0.00     0.004 A 
ATOM      9  C   UNL     1       6.344   0.571  -1.129  1.00  0.00     0.004 A 
ATOM     10  C   UNL     1       7.181  -1.494   0.410  1.00  0.00     0.000 A 
ATOM     11  C   UNL     1       7.092  -0.438  -1.693  1.00  0.00     0.000 A 
ATOM     12  C   UNL     1       7.529  -1.499  -0.925  1.00  0.00     0.000 A 
ENDBRANCH   6   7
ENDBRANCH   1   6
TORSDOF 4
ENDMDL
MODEL 5
REMARK VINA RESULT:      -6.5      2.029      2.585
REMARK SMILES O=C(O)CCc1ccccc1
REMARK SMILES IDX 4 1 2 2 1 3 3 4 5 6 6 7 7 8 11 9 8 10 10 11 9 12
REMARK H PARENT 3 5
REMARK Flexibility Score: inf
ROOT
ATOM      1  C   UNL     1       7.827  -2.343   0.819  1.00  0.00     0.127 C 
ENDROOT
BRANCH   1   2
ATOM      2  C   UNL     1       8.731  -3.412   0.320  1.00  0.00     0.303 C 
ATOM      3  O   UNL     1       9.629  -3.857   1.075  1.00  0.00    -0.252 OA
BRANCH   2   4
ATOM      4  O   UNL     1       8.621  -3.946  -0.961  1.00  0.00    -0.481 OA
ATOM      5  H   UNL     1       8.692  -3.356  -1.804  1.00  0.00     0.296 HD
ENDBRANCH   2   4
ENDBRANCH   1   2
BRANCH   1   6
ATOM      6  C   UNL     1       7.522  -1.432  -0.338  1.00  0.00     0.047 C 
BRANCH   6   7
ATOM      7  C   UNL     1       6.632  -0.305   0.047  1.00  0.00    -0.047 A 
ATOM      8  C   UNL     1       6.311   0.692  -0.854  1.00  0.00     0.004 A 
ATOM      9  C   UNL     1       6.084  -0.200   1.312  1.00  0.00     0.004 A 
ATOM     10  C   UNL     1       5.482   1.735  -0.486  1.00  0.00     0.000 A 
ATOM     11  C   UNL     1       5.258   0.838   1.680  1.00  0.00     0.000 A 
ATOM     12  C   UNL     1       4.939   1.834   0.779  1.00  0.00     0.000 A 
ENDBRANCH   6   7
ENDBRANCH   1   6
TORSDOF 4
ENDMDL
