@<TRIPOS>MOLECULE
/home/cewinharhar/GITHUB/reincatalyze/data/processed/docking_pred/2023-Apr-25-2033_maxeplen5_maxtrainstep200_exh16_gamma099_lrac3e-4_lrcr1e-3/46861e00ed193d15618049a480e2ca269f83ce14_ligand_2.pdbqt
 12 12 0 0 0
SMALL
GASTEIGER

@<TRIPOS>ATOM
      1  C          7.8270   -2.3430    0.8190 C.3     1  UNL1        0.1270
      2  C          8.7310   -3.4120    0.3200 C.2     1  UNL1        0.3030
      3  O          9.6290   -3.8570    1.0750 O.2     1  UNL1       -0.2520
      4  O          8.6210   -3.9460   -0.9610 O.3     1  UNL1       -0.4810
      5  H          8.6920   -3.3560   -1.8040 H       1  UNL1        0.2960
      6  C          7.5220   -1.4320   -0.3380 C.3     1  UNL1        0.0470
      7  C          6.6320   -0.3050    0.0470 C.2     1  UNL1       -0.0470
      8  C          6.3110    0.6920   -0.8540 C.2     1  UNL1        0.0040
      9  C          6.0840   -0.2000    1.3120 C.2     1  UNL1        0.0040
     10  C          5.4820    1.7350   -0.4860 C.2     1  UNL1        0.0000
     11  C          5.2580    0.8380    1.6800 C.2     1  UNL1        0.0000
     12  C          4.9390    1.8340    0.7790 C.2     1  UNL1        0.0000
@<TRIPOS>BOND
     1     5     4    1
     2     4     2    1
     3     8    10    1
     4     8     7    2
     5    10    12    2
     6     6     7    1
     7     6     1    1
     8     7     9    1
     9     2     1    1
    10     2     3    2
    11    12    11    1
    12     9    11    2
