MODEL 1
REMARK VINA RESULT:      -7.3      0.000      0.000
REMARK SMILES O=C(O)CCc1ccccc1
REMARK SMILES IDX 4 1 2 2 1 3 3 4 5 6 6 7 7 8 11 9 8 10 10 11 9 12
REMARK H PARENT 3 5
REMARK Flexibility Score: inf
ROOT
ATOM      1  C   UNL     1       8.460  -0.625  -2.150  1.00  0.00     0.127 C 
ENDROOT
BRANCH   1   2
ATOM      2  C   UNL     1       8.466  -1.901  -2.911  1.00  0.00     0.303 C 
ATOM      3  O   UNL     1       9.554  -2.498  -3.098  1.00  0.00    -0.252 OA
BRANCH   2   4
ATOM      4  O   UNL     1       7.304  -2.467  -3.430  1.00  0.00    -0.481 OA
ATOM      5  H   UNL     1       7.174  -2.612  -4.443  1.00  0.00     0.296 HD
ENDBRANCH   2   4
ENDBRANCH   1   2
BRANCH   1   6
ATOM      6  C   UNL     1       7.052  -0.098  -2.160  1.00  0.00     0.047 C 
BRANCH   6   7
ATOM      7  C   UNL     1       6.492   0.053  -0.791  1.00  0.00    -0.047 A 
ATOM      8  C   UNL     1       6.592  -0.964   0.138  1.00  0.00     0.004 A 
ATOM      9  C   UNL     1       5.851   1.207  -0.382  1.00  0.00     0.004 A 
ATOM     10  C   UNL     1       6.068  -0.813   1.408  1.00  0.00     0.000 A 
ATOM     11  C   UNL     1       5.329   1.360   0.883  1.00  0.00     0.000 A 
ATOM     12  C   UNL     1       5.429   0.342   1.810  1.00  0.00     0.000 A 
ENDBRANCH   6   7
ENDBRANCH   1   6
TORSDOF 4
ENDMDL
MODEL 2
REMARK VINA RESULT:      -7.3      0.096      1.717
REMARK SMILES O=C(O)CCc1ccccc1
REMARK SMILES IDX 4 1 2 2 1 3 3 4 5 6 6 7 7 8 11 9 8 10 10 11 9 12
REMARK H PARENT 3 5
REMARK Flexibility Score: inf
ROOT
ATOM      1  C   UNL     1       8.438  -0.607  -2.151  1.00  0.00     0.127 C 
ENDROOT
BRANCH   1   2
ATOM      2  C   UNL     1       8.421  -1.895  -2.892  1.00  0.00     0.303 C 
ATOM      3  O   UNL     1       7.319  -2.406  -3.207  1.00  0.00    -0.252 OA
BRANCH   2   4
ATOM      4  O   UNL     1       9.587  -2.563  -3.256  1.00  0.00    -0.481 OA
ATOM      5  H   UNL     1      10.428  -2.057  -3.573  1.00  0.00     0.296 HD
ENDBRANCH   2   4
ENDBRANCH   1   2
BRANCH   1   6
ATOM      6  C   UNL     1       7.032  -0.072  -2.142  1.00  0.00     0.047 C 
BRANCH   6   7
ATOM      7  C   UNL     1       6.483   0.056  -0.767  1.00  0.00    -0.047 A 
ATOM      8  C   UNL     1       5.832   1.205  -0.360  1.00  0.00     0.004 A 
ATOM      9  C   UNL     1       6.592  -0.958   0.166  1.00  0.00     0.004 A 
ATOM     10  C   UNL     1       5.324   1.313   0.921  1.00  0.00     0.000 A 
ATOM     11  C   UNL     1       6.087  -0.853   1.443  1.00  0.00     0.000 A 
ATOM     12  C   UNL     1       5.438   0.296   1.847  1.00  0.00     0.000 A 
ENDBRANCH   6   7
ENDBRANCH   1   6
TORSDOF 4
ENDMDL
MODEL 3
REMARK VINA RESULT:      -7.1      0.695      1.609
REMARK SMILES O=C(O)CCc1ccccc1
REMARK SMILES IDX 4 1 2 2 1 3 3 4 5 6 6 7 7 8 11 9 8 10 10 11 9 12
REMARK H PARENT 3 5
REMARK Flexibility Score: inf
ROOT
ATOM      1  C   UNL     1       8.328  -1.042  -1.713  1.00  0.00     0.127 C 
ENDROOT
BRANCH   1   2
ATOM      2  C   UNL     1       8.417  -2.031  -2.818  1.00  0.00     0.303 C 
ATOM      3  O   UNL     1       9.542  -2.476  -3.153  1.00  0.00    -0.252 OA
BRANCH   2   4
ATOM      4  O   UNL     1       7.295  -2.490  -3.503  1.00  0.00    -0.481 OA
ATOM      5  H   UNL     1       6.740  -1.871  -4.115  1.00  0.00     0.296 HD
ENDBRANCH   2   4
ENDBRANCH   1   2
BRANCH   1   6
ATOM      6  C   UNL     1       7.243  -1.504  -0.779  1.00  0.00     0.047 C 
BRANCH   6   7
ATOM      7  C   UNL     1       6.481  -0.371  -0.192  1.00  0.00    -0.047 A 
ATOM      8  C   UNL     1       6.187   0.756  -0.935  1.00  0.00     0.004 A 
ATOM      9  C   UNL     1       6.029  -0.388   1.115  1.00  0.00     0.004 A 
ATOM     10  C   UNL     1       5.477   1.803  -0.379  1.00  0.00     0.000 A 
ATOM     11  C   UNL     1       5.322   0.655   1.671  1.00  0.00     0.000 A 
ATOM     12  C   UNL     1       5.030   1.780   0.926  1.00  0.00     0.000 A 
ENDBRANCH   6   7
ENDBRANCH   1   6
TORSDOF 4
ENDMDL
MODEL 4
REMARK VINA RESULT:      -7.1      0.677      1.176
REMARK SMILES O=C(O)CCc1ccccc1
REMARK SMILES IDX 4 1 2 2 1 3 3 4 5 6 6 7 7 8 11 9 8 10 10 11 9 12
REMARK H PARENT 3 5
REMARK Flexibility Score: inf
ROOT
ATOM      1  C   UNL     1       8.242  -1.011  -1.832  1.00  0.00     0.127 C 
ENDROOT
BRANCH   1   2
ATOM      2  C   UNL     1       8.340  -2.177  -2.749  1.00  0.00     0.303 C 
ATOM      3  O   UNL     1       9.418  -2.816  -2.814  1.00  0.00    -0.252 OA
BRANCH   2   4
ATOM      4  O   UNL     1       7.275  -2.593  -3.545  1.00  0.00    -0.481 OA
ATOM      5  H   UNL     1       6.501  -3.159  -3.165  1.00  0.00     0.296 HD
ENDBRANCH   2   4
ENDBRANCH   1   2
BRANCH   1   6
ATOM      6  C   UNL     1       7.446  -1.445  -0.633  1.00  0.00     0.047 C 
BRANCH   6   7
ATOM      7  C   UNL     1       6.589  -0.355  -0.097  1.00  0.00    -0.047 A 
ATOM      8  C   UNL     1       6.080  -0.410   1.186  1.00  0.00     0.004 A 
ATOM      9  C   UNL     1       6.261   0.759  -0.847  1.00  0.00     0.004 A 
ATOM     10  C   UNL     1       5.284   0.608   1.675  1.00  0.00     0.000 A 
ATOM     11  C   UNL     1       5.468   1.775  -0.362  1.00  0.00     0.000 A 
ATOM     12  C   UNL     1       4.960   1.717   0.920  1.00  0.00     0.000 A 
ENDBRANCH   6   7
ENDBRANCH   1   6
TORSDOF 4
ENDMDL
MODEL 5
REMARK VINA RESULT:      -6.8      3.384      5.109
REMARK SMILES O=C(O)CCc1ccccc1
REMARK SMILES IDX 4 1 2 2 1 3 3 4 5 6 6 7 7 8 11 9 8 10 10 11 9 12
REMARK H PARENT 3 5
REMARK Flexibility Score: inf
ROOT
ATOM      1  C   UNL     1       5.024   1.783   0.731  1.00  0.00     0.127 C 
ENDROOT
BRANCH   1   2
ATOM      2  C   UNL     1       4.466   1.108   1.932  1.00  0.00     0.303 C 
ATOM      3  O   UNL     1       5.125   0.193   2.481  1.00  0.00    -0.252 OA
BRANCH   2   4
ATOM      4  O   UNL     1       3.232   1.453   2.477  1.00  0.00    -0.481 OA
ATOM      5  H   UNL     1       2.745   0.842   3.151  1.00  0.00     0.296 HD
ENDBRANCH   2   4
ENDBRANCH   1   2
BRANCH   1   6
ATOM      6  C   UNL     1       6.523   1.720   0.832  1.00  0.00     0.047 C 
BRANCH   6   7
ATOM      7  C   UNL     1       7.137   0.973  -0.296  1.00  0.00    -0.047 A 
ATOM      8  C   UNL     1       8.439   1.214  -0.690  1.00  0.00     0.004 A 
ATOM      9  C   UNL     1       6.444   0.007  -1.002  1.00  0.00     0.004 A 
ATOM     10  C   UNL     1       9.000   0.513  -1.740  1.00  0.00     0.000 A 
ATOM     11  C   UNL     1       7.001  -0.692  -2.050  1.00  0.00     0.000 A 
ATOM     12  C   UNL     1       8.302  -0.449  -2.441  1.00  0.00     0.000 A 
ENDBRANCH   6   7
ENDBRANCH   1   6
TORSDOF 4
ENDMDL
