@<TRIPOS>MOLECULE
/home/cewinharhar/GITHUB/reincatalyze/data/processed/docking_pred/2023-Apr-25-2033_maxeplen5_maxtrainstep200_exh16_gamma099_lrac3e-4_lrcr1e-3/49b3117837231080fe644fe44c00424f4b8d2b91_ligand_2.pdbqt
 12 12 0 0 0
SMALL
GASTEIGER

@<TRIPOS>ATOM
      1  C          8.2420   -1.0110   -1.8320 C.3     1  UNL1        0.1270
      2  C          8.3400   -2.1770   -2.7490 C.2     1  UNL1        0.3030
      3  O          9.4180   -2.8160   -2.8140 O.2     1  UNL1       -0.2520
      4  O          7.2750   -2.5930   -3.5450 O.3     1  UNL1       -0.4810
      5  H          6.5010   -3.1590   -3.1650 H       1  UNL1        0.2960
      6  C          7.4460   -1.4450   -0.6330 C.3     1  UNL1        0.0470
      7  C          6.5890   -0.3550   -0.0970 C.2     1  UNL1       -0.0470
      8  C          6.0800   -0.4100    1.1860 C.2     1  UNL1        0.0040
      9  C          6.2610    0.7590   -0.8470 C.2     1  UNL1        0.0040
     10  C          5.2840    0.6080    1.6750 C.2     1  UNL1        0.0000
     11  C          5.4680    1.7750   -0.3620 C.2     1  UNL1        0.0000
     12  C          4.9600    1.7170    0.9200 C.2     1  UNL1        0.0000
@<TRIPOS>BOND
     1     4     5    1
     2     4     2    1
     3     3     2    2
     4     2     1    1
     5     1     6    1
     6     9    11    1
     7     9     7    2
     8     6     7    1
     9    11    12    2
    10     7     8    1
    11    12    10    1
    12     8    10    2
