@<TRIPOS>MOLECULE
/home/cewinharhar/GITHUB/reincatalyze/data/processed/docking_pred/2023-Apr-25-2033_maxeplen5_maxtrainstep200_exh16_gamma099_lrac3e-4_lrcr1e-3/49b3117837231080fe644fe44c00424f4b8d2b91_ligand_2.pdbqt
 12 12 0 0 0
SMALL
GASTEIGER

@<TRIPOS>ATOM
      1  C          5.0240    1.7830    0.7310 C.3     1  UNL1        0.1270
      2  C          4.4660    1.1080    1.9320 C.2     1  UNL1        0.3030
      3  O          5.1250    0.1930    2.4810 O.2     1  UNL1       -0.2520
      4  O          3.2320    1.4530    2.4770 O.3     1  UNL1       -0.4810
      5  H          2.7450    0.8420    3.1510 H       1  UNL1        0.2960
      6  C          6.5230    1.7200    0.8320 C.3     1  UNL1        0.0470
      7  C          7.1370    0.9730   -0.2960 C.2     1  UNL1       -0.0470
      8  C          8.4390    1.2140   -0.6900 C.2     1  UNL1        0.0040
      9  C          6.4440    0.0070   -1.0020 C.2     1  UNL1        0.0040
     10  C          9.0000    0.5130   -1.7400 C.2     1  UNL1        0.0000
     11  C          7.0010   -0.6920   -2.0500 C.2     1  UNL1        0.0000
     12  C          8.3020   -0.4490   -2.4410 C.2     1  UNL1        0.0000
@<TRIPOS>BOND
     1    12    11    2
     2    12    10    1
     3    11     9    1
     4    10     8    2
     5     9     7    2
     6     8     7    1
     7     7     6    1
     8     1     6    1
     9     1     2    1
    10     2     4    1
    11     2     3    2
    12     4     5    1
