@<TRIPOS>MOLECULE
/home/cewinharhar/GITHUB/reincatalyze/data/processed/docking_pred/2023-Apr-25-2033_maxeplen5_maxtrainstep200_exh16_gamma099_lrac3e-4_lrcr1e-3/49b3117837231080fe644fe44c00424f4b8d2b91_ligand_2.pdbqt
 12 12 0 0 0
SMALL
GASTEIGER

@<TRIPOS>ATOM
      1  C          8.4380   -0.6070   -2.1510 C.3     1  UNL1        0.1270
      2  C          8.4210   -1.8950   -2.8920 C.2     1  UNL1        0.3030
      3  O          7.3190   -2.4060   -3.2070 O.2     1  UNL1       -0.2520
      4  O          9.5870   -2.5630   -3.2560 O.3     1  UNL1       -0.4810
      5  H         10.4280   -2.0570   -3.5730 H       1  UNL1        0.2960
      6  C          7.0320   -0.0720   -2.1420 C.3     1  UNL1        0.0470
      7  C          6.4830    0.0560   -0.7670 C.2     1  UNL1       -0.0470
      8  C          5.8320    1.2050   -0.3600 C.2     1  UNL1        0.0040
      9  C          6.5920   -0.9580    0.1660 C.2     1  UNL1        0.0040
     10  C          5.3240    1.3130    0.9210 C.2     1  UNL1        0.0000
     11  C          6.0870   -0.8530    1.4430 C.2     1  UNL1        0.0000
     12  C          5.4380    0.2960    1.8470 C.2     1  UNL1        0.0000
@<TRIPOS>BOND
     1     5     4    1
     2     4     2    1
     3     3     2    2
     4     2     1    1
     5     1     6    1
     6     6     7    1
     7     7     8    2
     8     7     9    1
     9     8    10    1
    10     9    11    2
    11    10    12    2
    12    11    12    1
