@<TRIPOS>MOLECULE
/home/cewinharhar/GITHUB/reincatalyze/data/processed/docking_pred/2023-Apr-25-2033_maxeplen5_maxtrainstep200_exh16_gamma099_lrac3e-4_lrcr1e-3/49b3117837231080fe644fe44c00424f4b8d2b91_ligand_2.pdbqt
 12 12 0 0 0
SMALL
GASTEIGER

@<TRIPOS>ATOM
      1  C          8.4600   -0.6250   -2.1500 C.3     1  UNL1        0.1270
      2  C          8.4660   -1.9010   -2.9110 C.2     1  UNL1        0.3030
      3  O          9.5540   -2.4980   -3.0980 O.2     1  UNL1       -0.2520
      4  O          7.3040   -2.4670   -3.4300 O.3     1  UNL1       -0.4810
      5  H          7.1740   -2.6120   -4.4430 H       1  UNL1        0.2960
      6  C          7.0520   -0.0980   -2.1600 C.3     1  UNL1        0.0470
      7  C          6.4920    0.0530   -0.7910 C.2     1  UNL1       -0.0470
      8  C          6.5920   -0.9640    0.1380 C.2     1  UNL1        0.0040
      9  C          5.8510    1.2070   -0.3820 C.2     1  UNL1        0.0040
     10  C          6.0680   -0.8130    1.4080 C.2     1  UNL1        0.0000
     11  C          5.3290    1.3600    0.8830 C.2     1  UNL1        0.0000
     12  C          5.4290    0.3420    1.8100 C.2     1  UNL1        0.0000
@<TRIPOS>BOND
     1     5     4    1
     2     4     2    1
     3     3     2    2
     4     2     1    1
     5     6     1    1
     6     6     7    1
     7     7     9    2
     8     7     8    1
     9     9    11    1
    10     8    10    2
    11    11    12    2
    12    10    12    1
