@<TRIPOS>MOLECULE
/home/cewinharhar/GITHUB/reincatalyze/data/processed/docking_pred/2023-Apr-25-2033_maxeplen5_maxtrainstep200_exh16_gamma099_lrac3e-4_lrcr1e-3/4d620996829bdf69d2437cdb6940cc233521eaf3_ligand_2.pdbqt
 12 12 0 0 0
SMALL
GASTEIGER

@<TRIPOS>ATOM
      1  C          8.2320   -0.4860   -2.3070 C.3     1  UNL1        0.1270
      2  C          8.3420   -1.8110   -2.9710 C.2     1  UNL1        0.3030
      3  O          9.4690   -2.3540   -3.0700 O.2     1  UNL1       -0.2520
      4  O          7.2380   -2.4800   -3.4930 O.3     1  UNL1       -0.4810
      5  H          7.2360   -2.8610   -4.4510 H       1  UNL1        0.2960
      6  C          7.1140   -0.5740   -1.3050 C.3     1  UNL1        0.0470
      7  C          6.8460    0.7270   -0.6370 C.2     1  UNL1       -0.0470
      8  C          5.5850    1.2910   -0.6500 C.2     1  UNL1        0.0040
      9  C          7.8340    1.4300    0.0250 C.2     1  UNL1        0.0040
     10  C          5.3470    2.5010   -0.0260 C.2     1  UNL1        0.0000
     11  C          7.6000    2.6360    0.6480 C.2     1  UNL1        0.0000
     12  C          6.3390    3.1980    0.6330 C.2     1  UNL1        0.0000
@<TRIPOS>BOND
     1     5     4    1
     2     4     2    1
     3     3     2    2
     4     2     1    1
     5     1     6    1
     6     6     7    1
     7     8     7    2
     8     8    10    1
     9     7     9    1
    10    10    12    2
    11     9    11    2
    12    12    11    1
