@<TRIPOS>MOLECULE
/home/cewinharhar/GITHUB/reincatalyze/data/processed/docking_pred/2023-Apr-25-2033_maxeplen5_maxtrainstep200_exh16_gamma099_lrac3e-4_lrcr1e-3/4d620996829bdf69d2437cdb6940cc233521eaf3_ligand_2.pdbqt
 12 12 0 0 0
SMALL
GASTEIGER

@<TRIPOS>ATOM
      1  C          8.4260   -0.5850   -2.1670 C.3     1  UNL1        0.1270
      2  C          8.4230   -1.8830   -2.8910 C.2     1  UNL1        0.3030
      3  O          7.3260   -2.4100   -3.1970 O.2     1  UNL1       -0.2520
      4  O          9.5960   -2.5430   -3.2470 O.3     1  UNL1       -0.4810
      5  H          9.7300   -2.9460   -4.1870 H       1  UNL1        0.2960
      6  C          7.0150   -0.0670   -2.1600 C.3     1  UNL1        0.0470
      7  C          6.4670    0.0690   -0.7850 C.2     1  UNL1       -0.0470
      8  C          6.5880   -0.9520    0.1380 C.2     1  UNL1        0.0040
      9  C          5.8160    1.2130   -0.3630 C.2     1  UNL1        0.0040
     10  C          6.0750   -0.8150    1.4140 C.2     1  UNL1        0.0000
     11  C          5.3040    1.3520    0.9080 C.2     1  UNL1        0.0000
     12  C          5.4260    0.3300    1.8280 C.2     1  UNL1        0.0000
@<TRIPOS>BOND
     1     5     4    1
     2     4     2    1
     3     3     2    2
     4     2     1    1
     5     1     6    1
     6     6     7    1
     7     7     9    2
     8     7     8    1
     9     9    11    1
    10     8    10    2
    11    11    12    2
    12    10    12    1
