@<TRIPOS>MOLECULE
/home/cewinharhar/GITHUB/reincatalyze/data/processed/docking_pred/2023-Apr-25-2033_maxeplen5_maxtrainstep200_exh16_gamma099_lrac3e-4_lrcr1e-3/4d620996829bdf69d2437cdb6940cc233521eaf3_ligand_2.pdbqt
 12 12 0 0 0
SMALL
GASTEIGER

@<TRIPOS>ATOM
      1  C          4.9070    1.8380    0.7640 C.3     1  UNL1        0.1270
      2  C          4.3960    1.1230    1.9620 C.2     1  UNL1        0.3030
      3  O          5.0870    0.2060    2.4690 O.2     1  UNL1       -0.2520
      4  O          3.1710    1.4290    2.5500 O.3     1  UNL1       -0.4810
      5  H          2.3200    1.5810    1.9870 H       1  UNL1        0.2960
      6  C          6.3990    1.9530    0.9080 C.3     1  UNL1        0.0470
      7  C          7.1300    1.2530   -0.1800 C.2     1  UNL1       -0.0470
      8  C          8.5050    1.3390   -0.2900 C.2     1  UNL1        0.0040
      9  C          6.4790    0.4850   -1.1280 C.2     1  UNL1        0.0040
     10  C          9.1740    0.6840   -1.3060 C.2     1  UNL1        0.0000
     11  C          7.1440   -0.1690   -2.1410 C.2     1  UNL1        0.0000
     12  C          8.5170   -0.0800   -2.2490 C.2     1  UNL1        0.0000
@<TRIPOS>BOND
     1    12    11    2
     2    12    10    1
     3    11     9    1
     4    10     8    2
     5     9     7    2
     6     8     7    1
     7     7     6    1
     8     1     6    1
     9     1     2    1
    10     2     3    2
    11     2     4    1
    12     5     4    1
