@<TRIPOS>MOLECULE
/home/cewinharhar/GITHUB/reincatalyze/data/processed/docking_pred/2023-Apr-25-2033_maxeplen5_maxtrainstep200_exh16_gamma099_lrac3e-4_lrcr1e-3/4d620996829bdf69d2437cdb6940cc233521eaf3_ligand_2.pdbqt
 12 12 0 0 0
SMALL
GASTEIGER

@<TRIPOS>ATOM
      1  C          8.5150   -0.7240   -2.0350 C.3     1  UNL1        0.1270
      2  C          8.4930   -1.9440   -2.8840 C.2     1  UNL1        0.3030
      3  O          9.5710   -2.5350   -3.1340 O.2     1  UNL1       -0.2520
      4  O          7.3150   -2.4630   -3.4160 O.3     1  UNL1       -0.4810
      5  H          7.3220   -3.2240   -4.1130 H       1  UNL1        0.2960
      6  C          7.1610   -0.0770   -2.1380 C.3     1  UNL1        0.0470
      7  C          6.5260    0.1240   -0.8090 C.2     1  UNL1       -0.0470
      8  C          5.8200    1.2760   -0.5210 C.2     1  UNL1        0.0040
      9  C          6.6080   -0.8210    0.1960 C.2     1  UNL1        0.0040
     10  C          5.2340    1.4530    0.7180 C.2     1  UNL1        0.0000
     11  C          6.0240   -0.6470    1.4310 C.2     1  UNL1        0.0000
     12  C          5.3200    0.5050    1.7160 C.2     1  UNL1        0.0000
@<TRIPOS>BOND
     1     5     4    1
     2     4     2    1
     3     3     2    2
     4     2     1    1
     5     6     1    1
     6     6     7    1
     7     7     8    2
     8     7     9    1
     9     8    10    1
    10     9    11    2
    11    10    12    2
    12    11    12    1
