MODEL 1
REMARK VINA RESULT:      -7.1      0.000      0.000
REMARK SMILES O=C(O)CCc1ccccc1
REMARK SMILES IDX 4 1 2 2 1 3 3 4 5 6 6 7 7 8 11 9 8 10 10 11 9 12
REMARK H PARENT 3 5
REMARK Flexibility Score: inf
ROOT
ATOM      1  C   UNL     1       8.515  -0.724  -2.035  1.00  0.00     0.127 C 
ENDROOT
BRANCH   1   2
ATOM      2  C   UNL     1       8.493  -1.944  -2.884  1.00  0.00     0.303 C 
ATOM      3  O   UNL     1       9.571  -2.535  -3.134  1.00  0.00    -0.252 OA
BRANCH   2   4
ATOM      4  O   UNL     1       7.315  -2.463  -3.416  1.00  0.00    -0.481 OA
ATOM      5  H   UNL     1       7.322  -3.224  -4.113  1.00  0.00     0.296 HD
ENDBRANCH   2   4
ENDBRANCH   1   2
BRANCH   1   6
ATOM      6  C   UNL     1       7.161  -0.077  -2.138  1.00  0.00     0.047 C 
BRANCH   6   7
ATOM      7  C   UNL     1       6.526   0.124  -0.809  1.00  0.00    -0.047 A 
ATOM      8  C   UNL     1       5.820   1.276  -0.521  1.00  0.00     0.004 A 
ATOM      9  C   UNL     1       6.608  -0.821   0.196  1.00  0.00     0.004 A 
ATOM     10  C   UNL     1       5.234   1.453   0.718  1.00  0.00     0.000 A 
ATOM     11  C   UNL     1       6.024  -0.647   1.431  1.00  0.00     0.000 A 
ATOM     12  C   UNL     1       5.320   0.505   1.716  1.00  0.00     0.000 A 
ENDBRANCH   6   7
ENDBRANCH   1   6
TORSDOF 4
ENDMDL
MODEL 2
REMARK VINA RESULT:      -7.0      0.174      1.722
REMARK SMILES O=C(O)CCc1ccccc1
REMARK SMILES IDX 4 1 2 2 1 3 3 4 5 6 6 7 7 8 11 9 8 10 10 11 9 12
REMARK H PARENT 3 5
REMARK Flexibility Score: inf
ROOT
ATOM      1  C   UNL     1       8.426  -0.585  -2.167  1.00  0.00     0.127 C 
ENDROOT
BRANCH   1   2
ATOM      2  C   UNL     1       8.423  -1.883  -2.891  1.00  0.00     0.303 C 
ATOM      3  O   UNL     1       7.326  -2.410  -3.197  1.00  0.00    -0.252 OA
BRANCH   2   4
ATOM      4  O   UNL     1       9.596  -2.543  -3.247  1.00  0.00    -0.481 OA
ATOM      5  H   UNL     1       9.730  -2.946  -4.187  1.00  0.00     0.296 HD
ENDBRANCH   2   4
ENDBRANCH   1   2
BRANCH   1   6
ATOM      6  C   UNL     1       7.015  -0.067  -2.160  1.00  0.00     0.047 C 
BRANCH   6   7
ATOM      7  C   UNL     1       6.467   0.069  -0.785  1.00  0.00    -0.047 A 
ATOM      8  C   UNL     1       6.588  -0.952   0.138  1.00  0.00     0.004 A 
ATOM      9  C   UNL     1       5.816   1.213  -0.363  1.00  0.00     0.004 A 
ATOM     10  C   UNL     1       6.075  -0.815   1.414  1.00  0.00     0.000 A 
ATOM     11  C   UNL     1       5.304   1.352   0.908  1.00  0.00     0.000 A 
ATOM     12  C   UNL     1       5.426   0.330   1.828  1.00  0.00     0.000 A 
ENDBRANCH   6   7
ENDBRANCH   1   6
TORSDOF 4
ENDMDL
MODEL 3
REMARK VINA RESULT:      -6.7      1.321      1.743
REMARK SMILES O=C(O)CCc1ccccc1
REMARK SMILES IDX 4 1 2 2 1 3 3 4 5 6 6 7 7 8 11 9 8 10 10 11 9 12
REMARK H PARENT 3 5
REMARK Flexibility Score: inf
ROOT
ATOM      1  C   UNL     1       8.232  -0.486  -2.307  1.00  0.00     0.127 C 
ENDROOT
BRANCH   1   2
ATOM      2  C   UNL     1       8.342  -1.811  -2.971  1.00  0.00     0.303 C 
ATOM      3  O   UNL     1       9.469  -2.354  -3.070  1.00  0.00    -0.252 OA
BRANCH   2   4
ATOM      4  O   UNL     1       7.238  -2.480  -3.493  1.00  0.00    -0.481 OA
ATOM      5  H   UNL     1       7.236  -2.861  -4.451  1.00  0.00     0.296 HD
ENDBRANCH   2   4
ENDBRANCH   1   2
BRANCH   1   6
ATOM      6  C   UNL     1       7.114  -0.574  -1.305  1.00  0.00     0.047 C 
BRANCH   6   7
ATOM      7  C   UNL     1       6.846   0.727  -0.637  1.00  0.00    -0.047 A 
ATOM      8  C   UNL     1       5.585   1.291  -0.650  1.00  0.00     0.004 A 
ATOM      9  C   UNL     1       7.834   1.430   0.025  1.00  0.00     0.004 A 
ATOM     10  C   UNL     1       5.347   2.501  -0.026  1.00  0.00     0.000 A 
ATOM     11  C   UNL     1       7.600   2.636   0.648  1.00  0.00     0.000 A 
ATOM     12  C   UNL     1       6.339   3.198   0.633  1.00  0.00     0.000 A 
ENDBRANCH   6   7
ENDBRANCH   1   6
TORSDOF 4
ENDMDL
MODEL 4
REMARK VINA RESULT:      -6.4      2.514      3.153
REMARK SMILES O=C(O)CCc1ccccc1
REMARK SMILES IDX 4 1 2 2 1 3 3 4 5 6 6 7 7 8 11 9 8 10 10 11 9 12
REMARK H PARENT 3 5
REMARK Flexibility Score: inf
ROOT
ATOM      1  C   UNL     1       8.200  -1.054   0.119  1.00  0.00     0.127 C 
ENDROOT
BRANCH   1   2
ATOM      2  C   UNL     1       7.891  -2.323   0.827  1.00  0.00     0.303 C 
ATOM      3  O   UNL     1       8.720  -3.264   0.787  1.00  0.00    -0.252 OA
BRANCH   2   4
ATOM      4  O   UNL     1       6.711  -2.513   1.541  1.00  0.00    -0.481 OA
ATOM      5  H   UNL     1       6.267  -1.748   2.073  1.00  0.00     0.296 HD
ENDBRANCH   2   4
ENDBRANCH   1   2
BRANCH   1   6
ATOM      6  C   UNL     1       6.915  -0.539  -0.468  1.00  0.00     0.047 C 
BRANCH   6   7
ATOM      7  C   UNL     1       6.658   0.882  -0.115  1.00  0.00    -0.047 A 
ATOM      8  C   UNL     1       7.649   1.673   0.432  1.00  0.00     0.004 A 
ATOM      9  C   UNL     1       5.427   1.478  -0.314  1.00  0.00     0.004 A 
ATOM     10  C   UNL     1       7.399   2.993   0.757  1.00  0.00     0.000 A 
ATOM     11  C   UNL     1       5.176   2.793   0.009  1.00  0.00     0.000 A 
ATOM     12  C   UNL     1       6.168   3.581   0.556  1.00  0.00     0.000 A 
ENDBRANCH   6   7
ENDBRANCH   1   6
TORSDOF 4
ENDMDL
MODEL 5
REMARK VINA RESULT:      -6.4      3.424      5.148
REMARK SMILES O=C(O)CCc1ccccc1
REMARK SMILES IDX 4 1 2 2 1 3 3 4 5 6 6 7 7 8 11 9 8 10 10 11 9 12
REMARK H PARENT 3 5
REMARK Flexibility Score: inf
ROOT
ATOM      1  C   UNL     1       4.907   1.838   0.764  1.00  0.00     0.127 C 
ENDROOT
BRANCH   1   2
ATOM      2  C   UNL     1       4.396   1.123   1.962  1.00  0.00     0.303 C 
ATOM      3  O   UNL     1       5.087   0.206   2.469  1.00  0.00    -0.252 OA
BRANCH   2   4
ATOM      4  O   UNL     1       3.171   1.429   2.550  1.00  0.00    -0.481 OA
ATOM      5  H   UNL     1       2.320   1.581   1.987  1.00  0.00     0.296 HD
ENDBRANCH   2   4
ENDBRANCH   1   2
BRANCH   1   6
ATOM      6  C   UNL     1       6.399   1.953   0.908  1.00  0.00     0.047 C 
BRANCH   6   7
ATOM      7  C   UNL     1       7.130   1.253  -0.180  1.00  0.00    -0.047 A 
ATOM      8  C   UNL     1       8.505   1.339  -0.290  1.00  0.00     0.004 A 
ATOM      9  C   UNL     1       6.479   0.485  -1.128  1.00  0.00     0.004 A 
ATOM     10  C   UNL     1       9.174   0.684  -1.306  1.00  0.00     0.000 A 
ATOM     11  C   UNL     1       7.144  -0.169  -2.141  1.00  0.00     0.000 A 
ATOM     12  C   UNL     1       8.517  -0.080  -2.249  1.00  0.00     0.000 A 
ENDBRANCH   6   7
ENDBRANCH   1   6
TORSDOF 4
ENDMDL
