@<TRIPOS>MOLECULE
/home/cewinharhar/GITHUB/reincatalyze/data/processed/docking_pred/2023-Apr-25-2033_maxeplen5_maxtrainstep200_exh16_gamma099_lrac3e-4_lrcr1e-3/4d620996829bdf69d2437cdb6940cc233521eaf3_ligand_2.pdbqt
 12 12 0 0 0
SMALL
GASTEIGER

@<TRIPOS>ATOM
      1  C          8.2000   -1.0540    0.1190 C.3     1  UNL1        0.1270
      2  C          7.8910   -2.3230    0.8270 C.2     1  UNL1        0.3030
      3  O          8.7200   -3.2640    0.7870 O.2     1  UNL1       -0.2520
      4  O          6.7110   -2.5130    1.5410 O.3     1  UNL1       -0.4810
      5  H          6.2670   -1.7480    2.0730 H       1  UNL1        0.2960
      6  C          6.9150   -0.5390   -0.4680 C.3     1  UNL1        0.0470
      7  C          6.6580    0.8820   -0.1150 C.2     1  UNL1       -0.0470
      8  C          7.6490    1.6730    0.4320 C.2     1  UNL1        0.0040
      9  C          5.4270    1.4780   -0.3140 C.2     1  UNL1        0.0040
     10  C          7.3990    2.9930    0.7570 C.2     1  UNL1        0.0000
     11  C          5.1760    2.7930    0.0090 C.2     1  UNL1        0.0000
     12  C          6.1680    3.5810    0.5560 C.2     1  UNL1        0.0000
@<TRIPOS>BOND
     1     6     7    1
     2     6     1    1
     3     9     7    2
     4     9    11    1
     5     7     8    1
     6    11    12    2
     7     1     2    1
     8     8    10    2
     9    12    10    1
    10     3     2    2
    11     2     4    1
    12     4     5    1
