@<TRIPOS>MOLECULE
/home/cewinharhar/GITHUB/reincatalyze/data/processed/docking_pred/2023-Apr-25-2033_maxeplen5_maxtrainstep200_exh16_gamma099_lrac3e-4_lrcr1e-3/4f8338f1f65f27d68c3e57a6b5041c9c59ec4c55_ligand_2.pdbqt
 12 12 0 0 0
SMALL
GASTEIGER

@<TRIPOS>ATOM
      1  C          8.2840   -0.9550   -1.8000 C.3     1  UNL1        0.1270
      2  C          8.3640   -2.0160   -2.8380 C.2     1  UNL1        0.3030
      3  O          7.3040   -2.4730   -3.3290 O.2     1  UNL1       -0.2520
      4  O          9.5770   -2.5260   -3.2930 O.3     1  UNL1       -0.4810
      5  H          9.6300   -3.4060   -3.8290 H       1  UNL1        0.2960
      6  C          7.3320   -1.4320   -0.7380 C.3     1  UNL1        0.0470
      7  C          6.5260   -0.3240   -0.1600 C.2     1  UNL1       -0.0470
      8  C          6.0750   -0.3730    1.1440 C.2     1  UNL1        0.0040
      9  C          6.1910    0.8000   -0.8910 C.2     1  UNL1        0.0040
     10  C          5.3260    0.6620    1.6720 C.2     1  UNL1        0.0000
     11  C          5.4450    1.8330   -0.3680 C.2     1  UNL1        0.0000
     12  C          4.9950    1.7810    0.9360 C.2     1  UNL1        0.0000
@<TRIPOS>BOND
     1     5     4    1
     2     3     2    2
     3     4     2    1
     4     2     1    1
     5     1     6    1
     6     9    11    1
     7     9     7    2
     8     6     7    1
     9    11    12    2
    10     7     8    1
    11    12    10    1
    12     8    10    2
