@<TRIPOS>MOLECULE
/home/cewinharhar/GITHUB/reincatalyze/data/processed/docking_pred/2023-Apr-25-2033_maxeplen5_maxtrainstep200_exh16_gamma099_lrac3e-4_lrcr1e-3/4f8338f1f65f27d68c3e57a6b5041c9c59ec4c55_ligand_2.pdbqt
 12 12 0 0 0
SMALL
GASTEIGER

@<TRIPOS>ATOM
      1  C          5.6130    2.8460   -0.0580 C.3     1  UNL1        0.1270
      2  C          6.2930    3.8620    0.7860 C.2     1  UNL1        0.3030
      3  O          6.9550    4.7730    0.2340 O.2     1  UNL1       -0.2520
      4  O          6.2250    3.8450    2.1770 O.3     1  UNL1       -0.4810
      5  H          6.1100    2.9670    2.7050 H       1  UNL1        0.2960
      6  C          4.9810    1.8410    0.8640 C.3     1  UNL1        0.0470
      7  C          5.7570    0.5760    0.9440 C.2     1  UNL1       -0.0470
      8  C          6.4990    0.1230   -0.1300 C.2     1  UNL1        0.0040
      9  C          5.7790   -0.2040    2.0850 C.2     1  UNL1        0.0040
     10  C          7.2170   -1.0550   -0.0450 C.2     1  UNL1        0.0000
     11  C          6.4940   -1.3770    2.1720 C.2     1  UNL1        0.0000
     12  C          7.2340   -1.8280    1.0970 C.2     1  UNL1        0.0000
@<TRIPOS>BOND
     1     8    10    1
     2     8     7    2
     3     1     2    1
     4     1     6    1
     5    10    12    2
     6     3     2    2
     7     2     4    1
     8     6     7    1
     9     7     9    1
    10    12    11    1
    11     9    11    2
    12     4     5    1
