@<TRIPOS>MOLECULE
/home/cewinharhar/GITHUB/reincatalyze/data/processed/docking_pred/2023-Apr-25-2033_maxeplen5_maxtrainstep200_exh16_gamma099_lrac3e-4_lrcr1e-3/4f8338f1f65f27d68c3e57a6b5041c9c59ec4c55_ligand_2.pdbqt
 12 12 0 0 0
SMALL
GASTEIGER

@<TRIPOS>ATOM
      1  C          8.4360   -0.6410   -2.1080 C.3     1  UNL1        0.1270
      2  C          8.4100   -1.9110   -2.8790 C.2     1  UNL1        0.3030
      3  O          7.3050   -2.3990   -3.2170 O.2     1  UNL1       -0.2520
      4  O          9.5710   -2.5860   -3.2470 O.3     1  UNL1       -0.4810
      5  H         10.2280   -2.9600   -2.5450 H       1  UNL1        0.2960
      6  C          7.0470   -0.0660   -2.1350 C.3     1  UNL1        0.0470
      7  C          6.4730    0.0960   -0.7740 C.2     1  UNL1       -0.0470
      8  C          6.5680   -0.9110    0.1670 C.2     1  UNL1        0.0040
      9  C          5.8220    1.2510   -0.3820 C.2     1  UNL1        0.0040
     10  C          6.0300   -0.7500    1.4300 C.2     1  UNL1        0.0000
     11  C          5.2860    1.4140    0.8760 C.2     1  UNL1        0.0000
     12  C          5.3820    0.4060    1.8130 C.2     1  UNL1        0.0000
@<TRIPOS>BOND
     1     4     2    1
     2     4     5    1
     3     3     2    2
     4     2     1    1
     5     6     1    1
     6     6     7    1
     7     7     9    2
     8     7     8    1
     9     9    11    1
    10     8    10    2
    11    11    12    2
    12    10    12    1
