MODEL 1
REMARK VINA RESULT:      -7.3      0.000      0.000
REMARK SMILES O=C(O)CCc1ccccc1
REMARK SMILES IDX 4 1 2 2 1 3 3 4 5 6 6 7 7 8 11 9 8 10 10 11 9 12
REMARK H PARENT 3 5
REMARK Flexibility Score: inf
ROOT
ATOM      1  C   UNL     1       8.550  -0.618  -2.167  1.00  0.00     0.127 C 
ENDROOT
BRANCH   1   2
ATOM      2  C   UNL     1       8.513  -1.905  -2.910  1.00  0.00     0.303 C 
ATOM      3  O   UNL     1       9.585  -2.524  -3.114  1.00  0.00    -0.252 OA
BRANCH   2   4
ATOM      4  O   UNL     1       7.329  -2.456  -3.393  1.00  0.00    -0.481 OA
ATOM      5  H   UNL     1       7.292  -3.412  -3.778  1.00  0.00     0.296 HD
ENDBRANCH   2   4
ENDBRANCH   1   2
BRANCH   1   6
ATOM      6  C   UNL     1       7.164  -0.034  -2.205  1.00  0.00     0.047 C 
BRANCH   6   7
ATOM      7  C   UNL     1       6.568   0.101  -0.851  1.00  0.00    -0.047 A 
ATOM      8  C   UNL     1       5.894   1.248  -0.477  1.00  0.00     0.004 A 
ATOM      9  C   UNL     1       6.654  -0.904   0.095  1.00  0.00     0.004 A 
ATOM     10  C   UNL     1       5.343   1.363   0.785  1.00  0.00     0.000 A 
ATOM     11  C   UNL     1       6.105  -0.792   1.353  1.00  0.00     0.000 A 
ATOM     12  C   UNL     1       5.433   0.356   1.724  1.00  0.00     0.000 A 
ENDBRANCH   6   7
ENDBRANCH   1   6
TORSDOF 4
ENDMDL
MODEL 2
REMARK VINA RESULT:      -7.3      0.130      1.721
REMARK SMILES O=C(O)CCc1ccccc1
REMARK SMILES IDX 4 1 2 2 1 3 3 4 5 6 6 7 7 8 11 9 8 10 10 11 9 12
REMARK H PARENT 3 5
REMARK Flexibility Score: inf
ROOT
ATOM      1  C   UNL     1       8.436  -0.641  -2.108  1.00  0.00     0.127 C 
ENDROOT
BRANCH   1   2
ATOM      2  C   UNL     1       8.410  -1.911  -2.879  1.00  0.00     0.303 C 
ATOM      3  O   UNL     1       7.305  -2.399  -3.217  1.00  0.00    -0.252 OA
BRANCH   2   4
ATOM      4  O   UNL     1       9.571  -2.586  -3.247  1.00  0.00    -0.481 OA
ATOM      5  H   UNL     1      10.228  -2.960  -2.545  1.00  0.00     0.296 HD
ENDBRANCH   2   4
ENDBRANCH   1   2
BRANCH   1   6
ATOM      6  C   UNL     1       7.047  -0.066  -2.135  1.00  0.00     0.047 C 
BRANCH   6   7
ATOM      7  C   UNL     1       6.473   0.096  -0.774  1.00  0.00    -0.047 A 
ATOM      8  C   UNL     1       6.568  -0.911   0.167  1.00  0.00     0.004 A 
ATOM      9  C   UNL     1       5.822   1.251  -0.382  1.00  0.00     0.004 A 
ATOM     10  C   UNL     1       6.030  -0.750   1.430  1.00  0.00     0.000 A 
ATOM     11  C   UNL     1       5.286   1.414   0.876  1.00  0.00     0.000 A 
ATOM     12  C   UNL     1       5.382   0.406   1.813  1.00  0.00     0.000 A 
ENDBRANCH   6   7
ENDBRANCH   1   6
TORSDOF 4
ENDMDL
MODEL 3
REMARK VINA RESULT:      -7.1      0.662      1.889
REMARK SMILES O=C(O)CCc1ccccc1
REMARK SMILES IDX 4 1 2 2 1 3 3 4 5 6 6 7 7 8 11 9 8 10 10 11 9 12
REMARK H PARENT 3 5
REMARK Flexibility Score: inf
ROOT
ATOM      1  C   UNL     1       8.284  -0.955  -1.800  1.00  0.00     0.127 C 
ENDROOT
BRANCH   1   2
ATOM      2  C   UNL     1       8.364  -2.016  -2.838  1.00  0.00     0.303 C 
ATOM      3  O   UNL     1       7.304  -2.473  -3.329  1.00  0.00    -0.252 OA
BRANCH   2   4
ATOM      4  O   UNL     1       9.577  -2.526  -3.293  1.00  0.00    -0.481 OA
ATOM      5  H   UNL     1       9.630  -3.406  -3.829  1.00  0.00     0.296 HD
ENDBRANCH   2   4
ENDBRANCH   1   2
BRANCH   1   6
ATOM      6  C   UNL     1       7.332  -1.432  -0.738  1.00  0.00     0.047 C 
BRANCH   6   7
ATOM      7  C   UNL     1       6.526  -0.324  -0.160  1.00  0.00    -0.047 A 
ATOM      8  C   UNL     1       6.075  -0.373   1.144  1.00  0.00     0.004 A 
ATOM      9  C   UNL     1       6.191   0.800  -0.891  1.00  0.00     0.004 A 
ATOM     10  C   UNL     1       5.326   0.662   1.672  1.00  0.00     0.000 A 
ATOM     11  C   UNL     1       5.445   1.833  -0.368  1.00  0.00     0.000 A 
ATOM     12  C   UNL     1       4.995   1.781   0.936  1.00  0.00     0.000 A 
ENDBRANCH   6   7
ENDBRANCH   1   6
TORSDOF 4
ENDMDL
MODEL 4
REMARK VINA RESULT:      -6.8      3.365      5.067
REMARK SMILES O=C(O)CCc1ccccc1
REMARK SMILES IDX 4 1 2 2 1 3 3 4 5 6 6 7 7 8 11 9 8 10 10 11 9 12
REMARK H PARENT 3 5
REMARK Flexibility Score: inf
ROOT
ATOM      1  C   UNL     1       5.046   1.798   0.735  1.00  0.00     0.127 C 
ENDROOT
BRANCH   1   2
ATOM      2  C   UNL     1       4.478   1.117   1.927  1.00  0.00     0.303 C 
ATOM      3  O   UNL     1       5.132   0.198   2.477  1.00  0.00    -0.252 OA
BRANCH   2   4
ATOM      4  O   UNL     1       3.240   1.459   2.464  1.00  0.00    -0.481 OA
ATOM      5  H   UNL     1       3.138   1.767   3.444  1.00  0.00     0.296 HD
ENDBRANCH   2   4
ENDBRANCH   1   2
BRANCH   1   6
ATOM      6  C   UNL     1       6.544   1.714   0.836  1.00  0.00     0.047 C 
BRANCH   6   7
ATOM      7  C   UNL     1       7.149   0.971  -0.300  1.00  0.00    -0.047 A 
ATOM      8  C   UNL     1       8.451   1.206  -0.697  1.00  0.00     0.004 A 
ATOM      9  C   UNL     1       6.447   0.014  -1.010  1.00  0.00     0.004 A 
ATOM     10  C   UNL     1       9.003   0.510  -1.755  1.00  0.00     0.000 A 
ATOM     11  C   UNL     1       6.996  -0.681  -2.064  1.00  0.00     0.000 A 
ATOM     12  C   UNL     1       8.297  -0.443  -2.459  1.00  0.00     0.000 A 
ENDBRANCH   6   7
ENDBRANCH   1   6
TORSDOF 4
ENDMDL
MODEL 5
REMARK VINA RESULT:      -6.7      3.853      4.942
REMARK SMILES O=C(O)CCc1ccccc1
REMARK SMILES IDX 4 1 2 2 1 3 3 4 5 6 6 7 7 8 11 9 8 10 10 11 9 12
REMARK H PARENT 3 5
REMARK Flexibility Score: inf
ROOT
ATOM      1  C   UNL     1       5.613   2.846  -0.058  1.00  0.00     0.127 C 
ENDROOT
BRANCH   1   2
ATOM      2  C   UNL     1       6.293   3.862   0.786  1.00  0.00     0.303 C 
ATOM      3  O   UNL     1       6.955   4.773   0.234  1.00  0.00    -0.252 OA
BRANCH   2   4
ATOM      4  O   UNL     1       6.225   3.845   2.177  1.00  0.00    -0.481 OA
ATOM      5  H   UNL     1       6.110   2.967   2.705  1.00  0.00     0.296 HD
ENDBRANCH   2   4
ENDBRANCH   1   2
BRANCH   1   6
ATOM      6  C   UNL     1       4.981   1.841   0.864  1.00  0.00     0.047 C 
BRANCH   6   7
ATOM      7  C   UNL     1       5.757   0.576   0.944  1.00  0.00    -0.047 A 
ATOM      8  C   UNL     1       6.499   0.123  -0.130  1.00  0.00     0.004 A 
ATOM      9  C   UNL     1       5.779  -0.204   2.085  1.00  0.00     0.004 A 
ATOM     10  C   UNL     1       7.217  -1.055  -0.045  1.00  0.00     0.000 A 
ATOM     11  C   UNL     1       6.494  -1.377   2.172  1.00  0.00     0.000 A 
ATOM     12  C   UNL     1       7.234  -1.828   1.097  1.00  0.00     0.000 A 
ENDBRANCH   6   7
ENDBRANCH   1   6
TORSDOF 4
ENDMDL
