@<TRIPOS>MOLECULE
/home/cewinharhar/GITHUB/reincatalyze/data/processed/docking_pred/2023-Apr-25-2033_maxeplen5_maxtrainstep200_exh16_gamma099_lrac3e-4_lrcr1e-3/4f8338f1f65f27d68c3e57a6b5041c9c59ec4c55_ligand_2.pdbqt
 12 12 0 0 0
SMALL
GASTEIGER

@<TRIPOS>ATOM
      1  C          8.5500   -0.6180   -2.1670 C.3     1  UNL1        0.1270
      2  C          8.5130   -1.9050   -2.9100 C.2     1  UNL1        0.3030
      3  O          9.5850   -2.5240   -3.1140 O.2     1  UNL1       -0.2520
      4  O          7.3290   -2.4560   -3.3930 O.3     1  UNL1       -0.4810
      5  H          7.2920   -3.4120   -3.7780 H       1  UNL1        0.2960
      6  C          7.1640   -0.0340   -2.2050 C.3     1  UNL1        0.0470
      7  C          6.5680    0.1010   -0.8510 C.2     1  UNL1       -0.0470
      8  C          5.8940    1.2480   -0.4770 C.2     1  UNL1        0.0040
      9  C          6.6540   -0.9040    0.0950 C.2     1  UNL1        0.0040
     10  C          5.3430    1.3630    0.7850 C.2     1  UNL1        0.0000
     11  C          6.1050   -0.7920    1.3530 C.2     1  UNL1        0.0000
     12  C          5.4330    0.3560    1.7240 C.2     1  UNL1        0.0000
@<TRIPOS>BOND
     1     5     4    1
     2     4     2    1
     3     3     2    2
     4     2     1    1
     5     6     1    1
     6     6     7    1
     7     7     8    2
     8     7     9    1
     9     8    10    1
    10     9    11    2
    11    10    12    2
    12    11    12    1
