@<TRIPOS>MOLECULE
/home/cewinharhar/GITHUB/reincatalyze/data/processed/docking_pred/2023-Apr-25-2033_maxeplen5_maxtrainstep200_exh16_gamma099_lrac3e-4_lrcr1e-3/4f8338f1f65f27d68c3e57a6b5041c9c59ec4c55_ligand_2.pdbqt
 12 12 0 0 0
SMALL
GASTEIGER

@<TRIPOS>ATOM
      1  C          5.0460    1.7980    0.7350 C.3     1  UNL1        0.1270
      2  C          4.4780    1.1170    1.9270 C.2     1  UNL1        0.3030
      3  O          5.1320    0.1980    2.4770 O.2     1  UNL1       -0.2520
      4  O          3.2400    1.4590    2.4640 O.3     1  UNL1       -0.4810
      5  H          3.1380    1.7670    3.4440 H       1  UNL1        0.2960
      6  C          6.5440    1.7140    0.8360 C.3     1  UNL1        0.0470
      7  C          7.1490    0.9710   -0.3000 C.2     1  UNL1       -0.0470
      8  C          8.4510    1.2060   -0.6970 C.2     1  UNL1        0.0040
      9  C          6.4470    0.0140   -1.0100 C.2     1  UNL1        0.0040
     10  C          9.0030    0.5100   -1.7550 C.2     1  UNL1        0.0000
     11  C          6.9960   -0.6810   -2.0640 C.2     1  UNL1        0.0000
     12  C          8.2970   -0.4430   -2.4590 C.2     1  UNL1        0.0000
@<TRIPOS>BOND
     1    12    11    2
     2    12    10    1
     3    11     9    1
     4    10     8    2
     5     9     7    2
     6     8     7    1
     7     7     6    1
     8     1     6    1
     9     1     2    1
    10     2     4    1
    11     2     3    2
    12     4     5    1
