@<TRIPOS>MOLECULE
/home/cewinharhar/GITHUB/reincatalyze/data/processed/docking_pred/2023-Apr-25-2033_maxeplen5_maxtrainstep200_exh16_gamma099_lrac3e-4_lrcr1e-3/5131ba4422f83928eab452067adeb3f7f7723c60_ligand_2.pdbqt
 12 12 0 0 0
SMALL
GASTEIGER

@<TRIPOS>ATOM
      1  C          5.0160    1.8020    0.7200 C.3     1  UNL1        0.1270
      2  C          4.4750    1.1200    1.9250 C.2     1  UNL1        0.3030
      3  O          5.1520    0.2160    2.4720 O.2     1  UNL1       -0.2520
      4  O          3.2390    1.4470    2.4770 O.3     1  UNL1       -0.4810
      5  H          2.3780    0.9400    2.2210 H       1  UNL1        0.2960
      6  C          6.5160    1.7640    0.8140 C.3     1  UNL1        0.0470
      7  C          7.1350    1.0050   -0.3040 C.2     1  UNL1       -0.0470
      8  C          8.4550    1.2060   -0.6610 C.2     1  UNL1        0.0040
      9  C          6.4310    0.0660   -1.0350 C.2     1  UNL1        0.0040
     10  C          9.0200    0.4940   -1.7010 C.2     1  UNL1        0.0000
     11  C          6.9920   -0.6440   -2.0720 C.2     1  UNL1        0.0000
     12  C          8.3110   -0.4410   -2.4270 C.2     1  UNL1        0.0000
@<TRIPOS>BOND
     1    12    11    2
     2    12    10    1
     3    11     9    1
     4    10     8    2
     5     9     7    2
     6     8     7    1
     7     7     6    1
     8     1     6    1
     9     1     2    1
    10     2     3    2
    11     2     4    1
    12     5     4    1
