MODEL 1
REMARK VINA RESULT:      -7.3      0.000      0.000
REMARK SMILES O=C(O)CCc1ccccc1
REMARK SMILES IDX 4 1 2 2 1 3 3 4 5 6 6 7 7 8 11 9 8 10 10 11 9 12
REMARK H PARENT 3 5
REMARK Flexibility Score: inf
ROOT
ATOM      1  C   UNL     1       8.458  -0.608  -2.149  1.00  0.00     0.127 C 
ENDROOT
BRANCH   1   2
ATOM      2  C   UNL     1       8.475  -1.883  -2.911  1.00  0.00     0.303 C 
ATOM      3  O   UNL     1       9.568  -2.472  -3.096  1.00  0.00    -0.252 OA
BRANCH   2   4
ATOM      4  O   UNL     1       7.318  -2.458  -3.431  1.00  0.00    -0.481 OA
ATOM      5  H   UNL     1       7.192  -3.481  -3.477  1.00  0.00     0.296 HD
ENDBRANCH   2   4
ENDBRANCH   1   2
BRANCH   1   6
ATOM      6  C   UNL     1       7.048  -0.086  -2.170  1.00  0.00     0.047 C 
BRANCH   6   7
ATOM      7  C   UNL     1       6.484   0.082  -0.806  1.00  0.00    -0.047 A 
ATOM      8  C   UNL     1       6.591  -0.919   0.141  1.00  0.00     0.004 A 
ATOM      9  C   UNL     1       5.830   1.236  -0.417  1.00  0.00     0.004 A 
ATOM     10  C   UNL     1       6.063  -0.753   1.407  1.00  0.00     0.000 A 
ATOM     11  C   UNL     1       5.303   1.404   0.844  1.00  0.00     0.000 A 
ATOM     12  C   UNL     1       5.411   0.402   1.788  1.00  0.00     0.000 A 
ENDBRANCH   6   7
ENDBRANCH   1   6
TORSDOF 4
ENDMDL
MODEL 2
REMARK VINA RESULT:      -7.2      0.118      1.718
REMARK SMILES O=C(O)CCc1ccccc1
REMARK SMILES IDX 4 1 2 2 1 3 3 4 5 6 6 7 7 8 11 9 8 10 10 11 9 12
REMARK H PARENT 3 5
REMARK Flexibility Score: inf
ROOT
ATOM      1  C   UNL     1       8.432  -0.602  -2.155  1.00  0.00     0.127 C 
ENDROOT
BRANCH   1   2
ATOM      2  C   UNL     1       8.418  -1.892  -2.892  1.00  0.00     0.303 C 
ATOM      3  O   UNL     1       7.317  -2.406  -3.205  1.00  0.00    -0.252 OA
BRANCH   2   4
ATOM      4  O   UNL     1       9.585  -2.560  -3.254  1.00  0.00    -0.481 OA
ATOM      5  H   UNL     1      10.509  -2.105  -3.206  1.00  0.00     0.296 HD
ENDBRANCH   2   4
ENDBRANCH   1   2
BRANCH   1   6
ATOM      6  C   UNL     1       7.025  -0.072  -2.142  1.00  0.00     0.047 C 
BRANCH   6   7
ATOM      7  C   UNL     1       6.478   0.051  -0.766  1.00  0.00    -0.047 A 
ATOM      8  C   UNL     1       5.832   1.200  -0.353  1.00  0.00     0.004 A 
ATOM      9  C   UNL     1       6.586  -0.968   0.163  1.00  0.00     0.004 A 
ATOM     10  C   UNL     1       5.327   1.304   0.929  1.00  0.00     0.000 A 
ATOM     11  C   UNL     1       6.083  -0.867   1.441  1.00  0.00     0.000 A 
ATOM     12  C   UNL     1       5.439   0.283   1.851  1.00  0.00     0.000 A 
ENDBRANCH   6   7
ENDBRANCH   1   6
TORSDOF 4
ENDMDL
MODEL 3
REMARK VINA RESULT:      -6.8      3.380      5.100
REMARK SMILES O=C(O)CCc1ccccc1
REMARK SMILES IDX 4 1 2 2 1 3 3 4 5 6 6 7 7 8 11 9 8 10 10 11 9 12
REMARK H PARENT 3 5
REMARK Flexibility Score: inf
ROOT
ATOM      1  C   UNL     1       5.016   1.802   0.720  1.00  0.00     0.127 C 
ENDROOT
BRANCH   1   2
ATOM      2  C   UNL     1       4.475   1.120   1.925  1.00  0.00     0.303 C 
ATOM      3  O   UNL     1       5.152   0.216   2.472  1.00  0.00    -0.252 OA
BRANCH   2   4
ATOM      4  O   UNL     1       3.239   1.447   2.477  1.00  0.00    -0.481 OA
ATOM      5  H   UNL     1       2.378   0.940   2.221  1.00  0.00     0.296 HD
ENDBRANCH   2   4
ENDBRANCH   1   2
BRANCH   1   6
ATOM      6  C   UNL     1       6.516   1.764   0.814  1.00  0.00     0.047 C 
BRANCH   6   7
ATOM      7  C   UNL     1       7.135   1.005  -0.304  1.00  0.00    -0.047 A 
ATOM      8  C   UNL     1       8.455   1.206  -0.661  1.00  0.00     0.004 A 
ATOM      9  C   UNL     1       6.431   0.066  -1.035  1.00  0.00     0.004 A 
ATOM     10  C   UNL     1       9.020   0.494  -1.701  1.00  0.00     0.000 A 
ATOM     11  C   UNL     1       6.992  -0.644  -2.072  1.00  0.00     0.000 A 
ATOM     12  C   UNL     1       8.311  -0.441  -2.427  1.00  0.00     0.000 A 
ENDBRANCH   6   7
ENDBRANCH   1   6
TORSDOF 4
ENDMDL
MODEL 4
REMARK VINA RESULT:      -6.6      1.895      2.635
REMARK SMILES O=C(O)CCc1ccccc1
REMARK SMILES IDX 4 1 2 2 1 3 3 4 5 6 6 7 7 8 11 9 8 10 10 11 9 12
REMARK H PARENT 3 5
REMARK Flexibility Score: inf
ROOT
ATOM      1  C   UNL     1       8.227   0.234  -2.283  1.00  0.00     0.127 C 
ENDROOT
BRANCH   1   2
ATOM      2  C   UNL     1       9.351   0.347  -1.317  1.00  0.00     0.303 C 
ATOM      3  O   UNL     1       9.399  -0.438  -0.340  1.00  0.00    -0.252 OA
BRANCH   2   4
ATOM      4  O   UNL     1      10.360   1.297  -1.453  1.00  0.00    -0.481 OA
ATOM      5  H   UNL     1      11.034   1.267  -2.233  1.00  0.00     0.296 HD
ENDBRANCH   2   4
ENDBRANCH   1   2
BRANCH   1   6
ATOM      6  C   UNL     1       7.126  -0.536  -1.608  1.00  0.00     0.047 C 
BRANCH   6   7
ATOM      7  C   UNL     1       6.339   0.305  -0.669  1.00  0.00    -0.047 A 
ATOM      8  C   UNL     1       5.803   1.514  -1.068  1.00  0.00     0.004 A 
ATOM      9  C   UNL     1       6.104  -0.077   0.639  1.00  0.00     0.004 A 
ATOM     10  C   UNL     1       5.072   2.288  -0.186  1.00  0.00     0.000 A 
ATOM     11  C   UNL     1       5.376   0.693   1.520  1.00  0.00     0.000 A 
ATOM     12  C   UNL     1       4.842   1.901   1.118  1.00  0.00     0.000 A 
ENDBRANCH   6   7
ENDBRANCH   1   6
TORSDOF 4
ENDMDL
MODEL 5
REMARK VINA RESULT:      -6.6      3.722      5.091
REMARK SMILES O=C(O)CCc1ccccc1
REMARK SMILES IDX 4 1 2 2 1 3 3 4 5 6 6 7 7 8 11 9 8 10 10 11 9 12
REMARK H PARENT 3 5
REMARK Flexibility Score: inf
ROOT
ATOM      1  C   UNL     1       5.350   2.964   0.032  1.00  0.00     0.127 C 
ENDROOT
BRANCH   1   2
ATOM      2  C   UNL     1       6.220   3.856   0.841  1.00  0.00     0.303 C 
ATOM      3  O   UNL     1       6.863   4.769   0.267  1.00  0.00    -0.252 OA
BRANCH   2   4
ATOM      4  O   UNL     1       6.354   3.721   2.220  1.00  0.00    -0.481 OA
ATOM      5  H   UNL     1       6.979   3.016   2.640  1.00  0.00     0.296 HD
ENDBRANCH   2   4
ENDBRANCH   1   2
BRANCH   1   6
ATOM      6  C   UNL     1       5.181   1.681   0.798  1.00  0.00     0.047 C 
BRANCH   6   7
ATOM      7  C   UNL     1       5.999   0.573   0.238  1.00  0.00    -0.047 A 
ATOM      8  C   UNL     1       6.351   0.549  -1.097  1.00  0.00     0.004 A 
ATOM      9  C   UNL     1       6.445  -0.477   1.018  1.00  0.00     0.004 A 
ATOM     10  C   UNL     1       7.112  -0.486  -1.607  1.00  0.00     0.000 A 
ATOM     11  C   UNL     1       7.204  -1.509   0.512  1.00  0.00     0.000 A 
ATOM     12  C   UNL     1       7.554  -1.532  -0.824  1.00  0.00     0.000 A 
ENDBRANCH   6   7
ENDBRANCH   1   6
TORSDOF 4
ENDMDL
