@<TRIPOS>MOLECULE
/home/cewinharhar/GITHUB/reincatalyze/data/processed/docking_pred/2023-Apr-25-2033_maxeplen5_maxtrainstep200_exh16_gamma099_lrac3e-4_lrcr1e-3/5131ba4422f83928eab452067adeb3f7f7723c60_ligand_2.pdbqt
 12 12 0 0 0
SMALL
GASTEIGER

@<TRIPOS>ATOM
      1  C          8.4320   -0.6020   -2.1550 C.3     1  UNL1        0.1270
      2  C          8.4180   -1.8920   -2.8920 C.2     1  UNL1        0.3030
      3  O          7.3170   -2.4060   -3.2050 O.2     1  UNL1       -0.2520
      4  O          9.5850   -2.5600   -3.2540 O.3     1  UNL1       -0.4810
      5  H         10.5090   -2.1050   -3.2060 H       1  UNL1        0.2960
      6  C          7.0250   -0.0720   -2.1420 C.3     1  UNL1        0.0470
      7  C          6.4780    0.0510   -0.7660 C.2     1  UNL1       -0.0470
      8  C          5.8320    1.2000   -0.3530 C.2     1  UNL1        0.0040
      9  C          6.5860   -0.9680    0.1630 C.2     1  UNL1        0.0040
     10  C          5.3270    1.3040    0.9290 C.2     1  UNL1        0.0000
     11  C          6.0830   -0.8670    1.4410 C.2     1  UNL1        0.0000
     12  C          5.4390    0.2830    1.8510 C.2     1  UNL1        0.0000
@<TRIPOS>BOND
     1     4     5    1
     2     4     2    1
     3     3     2    2
     4     2     1    1
     5     1     6    1
     6     6     7    1
     7     7     8    2
     8     7     9    1
     9     8    10    1
    10     9    11    2
    11    10    12    2
    12    11    12    1
