@<TRIPOS>MOLECULE
/home/cewinharhar/GITHUB/reincatalyze/data/processed/docking_pred/2023-Apr-25-2033_maxeplen5_maxtrainstep200_exh16_gamma099_lrac3e-4_lrcr1e-3/5131ba4422f83928eab452067adeb3f7f7723c60_ligand_2.pdbqt
 12 12 0 0 0
SMALL
GASTEIGER

@<TRIPOS>ATOM
      1  C          8.4580   -0.6080   -2.1490 C.3     1  UNL1        0.1270
      2  C          8.4750   -1.8830   -2.9110 C.2     1  UNL1        0.3030
      3  O          9.5680   -2.4720   -3.0960 O.2     1  UNL1       -0.2520
      4  O          7.3180   -2.4580   -3.4310 O.3     1  UNL1       -0.4810
      5  H          7.1920   -3.4810   -3.4770 H       1  UNL1        0.2960
      6  C          7.0480   -0.0860   -2.1700 C.3     1  UNL1        0.0470
      7  C          6.4840    0.0820   -0.8060 C.2     1  UNL1       -0.0470
      8  C          6.5910   -0.9190    0.1410 C.2     1  UNL1        0.0040
      9  C          5.8300    1.2360   -0.4170 C.2     1  UNL1        0.0040
     10  C          6.0630   -0.7530    1.4070 C.2     1  UNL1        0.0000
     11  C          5.3030    1.4040    0.8440 C.2     1  UNL1        0.0000
     12  C          5.4110    0.4020    1.7880 C.2     1  UNL1        0.0000
@<TRIPOS>BOND
     1     5     4    1
     2     4     2    1
     3     3     2    2
     4     2     1    1
     5     6     1    1
     6     6     7    1
     7     7     9    2
     8     7     8    1
     9     9    11    1
    10     8    10    2
    11    11    12    2
    12    10    12    1
