@<TRIPOS>MOLECULE
/home/cewinharhar/GITHUB/reincatalyze/data/processed/docking_pred/2023-Apr-25-2033_maxeplen5_maxtrainstep200_exh16_gamma099_lrac3e-4_lrcr1e-3/5131ba4422f83928eab452067adeb3f7f7723c60_ligand_2.pdbqt
 12 12 0 0 0
SMALL
GASTEIGER

@<TRIPOS>ATOM
      1  C          5.3500    2.9640    0.0320 C.3     1  UNL1        0.1270
      2  C          6.2200    3.8560    0.8410 C.2     1  UNL1        0.3030
      3  O          6.8630    4.7690    0.2670 O.2     1  UNL1       -0.2520
      4  O          6.3540    3.7210    2.2200 O.3     1  UNL1       -0.4810
      5  H          6.9790    3.0160    2.6400 H       1  UNL1        0.2960
      6  C          5.1810    1.6810    0.7980 C.3     1  UNL1        0.0470
      7  C          5.9990    0.5730    0.2380 C.2     1  UNL1       -0.0470
      8  C          6.3510    0.5490   -1.0970 C.2     1  UNL1        0.0040
      9  C          6.4450   -0.4770    1.0180 C.2     1  UNL1        0.0040
     10  C          7.1120   -0.4860   -1.6070 C.2     1  UNL1        0.0000
     11  C          7.2040   -1.5090    0.5120 C.2     1  UNL1        0.0000
     12  C          7.5540   -1.5320   -0.8240 C.2     1  UNL1        0.0000
@<TRIPOS>BOND
     1    10     8    1
     2    10    12    2
     3     8     7    2
     4    12    11    1
     5     1     6    1
     6     1     2    1
     7     7     6    1
     8     7     9    1
     9     3     2    2
    10    11     9    2
    11     2     4    1
    12     4     5    1
