@<TRIPOS>MOLECULE
/home/cewinharhar/GITHUB/reincatalyze/data/processed/docking_pred/2023-Apr-25-2033_maxeplen5_maxtrainstep200_exh16_gamma099_lrac3e-4_lrcr1e-3/5131ba4422f83928eab452067adeb3f7f7723c60_ligand_2.pdbqt
 12 12 0 0 0
SMALL
GASTEIGER

@<TRIPOS>ATOM
      1  C          8.2270    0.2340   -2.2830 C.3     1  UNL1        0.1270
      2  C          9.3510    0.3470   -1.3170 C.2     1  UNL1        0.3030
      3  O          9.3990   -0.4380   -0.3400 O.2     1  UNL1       -0.2520
      4  O         10.3600    1.2970   -1.4530 O.3     1  UNL1       -0.4810
      5  H         11.0340    1.2670   -2.2330 H       1  UNL1        0.2960
      6  C          7.1260   -0.5360   -1.6080 C.3     1  UNL1        0.0470
      7  C          6.3390    0.3050   -0.6690 C.2     1  UNL1       -0.0470
      8  C          5.8030    1.5140   -1.0680 C.2     1  UNL1        0.0040
      9  C          6.1040   -0.0770    0.6390 C.2     1  UNL1        0.0040
     10  C          5.0720    2.2880   -0.1860 C.2     1  UNL1        0.0000
     11  C          5.3760    0.6930    1.5200 C.2     1  UNL1        0.0000
     12  C          4.8420    1.9010    1.1180 C.2     1  UNL1        0.0000
@<TRIPOS>BOND
     1     1     6    1
     2     1     2    1
     3     5     4    1
     4     6     7    1
     5     4     2    1
     6     2     3    2
     7     8     7    2
     8     8    10    1
     9     7     9    1
    10    10    12    2
    11     9    11    2
    12    12    11    1
