MODEL 1
REMARK VINA RESULT:      -7.3      0.000      0.000
REMARK SMILES O=C(O)CCc1ccccc1
REMARK SMILES IDX 4 1 2 2 1 3 3 4 5 6 6 7 7 8 11 9 8 10 10 11 9 12
REMARK H PARENT 3 5
REMARK Flexibility Score: inf
ROOT
ATOM      1  C   UNL     1       8.450  -0.552  -2.231  1.00  0.00     0.127 C 
ENDROOT
BRANCH   1   2
ATOM      2  C   UNL     1       8.473  -1.861  -2.933  1.00  0.00     0.303 C 
ATOM      3  O   UNL     1       9.569  -2.453  -3.089  1.00  0.00    -0.252 OA
BRANCH   2   4
ATOM      4  O   UNL     1       7.320  -2.465  -3.429  1.00  0.00    -0.481 OA
ATOM      5  H   UNL     1       6.554  -2.766  -2.807  1.00  0.00     0.296 HD
ENDBRANCH   2   4
ENDBRANCH   1   2
BRANCH   1   6
ATOM      6  C   UNL     1       7.025  -0.071  -2.217  1.00  0.00     0.047 C 
BRANCH   6   7
ATOM      7  C   UNL     1       6.489   0.072  -0.838  1.00  0.00    -0.047 A 
ATOM      8  C   UNL     1       6.599  -0.951   0.083  1.00  0.00     0.004 A 
ATOM      9  C   UNL     1       5.859   1.227  -0.410  1.00  0.00     0.004 A 
ATOM     10  C   UNL     1       6.097  -0.807   1.362  1.00  0.00     0.000 A 
ATOM     11  C   UNL     1       5.358   1.373   0.864  1.00  0.00     0.000 A 
ATOM     12  C   UNL     1       5.469   0.348   1.782  1.00  0.00     0.000 A 
ENDBRANCH   6   7
ENDBRANCH   1   6
TORSDOF 4
ENDMDL
MODEL 2
REMARK VINA RESULT:      -7.3      0.122      1.718
REMARK SMILES O=C(O)CCc1ccccc1
REMARK SMILES IDX 4 1 2 2 1 3 3 4 5 6 6 7 7 8 11 9 8 10 10 11 9 12
REMARK H PARENT 3 5
REMARK Flexibility Score: inf
ROOT
ATOM      1  C   UNL     1       8.444  -0.625  -2.123  1.00  0.00     0.127 C 
ENDROOT
BRANCH   1   2
ATOM      2  C   UNL     1       8.419  -1.907  -2.873  1.00  0.00     0.303 C 
ATOM      3  O   UNL     1       7.314  -2.405  -3.197  1.00  0.00    -0.252 OA
BRANCH   2   4
ATOM      4  O   UNL     1       9.581  -2.584  -3.235  1.00  0.00    -0.481 OA
ATOM      5  H   UNL     1      10.275  -2.886  -2.534  1.00  0.00     0.296 HD
ENDBRANCH   2   4
ENDBRANCH   1   2
BRANCH   1   6
ATOM      6  C   UNL     1       7.048  -0.065  -2.136  1.00  0.00     0.047 C 
BRANCH   6   7
ATOM      7  C   UNL     1       6.483   0.083  -0.770  1.00  0.00    -0.047 A 
ATOM      8  C   UNL     1       5.832   1.240  -0.386  1.00  0.00     0.004 A 
ATOM      9  C   UNL     1       6.577  -0.918   0.178  1.00  0.00     0.004 A 
ATOM     10  C   UNL     1       5.310   1.368   0.887  1.00  0.00     0.000 A 
ATOM     11  C   UNL     1       6.058  -0.794   1.447  1.00  0.00     0.000 A 
ATOM     12  C   UNL     1       5.408   0.363   1.828  1.00  0.00     0.000 A 
ENDBRANCH   6   7
ENDBRANCH   1   6
TORSDOF 4
ENDMDL
MODEL 3
REMARK VINA RESULT:      -7.2      0.675      1.611
REMARK SMILES O=C(O)CCc1ccccc1
REMARK SMILES IDX 4 1 2 2 1 3 3 4 5 6 6 7 7 8 11 9 8 10 10 11 9 12
REMARK H PARENT 3 5
REMARK Flexibility Score: inf
ROOT
ATOM      1  C   UNL     1       8.311  -0.939  -1.835  1.00  0.00     0.127 C 
ENDROOT
BRANCH   1   2
ATOM      2  C   UNL     1       8.394  -2.026  -2.845  1.00  0.00     0.303 C 
ATOM      3  O   UNL     1       9.513  -2.524  -3.118  1.00  0.00    -0.252 OA
BRANCH   2   4
ATOM      4  O   UNL     1       7.272  -2.519  -3.506  1.00  0.00    -0.481 OA
ATOM      5  H   UNL     1       7.287  -3.422  -4.005  1.00  0.00     0.296 HD
ENDBRANCH   2   4
ENDBRANCH   1   2
BRANCH   1   6
ATOM      6  C   UNL     1       7.422  -1.421  -0.723  1.00  0.00     0.047 C 
BRANCH   6   7
ATOM      7  C   UNL     1       6.583  -0.334  -0.154  1.00  0.00    -0.047 A 
ATOM      8  C   UNL     1       6.244   0.775  -0.906  1.00  0.00     0.004 A 
ATOM      9  C   UNL     1       6.103  -0.376   1.141  1.00  0.00     0.004 A 
ATOM     10  C   UNL     1       5.463   1.780  -0.367  1.00  0.00     0.000 A 
ATOM     11  C   UNL     1       5.325   0.625   1.680  1.00  0.00     0.000 A 
ATOM     12  C   UNL     1       4.988   1.732   0.927  1.00  0.00     0.000 A 
ENDBRANCH   6   7
ENDBRANCH   1   6
TORSDOF 4
ENDMDL
MODEL 4
REMARK VINA RESULT:      -6.8      3.389      5.070
REMARK SMILES O=C(O)CCc1ccccc1
REMARK SMILES IDX 4 1 2 2 1 3 3 4 5 6 6 7 7 8 11 9 8 10 10 11 9 12
REMARK H PARENT 3 5
REMARK Flexibility Score: inf
ROOT
ATOM      1  C   UNL     1       5.012   1.773   0.731  1.00  0.00     0.127 C 
ENDROOT
BRANCH   1   2
ATOM      2  C   UNL     1       4.457   1.105   1.937  1.00  0.00     0.303 C 
ATOM      3  O   UNL     1       5.117   0.192   2.490  1.00  0.00    -0.252 OA
BRANCH   2   4
ATOM      4  O   UNL     1       3.225   1.454   2.484  1.00  0.00    -0.481 OA
ATOM      5  H   UNL     1       3.051   1.418   3.500  1.00  0.00     0.296 HD
ENDBRANCH   2   4
ENDBRANCH   1   2
BRANCH   1   6
ATOM      6  C   UNL     1       6.511   1.727   0.838  1.00  0.00     0.047 C 
BRANCH   6   7
ATOM      7  C   UNL     1       7.138   0.982  -0.285  1.00  0.00    -0.047 A 
ATOM      8  C   UNL     1       6.431   0.030  -0.994  1.00  0.00     0.004 A 
ATOM      9  C   UNL     1       8.446   1.202  -0.675  1.00  0.00     0.004 A 
ATOM     10  C   UNL     1       7.023  -0.657  -2.037  1.00  0.00     0.000 A 
ATOM     11  C   UNL     1       9.038   0.518  -1.714  1.00  0.00     0.000 A 
ATOM     12  C   UNL     1       8.330  -0.433  -2.420  1.00  0.00     0.000 A 
ENDBRANCH   6   7
ENDBRANCH   1   6
TORSDOF 4
ENDMDL
MODEL 5
REMARK VINA RESULT:      -6.5      1.885      2.831
REMARK SMILES O=C(O)CCc1ccccc1
REMARK SMILES IDX 4 1 2 2 1 3 3 4 5 6 6 7 7 8 11 9 8 10 10 11 9 12
REMARK H PARENT 3 5
REMARK Flexibility Score: inf
ROOT
ATOM      1  C   UNL     1       8.281  -1.530   1.032  1.00  0.00     0.127 C 
ENDROOT
BRANCH   1   2
ATOM      2  C   UNL     1       8.509  -2.781   0.264  1.00  0.00     0.303 C 
ATOM      3  O   UNL     1       9.095  -3.743   0.818  1.00  0.00    -0.252 OA
BRANCH   2   4
ATOM      4  O   UNL     1       8.095  -2.933  -1.057  1.00  0.00    -0.481 OA
ATOM      5  H   UNL     1       7.982  -2.124  -1.688  1.00  0.00     0.296 HD
ENDBRANCH   2   4
ENDBRANCH   1   2
BRANCH   1   6
ATOM      6  C   UNL     1       6.805  -1.424   1.297  1.00  0.00     0.047 C 
BRANCH   6   7
ATOM      7  C   UNL     1       6.220  -0.168   0.759  1.00  0.00    -0.047 A 
ATOM      8  C   UNL     1       6.444   0.223  -0.547  1.00  0.00     0.004 A 
ATOM      9  C   UNL     1       5.430   0.665   1.529  1.00  0.00     0.004 A 
ATOM     10  C   UNL     1       5.896   1.393  -1.037  1.00  0.00     0.000 A 
ATOM     11  C   UNL     1       4.883   1.831   1.043  1.00  0.00     0.000 A 
ATOM     12  C   UNL     1       5.108   2.220  -0.262  1.00  0.00     0.000 A 
ENDBRANCH   6   7
ENDBRANCH   1   6
TORSDOF 4
ENDMDL
