@<TRIPOS>MOLECULE
/home/cewinharhar/GITHUB/reincatalyze/data/processed/docking_pred/2023-Apr-25-2033_maxeplen5_maxtrainstep200_exh16_gamma099_lrac3e-4_lrcr1e-3/51335195432d6c3c52ef841bfe8bb9323d602809_ligand_2.pdbqt
 12 12 0 0 0
SMALL
GASTEIGER

@<TRIPOS>ATOM
      1  C          8.3110   -0.9390   -1.8350 C.3     1  UNL1        0.1270
      2  C          8.3940   -2.0260   -2.8450 C.2     1  UNL1        0.3030
      3  O          9.5130   -2.5240   -3.1180 O.2     1  UNL1       -0.2520
      4  O          7.2720   -2.5190   -3.5060 O.3     1  UNL1       -0.4810
      5  H          7.2870   -3.4220   -4.0050 H       1  UNL1        0.2960
      6  C          7.4220   -1.4210   -0.7230 C.3     1  UNL1        0.0470
      7  C          6.5830   -0.3340   -0.1540 C.2     1  UNL1       -0.0470
      8  C          6.2440    0.7750   -0.9060 C.2     1  UNL1        0.0040
      9  C          6.1030   -0.3760    1.1410 C.2     1  UNL1        0.0040
     10  C          5.4630    1.7800   -0.3670 C.2     1  UNL1        0.0000
     11  C          5.3250    0.6250    1.6800 C.2     1  UNL1        0.0000
     12  C          4.9880    1.7320    0.9270 C.2     1  UNL1        0.0000
@<TRIPOS>BOND
     1     5     4    1
     2     4     2    1
     3     3     2    2
     4     2     1    1
     5     1     6    1
     6     8    10    1
     7     8     7    2
     8     6     7    1
     9    10    12    2
    10     7     9    1
    11    12    11    1
    12     9    11    2
