@<TRIPOS>MOLECULE
/home/cewinharhar/GITHUB/reincatalyze/data/processed/docking_pred/2023-Apr-25-2033_maxeplen5_maxtrainstep200_exh16_gamma099_lrac3e-4_lrcr1e-3/51335195432d6c3c52ef841bfe8bb9323d602809_ligand_2.pdbqt
 12 12 0 0 0
SMALL
GASTEIGER

@<TRIPOS>ATOM
      1  C          8.4500   -0.5520   -2.2310 C.3     1  UNL1        0.1270
      2  C          8.4730   -1.8610   -2.9330 C.2     1  UNL1        0.3030
      3  O          9.5690   -2.4530   -3.0890 O.2     1  UNL1       -0.2520
      4  O          7.3200   -2.4650   -3.4290 O.3     1  UNL1       -0.4810
      5  H          6.5540   -2.7660   -2.8070 H       1  UNL1        0.2960
      6  C          7.0250   -0.0710   -2.2170 C.3     1  UNL1        0.0470
      7  C          6.4890    0.0720   -0.8380 C.2     1  UNL1       -0.0470
      8  C          6.5990   -0.9510    0.0830 C.2     1  UNL1        0.0040
      9  C          5.8590    1.2270   -0.4100 C.2     1  UNL1        0.0040
     10  C          6.0970   -0.8070    1.3620 C.2     1  UNL1        0.0000
     11  C          5.3580    1.3730    0.8640 C.2     1  UNL1        0.0000
     12  C          5.4690    0.3480    1.7820 C.2     1  UNL1        0.0000
@<TRIPOS>BOND
     1     4     2    1
     2     4     5    1
     3     3     2    2
     4     2     1    1
     5     1     6    1
     6     6     7    1
     7     7     9    2
     8     7     8    1
     9     9    11    1
    10     8    10    2
    11    11    12    2
    12    10    12    1
