@<TRIPOS>MOLECULE
/home/cewinharhar/GITHUB/reincatalyze/data/processed/docking_pred/2023-Apr-25-2033_maxeplen5_maxtrainstep200_exh16_gamma099_lrac3e-4_lrcr1e-3/51335195432d6c3c52ef841bfe8bb9323d602809_ligand_2.pdbqt
 12 12 0 0 0
SMALL
GASTEIGER

@<TRIPOS>ATOM
      1  C          8.4440   -0.6250   -2.1230 C.3     1  UNL1        0.1270
      2  C          8.4190   -1.9070   -2.8730 C.2     1  UNL1        0.3030
      3  O          7.3140   -2.4050   -3.1970 O.2     1  UNL1       -0.2520
      4  O          9.5810   -2.5840   -3.2350 O.3     1  UNL1       -0.4810
      5  H         10.2750   -2.8860   -2.5340 H       1  UNL1        0.2960
      6  C          7.0480   -0.0650   -2.1360 C.3     1  UNL1        0.0470
      7  C          6.4830    0.0830   -0.7700 C.2     1  UNL1       -0.0470
      8  C          5.8320    1.2400   -0.3860 C.2     1  UNL1        0.0040
      9  C          6.5770   -0.9180    0.1780 C.2     1  UNL1        0.0040
     10  C          5.3100    1.3680    0.8870 C.2     1  UNL1        0.0000
     11  C          6.0580   -0.7940    1.4470 C.2     1  UNL1        0.0000
     12  C          5.4080    0.3630    1.8280 C.2     1  UNL1        0.0000
@<TRIPOS>BOND
     1     4     2    1
     2     4     5    1
     3     3     2    2
     4     2     1    1
     5     6     1    1
     6     6     7    1
     7     7     8    2
     8     7     9    1
     9     8    10    1
    10     9    11    2
    11    10    12    2
    12    11    12    1
