@<TRIPOS>MOLECULE
/home/cewinharhar/GITHUB/reincatalyze/data/processed/docking_pred/2023-Apr-25-2033_maxeplen5_maxtrainstep200_exh16_gamma099_lrac3e-4_lrcr1e-3/51335195432d6c3c52ef841bfe8bb9323d602809_ligand_2.pdbqt
 12 12 0 0 0
SMALL
GASTEIGER

@<TRIPOS>ATOM
      1  C          8.2810   -1.5300    1.0320 C.3     1  UNL1        0.1270
      2  C          8.5090   -2.7810    0.2640 C.2     1  UNL1        0.3030
      3  O          9.0950   -3.7430    0.8180 O.2     1  UNL1       -0.2520
      4  O          8.0950   -2.9330   -1.0570 O.3     1  UNL1       -0.4810
      5  H          7.9820   -2.1240   -1.6880 H       1  UNL1        0.2960
      6  C          6.8050   -1.4240    1.2970 C.3     1  UNL1        0.0470
      7  C          6.2200   -0.1680    0.7590 C.2     1  UNL1       -0.0470
      8  C          6.4440    0.2230   -0.5470 C.2     1  UNL1        0.0040
      9  C          5.4300    0.6650    1.5290 C.2     1  UNL1        0.0040
     10  C          5.8960    1.3930   -1.0370 C.2     1  UNL1        0.0000
     11  C          4.8830    1.8310    1.0430 C.2     1  UNL1        0.0000
     12  C          5.1080    2.2200   -0.2620 C.2     1  UNL1        0.0000
@<TRIPOS>BOND
     1     5     4    1
     2     4     2    1
     3    10     8    1
     4    10    12    2
     5     8     7    2
     6    12    11    1
     7     2     3    2
     8     2     1    1
     9     7     6    1
    10     7     9    1
    11     1     6    1
    12    11     9    2
