@<TRIPOS>MOLECULE
/home/cewinharhar/GITHUB/reincatalyze/data/processed/docking_pred/2023-Apr-25-2033_maxeplen5_maxtrainstep200_exh16_gamma099_lrac3e-4_lrcr1e-3/51335195432d6c3c52ef841bfe8bb9323d602809_ligand_2.pdbqt
 12 12 0 0 0
SMALL
GASTEIGER

@<TRIPOS>ATOM
      1  C          5.0120    1.7730    0.7310 C.3     1  UNL1        0.1270
      2  C          4.4570    1.1050    1.9370 C.2     1  UNL1        0.3030
      3  O          5.1170    0.1920    2.4900 O.2     1  UNL1       -0.2520
      4  O          3.2250    1.4540    2.4840 O.3     1  UNL1       -0.4810
      5  H          3.0510    1.4180    3.5000 H       1  UNL1        0.2960
      6  C          6.5110    1.7270    0.8380 C.3     1  UNL1        0.0470
      7  C          7.1380    0.9820   -0.2850 C.2     1  UNL1       -0.0470
      8  C          6.4310    0.0300   -0.9940 C.2     1  UNL1        0.0040
      9  C          8.4460    1.2020   -0.6750 C.2     1  UNL1        0.0040
     10  C          7.0230   -0.6570   -2.0370 C.2     1  UNL1        0.0000
     11  C          9.0380    0.5180   -1.7140 C.2     1  UNL1        0.0000
     12  C          8.3300   -0.4330   -2.4200 C.2     1  UNL1        0.0000
@<TRIPOS>BOND
     1    12    10    2
     2    12    11    1
     3    10     8    1
     4    11     9    2
     5     8     7    2
     6     9     7    1
     7     7     6    1
     8     1     6    1
     9     1     2    1
    10     2     4    1
    11     2     3    2
    12     4     5    1
