@<TRIPOS>MOLECULE
/home/cewinharhar/GITHUB/reincatalyze/data/processed/docking_pred/2023-Apr-25-2033_maxeplen5_maxtrainstep200_exh16_gamma099_lrac3e-4_lrcr1e-3/53c3fbcdd7c01d09a3e8b21e27d629f70ce21da9_ligand_2.pdbqt
 12 12 0 0 0
SMALL
GASTEIGER

@<TRIPOS>ATOM
      1  C          8.4360   -0.5890   -2.1720 C.3     1  UNL1        0.1270
      2  C          8.4260   -1.8810   -2.9050 C.2     1  UNL1        0.3030
      3  O          7.3270   -2.4000   -3.2160 O.2     1  UNL1       -0.2520
      4  O          9.5960   -2.5450   -3.2660 O.3     1  UNL1       -0.4810
      5  H         10.2720   -2.8780   -2.5610 H       1  UNL1        0.2960
      6  C          7.0260   -0.0660   -2.1560 C.3     1  UNL1        0.0470
      7  C          6.4840    0.0610   -0.7780 C.2     1  UNL1       -0.0470
      8  C          5.8370    1.2110   -0.3680 C.2     1  UNL1        0.0040
      9  C          6.5960   -0.9540    0.1530 C.2     1  UNL1        0.0040
     10  C          5.3360    1.3190    0.9160 C.2     1  UNL1        0.0000
     11  C          6.0970   -0.8480    1.4330 C.2     1  UNL1        0.0000
     12  C          5.4520    0.3020    1.8400 C.2     1  UNL1        0.0000
@<TRIPOS>BOND
     1     4     2    1
     2     4     5    1
     3     3     2    2
     4     2     1    1
     5     1     6    1
     6     6     7    1
     7     7     8    2
     8     7     9    1
     9     8    10    1
    10     9    11    2
    11    10    12    2
    12    11    12    1
