@<TRIPOS>MOLECULE
/home/cewinharhar/GITHUB/reincatalyze/data/processed/docking_pred/2023-Apr-25-2033_maxeplen5_maxtrainstep200_exh16_gamma099_lrac3e-4_lrcr1e-3/53c3fbcdd7c01d09a3e8b21e27d629f70ce21da9_ligand_2.pdbqt
 12 12 0 0 0
SMALL
GASTEIGER

@<TRIPOS>ATOM
      1  C          8.4580   -0.5530   -2.2250 C.3     1  UNL1        0.1270
      2  C          8.4770   -1.8560   -2.9390 C.2     1  UNL1        0.3030
      3  O          9.5690   -2.4550   -3.0910 O.2     1  UNL1       -0.2520
      4  O          7.3230   -2.4450   -3.4490 O.3     1  UNL1       -0.4810
      5  H          7.0930   -2.4090   -4.4540 H       1  UNL1        0.2960
      6  C          7.0350   -0.0660   -2.2090 C.3     1  UNL1        0.0470
      7  C          6.4970    0.0680   -0.8300 C.2     1  UNL1       -0.0470
      8  C          6.6120   -0.9590    0.0860 C.2     1  UNL1        0.0040
      9  C          5.8620    1.2180   -0.3980 C.2     1  UNL1        0.0040
     10  C          6.1070   -0.8230    1.3650 C.2     1  UNL1        0.0000
     11  C          5.3590    1.3550    0.8770 C.2     1  UNL1        0.0000
     12  C          5.4740    0.3270    1.7900 C.2     1  UNL1        0.0000
@<TRIPOS>BOND
     1     5     4    1
     2     4     2    1
     3     3     2    2
     4     2     1    1
     5     1     6    1
     6     6     7    1
     7     7     9    2
     8     7     8    1
     9     9    11    1
    10     8    10    2
    11    11    12    2
    12    10    12    1
