@<TRIPOS>MOLECULE
/home/cewinharhar/GITHUB/reincatalyze/data/processed/docking_pred/2023-Apr-25-2033_maxeplen5_maxtrainstep200_exh16_gamma099_lrac3e-4_lrcr1e-3/53c3fbcdd7c01d09a3e8b21e27d629f70ce21da9_ligand_2.pdbqt
 12 12 0 0 0
SMALL
GASTEIGER

@<TRIPOS>ATOM
      1  C          4.9750    1.7960    0.6910 C.3     1  UNL1        0.1270
      2  C          4.4680    1.1270    1.9170 C.2     1  UNL1        0.3030
      3  O          5.1690    0.2440    2.4680 O.2     1  UNL1       -0.2520
      4  O          3.2370    1.4430    2.4860 O.3     1  UNL1       -0.4810
      5  H          3.1090    2.2760    3.0790 H       1  UNL1        0.2960
      6  C          6.4760    1.8250    0.7800 C.3     1  UNL1        0.0470
      7  C          7.1250    1.0650   -0.3220 C.2     1  UNL1       -0.0470
      8  C          6.4090    0.1660   -1.0880 C.2     1  UNL1        0.0040
      9  C          8.4620    1.2200   -0.6330 C.2     1  UNL1        0.0040
     10  C          7.0220   -0.5350   -2.1090 C.2     1  UNL1        0.0000
     11  C          9.0750    0.5230   -1.6510 C.2     1  UNL1        0.0000
     12  C          8.3580   -0.3760   -2.4140 C.2     1  UNL1        0.0000
@<TRIPOS>BOND
     1    12    10    2
     2    12    11    1
     3    10     8    1
     4    11     9    2
     5     8     7    2
     6     9     7    1
     7     7     6    1
     8     1     6    1
     9     1     2    1
    10     2     3    2
    11     2     4    1
    12     4     5    1
