@<TRIPOS>MOLECULE
/home/cewinharhar/GITHUB/reincatalyze/data/processed/docking_pred/2023-Apr-25-2033_maxeplen5_maxtrainstep200_exh16_gamma099_lrac3e-4_lrcr1e-3/53c3fbcdd7c01d09a3e8b21e27d629f70ce21da9_ligand_2.pdbqt
 12 12 0 0 0
SMALL
GASTEIGER

@<TRIPOS>ATOM
      1  C          7.8810   -1.2940   -2.1310 C.3     1  UNL1        0.1270
      2  C          8.6170   -2.5100   -2.5650 C.2     1  UNL1        0.3030
      3  O          8.2340   -3.6350   -2.1610 O.2     1  UNL1       -0.2520
      4  O          9.7240   -2.4530   -3.4080 O.3     1  UNL1       -0.4810
      5  H         10.6530   -2.7860   -3.1100 H       1  UNL1        0.2960
      6  C          7.4920   -1.4910   -0.6920 C.3     1  UNL1        0.0470
      7  C          6.6420   -0.3850   -0.1780 C.2     1  UNL1       -0.0470
      8  C          6.3100    0.6930   -0.9760 C.2     1  UNL1        0.0040
      9  C          6.1440   -0.3780    1.1120 C.2     1  UNL1        0.0040
     10  C          5.5190    1.7150   -0.4880 C.2     1  UNL1        0.0000
     11  C          5.3560    0.6400    1.6000 C.2     1  UNL1        0.0000
     12  C          5.0260    1.7160    0.8010 C.2     1  UNL1        0.0000
@<TRIPOS>BOND
     1     4     5    1
     2     4     2    1
     3     2     3    2
     4     2     1    1
     5     1     6    1
     6     8    10    1
     7     8     7    2
     8     6     7    1
     9    10    12    2
    10     7     9    1
    11    12    11    1
    12     9    11    2
