@<TRIPOS>MOLECULE
/home/cewinharhar/GITHUB/reincatalyze/data/processed/docking_pred/2023-Apr-25-2033_maxeplen5_maxtrainstep200_exh16_gamma099_lrac3e-4_lrcr1e-3/53c3fbcdd7c01d09a3e8b21e27d629f70ce21da9_ligand_2.pdbqt
 12 12 0 0 0
SMALL
GASTEIGER

@<TRIPOS>ATOM
      1  C          8.1990   -0.8710   -1.9440 C.3     1  UNL1        0.1270
      2  C          8.3510   -2.0170   -2.8780 C.2     1  UNL1        0.3030
      3  O          9.4890   -2.5110   -3.0610 O.2     1  UNL1       -0.2520
      4  O          7.2720   -2.5700   -3.5640 O.3     1  UNL1       -0.4810
      5  H          6.8910   -3.4970   -3.3220 H       1  UNL1        0.2960
      6  C          7.4200   -1.3570   -0.7540 C.3     1  UNL1        0.0470
      7  C          6.5770   -0.2910   -0.1530 C.2     1  UNL1       -0.0470
      8  C          6.1240   -0.3850    1.1490 C.2     1  UNL1        0.0040
      9  C          6.2060    0.8390   -0.8580 C.2     1  UNL1        0.0040
     10  C          5.3410    0.6130    1.6980 C.2     1  UNL1        0.0000
     11  C          5.4260    1.8340   -0.3140 C.2     1  UNL1        0.0000
     12  C          4.9750    1.7370    0.9870 C.2     1  UNL1        0.0000
@<TRIPOS>BOND
     1     4     5    1
     2     4     2    1
     3     3     2    2
     4     2     1    1
     5     1     6    1
     6     9    11    1
     7     9     7    2
     8     6     7    1
     9    11    12    2
    10     7     8    1
    11    12    10    1
    12     8    10    2
