@<TRIPOS>MOLECULE
/home/cewinharhar/GITHUB/reincatalyze/data/processed/docking_pred/2023-Apr-25-2033_maxeplen5_maxtrainstep200_exh16_gamma099_lrac3e-4_lrcr1e-3/54c3cf531f582f2d935f1daccafc2f163e83168d_ligand_2.pdbqt
 12 12 0 0 0
SMALL
GASTEIGER

@<TRIPOS>ATOM
      1  C          7.2950   -1.3460   -2.2190 C.3     1  UNL1        0.1270
      2  C          8.7470   -1.4400   -2.5230 C.2     1  UNL1        0.3030
      3  O          9.5220   -0.5540   -2.0890 O.2     1  UNL1       -0.2520
      4  O          9.2870   -2.4790   -3.2770 O.3     1  UNL1       -0.4810
      5  H          9.7030   -3.3130   -2.8340 H       1  UNL1        0.2960
      6  C          6.9760    0.1030   -1.9770 C.3     1  UNL1        0.0470
      7  C          6.3340    0.3300   -0.6560 C.2     1  UNL1       -0.0470
      8  C          5.6230    1.4850   -0.3950 C.2     1  UNL1        0.0040
      9  C          6.4130   -0.5950    0.3690 C.2     1  UNL1        0.0040
     10  C          5.0300    1.6860    0.8370 C.2     1  UNL1        0.0000
     11  C          5.8220   -0.3970    1.5970 C.2     1  UNL1        0.0000
     12  C          5.1140    0.7590    1.8550 C.2     1  UNL1        0.0000
@<TRIPOS>BOND
     1     4     5    1
     2     4     2    1
     3     2     1    1
     4     2     3    2
     5     1     6    1
     6     6     7    1
     7     7     8    2
     8     7     9    1
     9     8    10    1
    10     9    11    2
    11    10    12    2
    12    11    12    1
