@<TRIPOS>MOLECULE
/home/cewinharhar/GITHUB/reincatalyze/data/processed/docking_pred/2023-Apr-25-2033_maxeplen5_maxtrainstep200_exh16_gamma099_lrac3e-4_lrcr1e-3/54c3cf531f582f2d935f1daccafc2f163e83168d_ligand_2.pdbqt
 12 12 0 0 0
SMALL
GASTEIGER

@<TRIPOS>ATOM
      1  C          8.4330   -0.6020   -2.1560 C.3     1  UNL1        0.1270
      2  C          8.4080   -1.8900   -2.8960 C.2     1  UNL1        0.3030
      3  O          7.3030   -2.3920   -3.2150 O.2     1  UNL1       -0.2520
      4  O          9.5700   -2.5700   -3.2520 O.3     1  UNL1       -0.4810
      5  H         10.5070   -2.1810   -3.0660 H       1  UNL1        0.2960
      6  C          7.0300   -0.0600   -2.1430 C.3     1  UNL1        0.0470
      7  C          6.4810    0.0620   -0.7680 C.2     1  UNL1       -0.0470
      8  C          5.8400    1.2140   -0.3530 C.2     1  UNL1        0.0040
      9  C          6.5820   -0.9590    0.1580 C.2     1  UNL1        0.0040
     10  C          5.3330    1.3170    0.9290 C.2     1  UNL1        0.0000
     11  C          6.0780   -0.8590    1.4360 C.2     1  UNL1        0.0000
     12  C          5.4380    0.2930    1.8470 C.2     1  UNL1        0.0000
@<TRIPOS>BOND
     1     4     5    1
     2     4     2    1
     3     3     2    2
     4     2     1    1
     5     1     6    1
     6     6     7    1
     7     7     8    2
     8     7     9    1
     9     8    10    1
    10     9    11    2
    11    10    12    2
    12    11    12    1
