@<TRIPOS>MOLECULE
/home/cewinharhar/GITHUB/reincatalyze/data/processed/docking_pred/2023-Apr-25-2033_maxeplen5_maxtrainstep200_exh16_gamma099_lrac3e-4_lrcr1e-3/54c3cf531f582f2d935f1daccafc2f163e83168d_ligand_2.pdbqt
 12 12 0 0 0
SMALL
GASTEIGER

@<TRIPOS>ATOM
      1  C          8.4250   -0.5740   -2.2040 C.3     1  UNL1        0.1270
      2  C          8.3980   -1.8790   -2.9130 C.2     1  UNL1        0.3030
      3  O          7.2920   -2.3810   -3.2300 O.2     1  UNL1       -0.2520
      4  O          9.5580   -2.5740   -3.2450 O.3     1  UNL1       -0.4810
      5  H          9.8120   -3.4600   -2.7820 H       1  UNL1        0.2960
      6  C          7.0160   -0.0480   -2.1680 C.3     1  UNL1        0.0470
      7  C          6.4840    0.0560   -0.7840 C.2     1  UNL1       -0.0470
      8  C          6.6160   -0.9860    0.1130 C.2     1  UNL1        0.0040
      9  C          5.8390    1.1900   -0.3280 C.2     1  UNL1        0.0040
     10  C          6.1170   -0.8790    1.3980 C.2     1  UNL1        0.0000
     11  C          5.3420    1.3000    0.9520 C.2     1  UNL1        0.0000
     12  C          5.4740    0.2570    1.8460 C.2     1  UNL1        0.0000
@<TRIPOS>BOND
     1     4     2    1
     2     4     5    1
     3     3     2    2
     4     2     1    1
     5     1     6    1
     6     6     7    1
     7     7     9    2
     8     7     8    1
     9     9    11    1
    10     8    10    2
    11    11    12    2
    12    10    12    1
