@<TRIPOS>MOLECULE
/home/cewinharhar/GITHUB/reincatalyze/data/processed/docking_pred/2023-Apr-25-2033_maxeplen5_maxtrainstep200_exh16_gamma099_lrac3e-4_lrcr1e-3/54c3cf531f582f2d935f1daccafc2f163e83168d_ligand_2.pdbqt
 12 12 0 0 0
SMALL
GASTEIGER

@<TRIPOS>ATOM
      1  C          5.0350    1.7560    0.7420 C.3     1  UNL1        0.1270
      2  C          4.4570    1.0960    1.9420 C.2     1  UNL1        0.3030
      3  O          5.0980    0.1730    2.5010 O.2     1  UNL1       -0.2520
      4  O          3.2250    1.4620    2.4760 O.3     1  UNL1       -0.4810
      5  H          2.5240    1.9800    1.9230 H       1  UNL1        0.2960
      6  C          6.5320    1.6640    0.8520 C.3     1  UNL1        0.0470
      7  C          7.1410    0.9300   -0.2890 C.2     1  UNL1       -0.0470
      8  C          6.4390   -0.0470   -0.9670 C.2     1  UNL1        0.0040
      9  C          8.4270    1.1870   -0.7260 C.2     1  UNL1        0.0040
     10  C          7.0140   -0.7230   -2.0260 C.2     1  UNL1        0.0000
     11  C          9.0020    0.5160   -1.7810 C.2     1  UNL1        0.0000
     12  C          8.2990   -0.4610   -2.4570 C.2     1  UNL1        0.0000
@<TRIPOS>BOND
     1    12    10    2
     2    12    11    1
     3    10     8    1
     4    11     9    2
     5     8     7    2
     6     9     7    1
     7     7     6    1
     8     1     6    1
     9     1     2    1
    10     5     4    1
    11     2     4    1
    12     2     3    2
