MODEL 1
REMARK VINA RESULT:      -7.2      0.000      0.000
REMARK SMILES O=C(O)CCc1ccccc1
REMARK SMILES IDX 4 1 2 2 1 3 3 4 5 6 6 7 7 8 11 9 8 10 10 11 9 12
REMARK H PARENT 3 5
REMARK Flexibility Score: inf
ROOT
ATOM      1  C   UNL     1       8.433  -0.602  -2.156  1.00  0.00     0.127 C 
ENDROOT
BRANCH   1   2
ATOM      2  C   UNL     1       8.408  -1.890  -2.896  1.00  0.00     0.303 C 
ATOM      3  O   UNL     1       7.303  -2.392  -3.215  1.00  0.00    -0.252 OA
BRANCH   2   4
ATOM      4  O   UNL     1       9.570  -2.570  -3.252  1.00  0.00    -0.481 OA
ATOM      5  H   UNL     1      10.507  -2.181  -3.066  1.00  0.00     0.296 HD
ENDBRANCH   2   4
ENDBRANCH   1   2
BRANCH   1   6
ATOM      6  C   UNL     1       7.030  -0.060  -2.143  1.00  0.00     0.047 C 
BRANCH   6   7
ATOM      7  C   UNL     1       6.481   0.062  -0.768  1.00  0.00    -0.047 A 
ATOM      8  C   UNL     1       5.840   1.214  -0.353  1.00  0.00     0.004 A 
ATOM      9  C   UNL     1       6.582  -0.959   0.158  1.00  0.00     0.004 A 
ATOM     10  C   UNL     1       5.333   1.317   0.929  1.00  0.00     0.000 A 
ATOM     11  C   UNL     1       6.078  -0.859   1.436  1.00  0.00     0.000 A 
ATOM     12  C   UNL     1       5.438   0.293   1.847  1.00  0.00     0.000 A 
ENDBRANCH   6   7
ENDBRANCH   1   6
TORSDOF 4
ENDMDL
MODEL 2
REMARK VINA RESULT:      -7.2      0.040      1.420
REMARK SMILES O=C(O)CCc1ccccc1
REMARK SMILES IDX 4 1 2 2 1 3 3 4 5 6 6 7 7 8 11 9 8 10 10 11 9 12
REMARK H PARENT 3 5
REMARK Flexibility Score: inf
ROOT
ATOM      1  C   UNL     1       8.425  -0.574  -2.204  1.00  0.00     0.127 C 
ENDROOT
BRANCH   1   2
ATOM      2  C   UNL     1       8.398  -1.879  -2.913  1.00  0.00     0.303 C 
ATOM      3  O   UNL     1       7.292  -2.381  -3.230  1.00  0.00    -0.252 OA
BRANCH   2   4
ATOM      4  O   UNL     1       9.558  -2.574  -3.245  1.00  0.00    -0.481 OA
ATOM      5  H   UNL     1       9.812  -3.460  -2.782  1.00  0.00     0.296 HD
ENDBRANCH   2   4
ENDBRANCH   1   2
BRANCH   1   6
ATOM      6  C   UNL     1       7.016  -0.048  -2.168  1.00  0.00     0.047 C 
BRANCH   6   7
ATOM      7  C   UNL     1       6.484   0.056  -0.784  1.00  0.00    -0.047 A 
ATOM      8  C   UNL     1       6.616  -0.986   0.113  1.00  0.00     0.004 A 
ATOM      9  C   UNL     1       5.839   1.190  -0.328  1.00  0.00     0.004 A 
ATOM     10  C   UNL     1       6.117  -0.879   1.398  1.00  0.00     0.000 A 
ATOM     11  C   UNL     1       5.342   1.300   0.952  1.00  0.00     0.000 A 
ATOM     12  C   UNL     1       5.474   0.257   1.846  1.00  0.00     0.000 A 
ENDBRANCH   6   7
ENDBRANCH   1   6
TORSDOF 4
ENDMDL
MODEL 3
REMARK VINA RESULT:      -7.1      0.907      1.101
REMARK SMILES O=C(O)CCc1ccccc1
REMARK SMILES IDX 4 1 2 2 1 3 3 4 5 6 6 7 7 8 11 9 8 10 10 11 9 12
REMARK H PARENT 3 5
REMARK Flexibility Score: inf
ROOT
ATOM      1  C   UNL     1       7.295  -1.346  -2.219  1.00  0.00     0.127 C 
ENDROOT
BRANCH   1   2
ATOM      2  C   UNL     1       8.747  -1.440  -2.523  1.00  0.00     0.303 C 
ATOM      3  O   UNL     1       9.522  -0.554  -2.089  1.00  0.00    -0.252 OA
BRANCH   2   4
ATOM      4  O   UNL     1       9.287  -2.479  -3.277  1.00  0.00    -0.481 OA
ATOM      5  H   UNL     1       9.703  -3.313  -2.834  1.00  0.00     0.296 HD
ENDBRANCH   2   4
ENDBRANCH   1   2
BRANCH   1   6
ATOM      6  C   UNL     1       6.976   0.103  -1.977  1.00  0.00     0.047 C 
BRANCH   6   7
ATOM      7  C   UNL     1       6.334   0.330  -0.656  1.00  0.00    -0.047 A 
ATOM      8  C   UNL     1       5.623   1.485  -0.395  1.00  0.00     0.004 A 
ATOM      9  C   UNL     1       6.413  -0.595   0.369  1.00  0.00     0.004 A 
ATOM     10  C   UNL     1       5.030   1.686   0.837  1.00  0.00     0.000 A 
ATOM     11  C   UNL     1       5.822  -0.397   1.597  1.00  0.00     0.000 A 
ATOM     12  C   UNL     1       5.114   0.759   1.855  1.00  0.00     0.000 A 
ENDBRANCH   6   7
ENDBRANCH   1   6
TORSDOF 4
ENDMDL
MODEL 4
REMARK VINA RESULT:      -6.8      3.307      5.182
REMARK SMILES O=C(O)CCc1ccccc1
REMARK SMILES IDX 4 1 2 2 1 3 3 4 5 6 6 7 7 8 11 9 8 10 10 11 9 12
REMARK H PARENT 3 5
REMARK Flexibility Score: inf
ROOT
ATOM      1  C   UNL     1       5.035   1.756   0.742  1.00  0.00     0.127 C 
ENDROOT
BRANCH   1   2
ATOM      2  C   UNL     1       4.457   1.096   1.942  1.00  0.00     0.303 C 
ATOM      3  O   UNL     1       5.098   0.173   2.501  1.00  0.00    -0.252 OA
BRANCH   2   4
ATOM      4  O   UNL     1       3.225   1.462   2.476  1.00  0.00    -0.481 OA
ATOM      5  H   UNL     1       2.524   1.980   1.923  1.00  0.00     0.296 HD
ENDBRANCH   2   4
ENDBRANCH   1   2
BRANCH   1   6
ATOM      6  C   UNL     1       6.532   1.664   0.852  1.00  0.00     0.047 C 
BRANCH   6   7
ATOM      7  C   UNL     1       7.141   0.930  -0.289  1.00  0.00    -0.047 A 
ATOM      8  C   UNL     1       6.439  -0.047  -0.967  1.00  0.00     0.004 A 
ATOM      9  C   UNL     1       8.427   1.187  -0.726  1.00  0.00     0.004 A 
ATOM     10  C   UNL     1       7.014  -0.723  -2.026  1.00  0.00     0.000 A 
ATOM     11  C   UNL     1       9.002   0.516  -1.781  1.00  0.00     0.000 A 
ATOM     12  C   UNL     1       8.299  -0.461  -2.457  1.00  0.00     0.000 A 
ENDBRANCH   6   7
ENDBRANCH   1   6
TORSDOF 4
ENDMDL
MODEL 5
REMARK VINA RESULT:      -6.8      3.309      5.148
REMARK SMILES O=C(O)CCc1ccccc1
REMARK SMILES IDX 4 1 2 2 1 3 3 4 5 6 6 7 7 8 11 9 8 10 10 11 9 12
REMARK H PARENT 3 5
REMARK Flexibility Score: inf
ROOT
ATOM      1  C   UNL     1       4.999   1.790   0.717  1.00  0.00     0.127 C 
ENDROOT
BRANCH   1   2
ATOM      2  C   UNL     1       4.459   1.118   1.927  1.00  0.00     0.303 C 
ATOM      3  O   UNL     1       5.132   0.212   2.476  1.00  0.00    -0.252 OA
BRANCH   2   4
ATOM      4  O   UNL     1       3.227   1.454   2.482  1.00  0.00    -0.481 OA
ATOM      5  H   UNL     1       3.131   1.714   3.476  1.00  0.00     0.296 HD
ENDBRANCH   2   4
ENDBRANCH   1   2
BRANCH   1   6
ATOM      6  C   UNL     1       6.500   1.761   0.815  1.00  0.00     0.047 C 
BRANCH   6   7
ATOM      7  C   UNL     1       7.127   1.010  -0.305  1.00  0.00    -0.047 A 
ATOM      8  C   UNL     1       8.444   1.227  -0.662  1.00  0.00     0.004 A 
ATOM      9  C   UNL     1       6.433   0.066  -1.037  1.00  0.00     0.004 A 
ATOM     10  C   UNL     1       9.017   0.524  -1.704  1.00  0.00     0.000 A 
ATOM     11  C   UNL     1       7.002  -0.636  -2.076  1.00  0.00     0.000 A 
ATOM     12  C   UNL     1       8.318  -0.417  -2.431  1.00  0.00     0.000 A 
ENDBRANCH   6   7
ENDBRANCH   1   6
TORSDOF 4
ENDMDL
