@<TRIPOS>MOLECULE
/home/cewinharhar/GITHUB/reincatalyze/data/processed/docking_pred/2023-Apr-25-2033_maxeplen5_maxtrainstep200_exh16_gamma099_lrac3e-4_lrcr1e-3/54c3cf531f582f2d935f1daccafc2f163e83168d_ligand_2.pdbqt
 12 12 0 0 0
SMALL
GASTEIGER

@<TRIPOS>ATOM
      1  C          4.9990    1.7900    0.7170 C.3     1  UNL1        0.1270
      2  C          4.4590    1.1180    1.9270 C.2     1  UNL1        0.3030
      3  O          5.1320    0.2120    2.4760 O.2     1  UNL1       -0.2520
      4  O          3.2270    1.4540    2.4820 O.3     1  UNL1       -0.4810
      5  H          3.1310    1.7140    3.4760 H       1  UNL1        0.2960
      6  C          6.5000    1.7610    0.8150 C.3     1  UNL1        0.0470
      7  C          7.1270    1.0100   -0.3050 C.2     1  UNL1       -0.0470
      8  C          8.4440    1.2270   -0.6620 C.2     1  UNL1        0.0040
      9  C          6.4330    0.0660   -1.0370 C.2     1  UNL1        0.0040
     10  C          9.0170    0.5240   -1.7040 C.2     1  UNL1        0.0000
     11  C          7.0020   -0.6360   -2.0760 C.2     1  UNL1        0.0000
     12  C          8.3180   -0.4170   -2.4310 C.2     1  UNL1        0.0000
@<TRIPOS>BOND
     1    12    11    2
     2    12    10    1
     3    11     9    1
     4    10     8    2
     5     9     7    2
     6     8     7    1
     7     7     6    1
     8     1     6    1
     9     1     2    1
    10     2     3    2
    11     2     4    1
    12     4     5    1
