@<TRIPOS>MOLECULE
/home/cewinharhar/GITHUB/reincatalyze/data/processed/docking_pred/2023-Apr-25-2033_maxeplen5_maxtrainstep200_exh16_gamma099_lrac3e-4_lrcr1e-3/5ba5439e64352188cd964ddb86dd28d806e95272_ligand_2.pdbqt
 12 12 0 0 0
SMALL
GASTEIGER

@<TRIPOS>ATOM
      1  C          5.0000    1.7890    0.6990 C.3     1  UNL1        0.1270
      2  C          4.4740    1.1220    1.9190 C.2     1  UNL1        0.3030
      3  O          5.1600    0.2290    2.4720 O.2     1  UNL1       -0.2520
      4  O          3.2420    1.4500    2.4770 O.3     1  UNL1       -0.4810
      5  H          2.9540    2.4300    2.6220 H       1  UNL1        0.2960
      6  C          6.5010    1.7800    0.7910 C.3     1  UNL1        0.0470
      7  C          7.1330    1.0190   -0.3190 C.2     1  UNL1       -0.0470
      8  C          8.4570    1.2170   -0.6590 C.2     1  UNL1        0.0040
      9  C          6.4350    0.0830   -1.0590 C.2     1  UNL1        0.0040
     10  C          9.0350    0.5030   -1.6920 C.2     1  UNL1        0.0000
     11  C          7.0090   -0.6290   -2.0890 C.2     1  UNL1        0.0000
     12  C          8.3320   -0.4290   -2.4270 C.2     1  UNL1        0.0000
@<TRIPOS>BOND
     1    12    11    2
     2    12    10    1
     3    11     9    1
     4    10     8    2
     5     9     7    2
     6     8     7    1
     7     7     6    1
     8     1     6    1
     9     1     2    1
    10     2     3    2
    11     2     4    1
    12     4     5    1
