@<TRIPOS>MOLECULE
/home/cewinharhar/GITHUB/reincatalyze/data/processed/docking_pred/2023-Apr-25-2033_maxeplen5_maxtrainstep200_exh16_gamma099_lrac3e-4_lrcr1e-3/5ba5439e64352188cd964ddb86dd28d806e95272_ligand_2.pdbqt
 12 12 0 0 0
SMALL
GASTEIGER

@<TRIPOS>ATOM
      1  C          8.4570   -0.7090   -2.0070 C.3     1  UNL1        0.1270
      2  C          8.4200   -1.9300   -2.8530 C.2     1  UNL1        0.3030
      3  O          7.3100   -2.3940   -3.2100 O.2     1  UNL1       -0.2520
      4  O          9.5760   -2.5840   -3.2710 O.3     1  UNL1       -0.4810
      5  H         10.1630   -3.1230   -2.6160 H       1  UNL1        0.2960
      6  C          7.0990   -0.0660   -2.0800 C.3     1  UNL1        0.0470
      7  C          6.4830    0.1120   -0.7390 C.2     1  UNL1       -0.0470
      8  C          5.8110    1.2740   -0.4090 C.2     1  UNL1        0.0040
      9  C          6.5480   -0.8650    0.2360 C.2     1  UNL1        0.0040
     10  C          5.2420    1.4290    0.8400 C.2     1  UNL1        0.0000
     11  C          5.9810   -0.7130    1.4820 C.2     1  UNL1        0.0000
     12  C          5.3110    0.4490    1.8090 C.2     1  UNL1        0.0000
@<TRIPOS>BOND
     1     4     2    1
     2     4     5    1
     3     3     2    2
     4     2     1    1
     5     6     1    1
     6     6     7    1
     7     7     8    2
     8     7     9    1
     9     8    10    1
    10     9    11    2
    11    10    12    2
    12    11    12    1
