@<TRIPOS>MOLECULE
/home/cewinharhar/GITHUB/reincatalyze/data/processed/docking_pred/2023-Apr-25-2033_maxeplen5_maxtrainstep200_exh16_gamma099_lrac3e-4_lrcr1e-3/5ba5439e64352188cd964ddb86dd28d806e95272_ligand_2.pdbqt
 12 12 0 0 0
SMALL
GASTEIGER

@<TRIPOS>ATOM
      1  C          8.4610   -0.6060   -2.1640 C.3     1  UNL1        0.1270
      2  C          8.4700   -1.8900   -2.9100 C.2     1  UNL1        0.3030
      3  O          9.5600   -2.4850   -3.0940 O.2     1  UNL1       -0.2520
      4  O          7.3090   -2.4670   -3.4190 O.3     1  UNL1       -0.4810
      5  H          7.0640   -2.4060   -4.4190 H       1  UNL1        0.2960
      6  C          7.0450   -0.1000   -2.1490 C.3     1  UNL1        0.0470
      7  C          6.4990    0.0200   -0.7720 C.2     1  UNL1       -0.0470
      8  C          6.6350   -1.0050    0.1430 C.2     1  UNL1        0.0040
      9  C          5.8360    1.1540   -0.3410 C.2     1  UNL1        0.0040
     10  C          6.1230   -0.8820    1.4210 C.2     1  UNL1        0.0000
     11  C          5.3260    1.2790    0.9320 C.2     1  UNL1        0.0000
     12  C          5.4620    0.2520    1.8450 C.2     1  UNL1        0.0000
@<TRIPOS>BOND
     1     5     4    1
     2     4     2    1
     3     3     2    2
     4     2     1    1
     5     1     6    1
     6     6     7    1
     7     7     9    2
     8     7     8    1
     9     9    11    1
    10     8    10    2
    11    11    12    2
    12    10    12    1
