@<TRIPOS>MOLECULE
/home/cewinharhar/GITHUB/reincatalyze/data/processed/docking_pred/2023-Apr-25-2033_maxeplen5_maxtrainstep200_exh16_gamma099_lrac3e-4_lrcr1e-3/5ba5439e64352188cd964ddb86dd28d806e95272_ligand_2.pdbqt
 12 12 0 0 0
SMALL
GASTEIGER

@<TRIPOS>ATOM
      1  C          5.3290    2.9440    0.0680 C.3     1  UNL1        0.1270
      2  C          6.2080    3.8550    0.8460 C.2     1  UNL1        0.3030
      3  O          6.8600    4.7410    0.2410 O.2     1  UNL1       -0.2520
      4  O          6.3400    3.7660    2.2290 O.3     1  UNL1       -0.4810
      5  H          5.9380    4.4760    2.8610 H       1  UNL1        0.2960
      6  C          5.2330    1.6500    0.8280 C.3     1  UNL1        0.0470
      7  C          6.0260    0.5620    0.1980 C.2     1  UNL1       -0.0470
      8  C          6.4700   -0.5190    0.9350 C.2     1  UNL1        0.0040
      9  C          6.3550    0.5740   -1.1450 C.2     1  UNL1        0.0040
     10  C          7.2060   -1.5250    0.3390 C.2     1  UNL1        0.0000
     11  C          7.0880   -0.4270   -1.7410 C.2     1  UNL1        0.0000
     12  C          7.5310   -1.5050   -1.0020 C.2     1  UNL1        0.0000
@<TRIPOS>BOND
     1    11     9    1
     2    11    12    2
     3     9     7    2
     4    12    10    1
     5     1     6    1
     6     1     2    1
     7     7     6    1
     8     7     8    1
     9     3     2    2
    10    10     8    2
    11     2     4    1
    12     4     5    1
