MODEL 1
REMARK VINA RESULT:      -7.3      0.000      0.000
REMARK SMILES O=C(O)CCc1ccccc1
REMARK SMILES IDX 4 1 2 2 1 3 3 4 5 6 6 7 7 8 11 9 8 10 10 11 9 12
REMARK H PARENT 3 5
REMARK Flexibility Score: inf
ROOT
ATOM      1  C   UNL     1       8.461  -0.606  -2.164  1.00  0.00     0.127 C 
ENDROOT
BRANCH   1   2
ATOM      2  C   UNL     1       8.470  -1.890  -2.910  1.00  0.00     0.303 C 
ATOM      3  O   UNL     1       9.560  -2.485  -3.094  1.00  0.00    -0.252 OA
BRANCH   2   4
ATOM      4  O   UNL     1       7.309  -2.467  -3.419  1.00  0.00    -0.481 OA
ATOM      5  H   UNL     1       7.064  -2.406  -4.419  1.00  0.00     0.296 HD
ENDBRANCH   2   4
ENDBRANCH   1   2
BRANCH   1   6
ATOM      6  C   UNL     1       7.045  -0.100  -2.149  1.00  0.00     0.047 C 
BRANCH   6   7
ATOM      7  C   UNL     1       6.499   0.020  -0.772  1.00  0.00    -0.047 A 
ATOM      8  C   UNL     1       6.635  -1.005   0.143  1.00  0.00     0.004 A 
ATOM      9  C   UNL     1       5.836   1.154  -0.341  1.00  0.00     0.004 A 
ATOM     10  C   UNL     1       6.123  -0.882   1.421  1.00  0.00     0.000 A 
ATOM     11  C   UNL     1       5.326   1.279   0.932  1.00  0.00     0.000 A 
ATOM     12  C   UNL     1       5.462   0.252   1.845  1.00  0.00     0.000 A 
ENDBRANCH   6   7
ENDBRANCH   1   6
TORSDOF 4
ENDMDL
MODEL 2
REMARK VINA RESULT:      -7.3      0.181      1.722
REMARK SMILES O=C(O)CCc1ccccc1
REMARK SMILES IDX 4 1 2 2 1 3 3 4 5 6 6 7 7 8 11 9 8 10 10 11 9 12
REMARK H PARENT 3 5
REMARK Flexibility Score: inf
ROOT
ATOM      1  C   UNL     1       8.457  -0.709  -2.007  1.00  0.00     0.127 C 
ENDROOT
BRANCH   1   2
ATOM      2  C   UNL     1       8.420  -1.930  -2.853  1.00  0.00     0.303 C 
ATOM      3  O   UNL     1       7.310  -2.394  -3.210  1.00  0.00    -0.252 OA
BRANCH   2   4
ATOM      4  O   UNL     1       9.576  -2.584  -3.271  1.00  0.00    -0.481 OA
ATOM      5  H   UNL     1      10.163  -3.123  -2.616  1.00  0.00     0.296 HD
ENDBRANCH   2   4
ENDBRANCH   1   2
BRANCH   1   6
ATOM      6  C   UNL     1       7.099  -0.066  -2.080  1.00  0.00     0.047 C 
BRANCH   6   7
ATOM      7  C   UNL     1       6.483   0.112  -0.739  1.00  0.00    -0.047 A 
ATOM      8  C   UNL     1       5.811   1.274  -0.409  1.00  0.00     0.004 A 
ATOM      9  C   UNL     1       6.548  -0.865   0.236  1.00  0.00     0.004 A 
ATOM     10  C   UNL     1       5.242   1.429   0.840  1.00  0.00     0.000 A 
ATOM     11  C   UNL     1       5.981  -0.713   1.482  1.00  0.00     0.000 A 
ATOM     12  C   UNL     1       5.311   0.449   1.809  1.00  0.00     0.000 A 
ENDBRANCH   6   7
ENDBRANCH   1   6
TORSDOF 4
ENDMDL
MODEL 3
REMARK VINA RESULT:      -7.0      0.999      1.557
REMARK SMILES O=C(O)CCc1ccccc1
REMARK SMILES IDX 4 1 2 2 1 3 3 4 5 6 6 7 7 8 11 9 8 10 10 11 9 12
REMARK H PARENT 3 5
REMARK Flexibility Score: inf
ROOT
ATOM      1  C   UNL     1       7.321  -1.399  -2.125  1.00  0.00     0.127 C 
ENDROOT
BRANCH   1   2
ATOM      2  C   UNL     1       8.740  -1.408  -2.565  1.00  0.00     0.303 C 
ATOM      3  O   UNL     1       9.476  -0.432  -2.281  1.00  0.00    -0.252 OA
BRANCH   2   4
ATOM      4  O   UNL     1       9.292  -2.464  -3.285  1.00  0.00    -0.481 OA
ATOM      5  H   UNL     1       8.741  -3.002  -3.972  1.00  0.00     0.296 HD
ENDBRANCH   2   4
ENDBRANCH   1   2
BRANCH   1   6
ATOM      6  C   UNL     1       7.313  -1.404  -0.622  1.00  0.00     0.047 C 
BRANCH   6   7
ATOM      7  C   UNL     1       6.486  -0.307  -0.054  1.00  0.00    -0.047 A 
ATOM      8  C   UNL     1       5.981  -0.382   1.229  1.00  0.00     0.004 A 
ATOM      9  C   UNL     1       6.185   0.834  -0.774  1.00  0.00     0.004 A 
ATOM     10  C   UNL     1       5.214   0.644   1.747  1.00  0.00     0.000 A 
ATOM     11  C   UNL     1       5.421   1.858  -0.260  1.00  0.00     0.000 A 
ATOM     12  C   UNL     1       4.917   1.780   1.023  1.00  0.00     0.000 A 
ENDBRANCH   6   7
ENDBRANCH   1   6
TORSDOF 4
ENDMDL
MODEL 4
REMARK VINA RESULT:      -6.8      3.387      5.101
REMARK SMILES O=C(O)CCc1ccccc1
REMARK SMILES IDX 4 1 2 2 1 3 3 4 5 6 6 7 7 8 11 9 8 10 10 11 9 12
REMARK H PARENT 3 5
REMARK Flexibility Score: inf
ROOT
ATOM      1  C   UNL     1       5.000   1.789   0.699  1.00  0.00     0.127 C 
ENDROOT
BRANCH   1   2
ATOM      2  C   UNL     1       4.474   1.122   1.919  1.00  0.00     0.303 C 
ATOM      3  O   UNL     1       5.160   0.229   2.472  1.00  0.00    -0.252 OA
BRANCH   2   4
ATOM      4  O   UNL     1       3.242   1.450   2.477  1.00  0.00    -0.481 OA
ATOM      5  H   UNL     1       2.954   2.430   2.622  1.00  0.00     0.296 HD
ENDBRANCH   2   4
ENDBRANCH   1   2
BRANCH   1   6
ATOM      6  C   UNL     1       6.501   1.780   0.791  1.00  0.00     0.047 C 
BRANCH   6   7
ATOM      7  C   UNL     1       7.133   1.019  -0.319  1.00  0.00    -0.047 A 
ATOM      8  C   UNL     1       8.457   1.217  -0.659  1.00  0.00     0.004 A 
ATOM      9  C   UNL     1       6.435   0.083  -1.059  1.00  0.00     0.004 A 
ATOM     10  C   UNL     1       9.035   0.503  -1.692  1.00  0.00     0.000 A 
ATOM     11  C   UNL     1       7.009  -0.629  -2.089  1.00  0.00     0.000 A 
ATOM     12  C   UNL     1       8.332  -0.429  -2.427  1.00  0.00     0.000 A 
ENDBRANCH   6   7
ENDBRANCH   1   6
TORSDOF 4
ENDMDL
MODEL 5
REMARK VINA RESULT:      -6.6      3.733      4.974
REMARK SMILES O=C(O)CCc1ccccc1
REMARK SMILES IDX 4 1 2 2 1 3 3 4 5 6 6 7 7 8 11 9 8 10 10 11 9 12
REMARK H PARENT 3 5
REMARK Flexibility Score: inf
ROOT
ATOM      1  C   UNL     1       5.329   2.944   0.068  1.00  0.00     0.127 C 
ENDROOT
BRANCH   1   2
ATOM      2  C   UNL     1       6.208   3.855   0.846  1.00  0.00     0.303 C 
ATOM      3  O   UNL     1       6.860   4.741   0.241  1.00  0.00    -0.252 OA
BRANCH   2   4
ATOM      4  O   UNL     1       6.340   3.766   2.229  1.00  0.00    -0.481 OA
ATOM      5  H   UNL     1       5.938   4.476   2.861  1.00  0.00     0.296 HD
ENDBRANCH   2   4
ENDBRANCH   1   2
BRANCH   1   6
ATOM      6  C   UNL     1       5.233   1.650   0.828  1.00  0.00     0.047 C 
BRANCH   6   7
ATOM      7  C   UNL     1       6.026   0.562   0.198  1.00  0.00    -0.047 A 
ATOM      8  C   UNL     1       6.470  -0.519   0.935  1.00  0.00     0.004 A 
ATOM      9  C   UNL     1       6.355   0.574  -1.145  1.00  0.00     0.004 A 
ATOM     10  C   UNL     1       7.206  -1.525   0.339  1.00  0.00     0.000 A 
ATOM     11  C   UNL     1       7.088  -0.427  -1.741  1.00  0.00     0.000 A 
ATOM     12  C   UNL     1       7.531  -1.505  -1.002  1.00  0.00     0.000 A 
ENDBRANCH   6   7
ENDBRANCH   1   6
TORSDOF 4
ENDMDL
