@<TRIPOS>MOLECULE
/home/cewinharhar/GITHUB/reincatalyze/data/processed/docking_pred/2023-Apr-25-2033_maxeplen5_maxtrainstep200_exh16_gamma099_lrac3e-4_lrcr1e-3/5ba5439e64352188cd964ddb86dd28d806e95272_ligand_2.pdbqt
 12 12 0 0 0
SMALL
GASTEIGER

@<TRIPOS>ATOM
      1  C          7.3210   -1.3990   -2.1250 C.3     1  UNL1        0.1270
      2  C          8.7400   -1.4080   -2.5650 C.2     1  UNL1        0.3030
      3  O          9.4760   -0.4320   -2.2810 O.2     1  UNL1       -0.2520
      4  O          9.2920   -2.4640   -3.2850 O.3     1  UNL1       -0.4810
      5  H          8.7410   -3.0020   -3.9720 H       1  UNL1        0.2960
      6  C          7.3130   -1.4040   -0.6220 C.3     1  UNL1        0.0470
      7  C          6.4860   -0.3070   -0.0540 C.2     1  UNL1       -0.0470
      8  C          5.9810   -0.3820    1.2290 C.2     1  UNL1        0.0040
      9  C          6.1850    0.8340   -0.7740 C.2     1  UNL1        0.0040
     10  C          5.2140    0.6440    1.7470 C.2     1  UNL1        0.0000
     11  C          5.4210    1.8580   -0.2600 C.2     1  UNL1        0.0000
     12  C          4.9170    1.7800    1.0230 C.2     1  UNL1        0.0000
@<TRIPOS>BOND
     1     5     4    1
     2     4     2    1
     3     2     3    2
     4     2     1    1
     5     1     6    1
     6     9    11    1
     7     9     7    2
     8     6     7    1
     9    11    12    2
    10     7     8    1
    11    12    10    1
    12     8    10    2
