@<TRIPOS>MOLECULE
/home/cewinharhar/GITHUB/reincatalyze/data/processed/docking_pred/2023-Apr-25-2033_maxeplen5_maxtrainstep200_exh16_gamma099_lrac3e-4_lrcr1e-3/5bd4159c0713ad18fb2d2a846002564f6b7df27c_ligand_2.pdbqt
 12 12 0 0 0
SMALL
GASTEIGER

@<TRIPOS>ATOM
      1  C          8.2280    0.2750   -2.3050 C.3     1  UNL1        0.1270
      2  C          9.3340    0.3850   -1.3180 C.2     1  UNL1        0.3030
      3  O          9.3910   -0.4350   -0.3700 O.2     1  UNL1       -0.2520
      4  O         10.3160    1.3680   -1.4030 O.3     1  UNL1       -0.4810
      5  H         10.1190    2.3030   -1.7910 H       1  UNL1        0.2960
      6  C          7.1160   -0.4990   -1.6540 C.3     1  UNL1        0.0470
      7  C          6.3330    0.3270   -0.6990 C.2     1  UNL1       -0.0470
      8  C          6.1150   -0.0930    0.5990 C.2     1  UNL1        0.0040
      9  C          5.7890    1.5470   -1.0550 C.2     1  UNL1        0.0040
     10  C          5.3860    0.6840    1.4800 C.2     1  UNL1        0.0000
     11  C          5.0620    2.3230   -0.1800 C.2     1  UNL1        0.0000
     12  C          4.8460    1.9000    1.1160 C.2     1  UNL1        0.0000
@<TRIPOS>BOND
     1     1     6    1
     2     1     2    1
     3     5     4    1
     4     6     7    1
     5     4     2    1
     6     2     3    2
     7     9     7    2
     8     9    11    1
     9     7     8    1
    10    11    12    2
    11     8    10    2
    12    12    10    1
