@<TRIPOS>MOLECULE
/home/cewinharhar/GITHUB/reincatalyze/data/processed/docking_pred/2023-Apr-25-2033_maxeplen5_maxtrainstep200_exh16_gamma099_lrac3e-4_lrcr1e-3/5bd4159c0713ad18fb2d2a846002564f6b7df27c_ligand_2.pdbqt
 12 12 0 0 0
SMALL
GASTEIGER

@<TRIPOS>ATOM
      1  C          7.3050   -1.3790   -2.1280 C.3     1  UNL1        0.1270
      2  C          8.7350   -1.4030   -2.5320 C.2     1  UNL1        0.3030
      3  O          9.4850   -0.4590   -2.1840 O.2     1  UNL1       -0.2520
      4  O          9.2820   -2.4380   -3.2860 O.3     1  UNL1       -0.4810
      5  H          9.0380   -3.4250   -3.1130 H       1  UNL1        0.2960
      6  C          7.2590   -1.4050   -0.6250 C.3     1  UNL1        0.0470
      7  C          6.4560   -0.2870   -0.0630 C.2     1  UNL1       -0.0470
      8  C          5.9620   -0.3390    1.2260 C.2     1  UNL1        0.0040
      9  C          6.1660    0.8500   -0.7930 C.2     1  UNL1        0.0040
     10  C          5.2160    0.7050    1.7390 C.2     1  UNL1        0.0000
     11  C          5.4230    1.8920   -0.2850 C.2     1  UNL1        0.0000
     12  C          4.9300    1.8370    1.0040 C.2     1  UNL1        0.0000
@<TRIPOS>BOND
     1     4     5    1
     2     4     2    1
     3     2     3    2
     4     2     1    1
     5     1     6    1
     6     9    11    1
     7     9     7    2
     8     6     7    1
     9    11    12    2
    10     7     8    1
    11    12    10    1
    12     8    10    2
