@<TRIPOS>MOLECULE
/home/cewinharhar/GITHUB/reincatalyze/data/processed/docking_pred/2023-Apr-25-2033_maxeplen5_maxtrainstep200_exh16_gamma099_lrac3e-4_lrcr1e-3/5bd4159c0713ad18fb2d2a846002564f6b7df27c_ligand_2.pdbqt
 12 12 0 0 0
SMALL
GASTEIGER

@<TRIPOS>ATOM
      1  C          8.4480   -0.6130   -2.1350 C.3     1  UNL1        0.1270
      2  C          8.4330   -1.8910   -2.8930 C.2     1  UNL1        0.3030
      3  O          7.3310   -2.3970   -3.2170 O.2     1  UNL1       -0.2520
      4  O          9.5990   -2.5550   -3.2630 O.3     1  UNL1       -0.4810
      5  H         10.4770   -2.4510   -2.7300 H       1  UNL1        0.2960
      6  C          7.0520   -0.0560   -2.1570 C.3     1  UNL1        0.0470
      7  C          6.4820    0.1010   -0.7940 C.2     1  UNL1       -0.0470
      8  C          6.5910   -0.9040    0.1480 C.2     1  UNL1        0.0040
      9  C          5.8210    1.2500   -0.4010 C.2     1  UNL1        0.0040
     10  C          6.0570   -0.7470    1.4130 C.2     1  UNL1        0.0000
     11  C          5.2890    1.4090    0.8590 C.2     1  UNL1        0.0000
     12  C          5.3990    0.4020    1.7980 C.2     1  UNL1        0.0000
@<TRIPOS>BOND
     1     4     2    1
     2     4     5    1
     3     3     2    2
     4     2     1    1
     5     6     1    1
     6     6     7    1
     7     7     9    2
     8     7     8    1
     9     9    11    1
    10     8    10    2
    11    11    12    2
    12    10    12    1
