MODEL 1
REMARK VINA RESULT:      -7.3      0.000      0.000
REMARK SMILES O=C(O)CCc1ccccc1
REMARK SMILES IDX 4 1 2 2 1 3 3 4 5 6 6 7 7 8 11 9 8 10 10 11 9 12
REMARK H PARENT 3 5
REMARK Flexibility Score: inf
ROOT
ATOM      1  C   UNL     1       8.464  -0.649  -2.133  1.00  0.00     0.127 C 
ENDROOT
BRANCH   1   2
ATOM      2  C   UNL     1       8.468  -1.913  -2.913  1.00  0.00     0.303 C 
ATOM      3  O   UNL     1       9.555  -2.511  -3.105  1.00  0.00    -0.252 OA
BRANCH   2   4
ATOM      4  O   UNL     1       7.307  -2.468  -3.444  1.00  0.00    -0.481 OA
ATOM      5  H   UNL     1       7.332  -3.136  -4.230  1.00  0.00     0.296 HD
ENDBRANCH   2   4
ENDBRANCH   1   2
BRANCH   1   6
ATOM      6  C   UNL     1       7.058  -0.115  -2.143  1.00  0.00     0.047 C 
BRANCH   6   7
ATOM      7  C   UNL     1       6.496   0.031  -0.775  1.00  0.00    -0.047 A 
ATOM      8  C   UNL     1       5.851   1.189  -0.386  1.00  0.00     0.004 A 
ATOM      9  C   UNL     1       6.590  -0.974   0.170  1.00  0.00     0.004 A 
ATOM     10  C   UNL     1       5.332   1.314   0.888  1.00  0.00     0.000 A 
ATOM     11  C   UNL     1       6.074  -0.851   1.441  1.00  0.00     0.000 A 
ATOM     12  C   UNL     1       5.430   0.307   1.826  1.00  0.00     0.000 A 
ENDBRANCH   6   7
ENDBRANCH   1   6
TORSDOF 4
ENDMDL
MODEL 2
REMARK VINA RESULT:      -7.3      0.114      1.718
REMARK SMILES O=C(O)CCc1ccccc1
REMARK SMILES IDX 4 1 2 2 1 3 3 4 5 6 6 7 7 8 11 9 8 10 10 11 9 12
REMARK H PARENT 3 5
REMARK Flexibility Score: inf
ROOT
ATOM      1  C   UNL     1       8.448  -0.613  -2.135  1.00  0.00     0.127 C 
ENDROOT
BRANCH   1   2
ATOM      2  C   UNL     1       8.433  -1.891  -2.893  1.00  0.00     0.303 C 
ATOM      3  O   UNL     1       7.331  -2.397  -3.217  1.00  0.00    -0.252 OA
BRANCH   2   4
ATOM      4  O   UNL     1       9.599  -2.555  -3.263  1.00  0.00    -0.481 OA
ATOM      5  H   UNL     1      10.477  -2.451  -2.730  1.00  0.00     0.296 HD
ENDBRANCH   2   4
ENDBRANCH   1   2
BRANCH   1   6
ATOM      6  C   UNL     1       7.052  -0.056  -2.157  1.00  0.00     0.047 C 
BRANCH   6   7
ATOM      7  C   UNL     1       6.482   0.101  -0.794  1.00  0.00    -0.047 A 
ATOM      8  C   UNL     1       6.591  -0.904   0.148  1.00  0.00     0.004 A 
ATOM      9  C   UNL     1       5.821   1.250  -0.401  1.00  0.00     0.004 A 
ATOM     10  C   UNL     1       6.057  -0.747   1.413  1.00  0.00     0.000 A 
ATOM     11  C   UNL     1       5.289   1.409   0.859  1.00  0.00     0.000 A 
ATOM     12  C   UNL     1       5.399   0.402   1.798  1.00  0.00     0.000 A 
ENDBRANCH   6   7
ENDBRANCH   1   6
TORSDOF 4
ENDMDL
MODEL 3
REMARK VINA RESULT:      -7.0      1.008      1.922
REMARK SMILES O=C(O)CCc1ccccc1
REMARK SMILES IDX 4 1 2 2 1 3 3 4 5 6 6 7 7 8 11 9 8 10 10 11 9 12
REMARK H PARENT 3 5
REMARK Flexibility Score: inf
ROOT
ATOM      1  C   UNL     1       7.305  -1.379  -2.128  1.00  0.00     0.127 C 
ENDROOT
BRANCH   1   2
ATOM      2  C   UNL     1       8.735  -1.403  -2.532  1.00  0.00     0.303 C 
ATOM      3  O   UNL     1       9.485  -0.459  -2.184  1.00  0.00    -0.252 OA
BRANCH   2   4
ATOM      4  O   UNL     1       9.282  -2.438  -3.286  1.00  0.00    -0.481 OA
ATOM      5  H   UNL     1       9.038  -3.425  -3.113  1.00  0.00     0.296 HD
ENDBRANCH   2   4
ENDBRANCH   1   2
BRANCH   1   6
ATOM      6  C   UNL     1       7.259  -1.405  -0.625  1.00  0.00     0.047 C 
BRANCH   6   7
ATOM      7  C   UNL     1       6.456  -0.287  -0.063  1.00  0.00    -0.047 A 
ATOM      8  C   UNL     1       5.962  -0.339   1.226  1.00  0.00     0.004 A 
ATOM      9  C   UNL     1       6.166   0.850  -0.793  1.00  0.00     0.004 A 
ATOM     10  C   UNL     1       5.216   0.705   1.739  1.00  0.00     0.000 A 
ATOM     11  C   UNL     1       5.423   1.892  -0.285  1.00  0.00     0.000 A 
ATOM     12  C   UNL     1       4.930   1.837   1.004  1.00  0.00     0.000 A 
ENDBRANCH   6   7
ENDBRANCH   1   6
TORSDOF 4
ENDMDL
MODEL 4
REMARK VINA RESULT:      -6.8      3.400      5.118
REMARK SMILES O=C(O)CCc1ccccc1
REMARK SMILES IDX 4 1 2 2 1 3 3 4 5 6 6 7 7 8 11 9 8 10 10 11 9 12
REMARK H PARENT 3 5
REMARK Flexibility Score: inf
ROOT
ATOM      1  C   UNL     1       4.977   1.771   0.700  1.00  0.00     0.127 C 
ENDROOT
BRANCH   1   2
ATOM      2  C   UNL     1       4.450   1.117   1.926  1.00  0.00     0.303 C 
ATOM      3  O   UNL     1       5.132   0.224   2.485  1.00  0.00    -0.252 OA
BRANCH   2   4
ATOM      4  O   UNL     1       3.222   1.457   2.486  1.00  0.00    -0.481 OA
ATOM      5  H   UNL     1       2.876   2.429   2.491  1.00  0.00     0.296 HD
ENDBRANCH   2   4
ENDBRANCH   1   2
BRANCH   1   6
ATOM      6  C   UNL     1       6.477   1.779   0.800  1.00  0.00     0.047 C 
BRANCH   6   7
ATOM      7  C   UNL     1       7.124   1.029  -0.308  1.00  0.00    -0.047 A 
ATOM      8  C   UNL     1       6.415   0.114  -1.062  1.00  0.00     0.004 A 
ATOM      9  C   UNL     1       8.454   1.208  -0.639  1.00  0.00     0.004 A 
ATOM     10  C   UNL     1       7.026  -0.577  -2.091  1.00  0.00     0.000 A 
ATOM     11  C   UNL     1       9.065   0.520  -1.664  1.00  0.00     0.000 A 
ATOM     12  C   UNL     1       8.354  -0.394  -2.416  1.00  0.00     0.000 A 
ENDBRANCH   6   7
ENDBRANCH   1   6
TORSDOF 4
ENDMDL
MODEL 5
REMARK VINA RESULT:      -6.6      1.916      2.677
REMARK SMILES O=C(O)CCc1ccccc1
REMARK SMILES IDX 4 1 2 2 1 3 3 4 5 6 6 7 7 8 11 9 8 10 10 11 9 12
REMARK H PARENT 3 5
REMARK Flexibility Score: inf
ROOT
ATOM      1  C   UNL     1       8.228   0.275  -2.305  1.00  0.00     0.127 C 
ENDROOT
BRANCH   1   2
ATOM      2  C   UNL     1       9.334   0.385  -1.318  1.00  0.00     0.303 C 
ATOM      3  O   UNL     1       9.391  -0.435  -0.370  1.00  0.00    -0.252 OA
BRANCH   2   4
ATOM      4  O   UNL     1      10.316   1.368  -1.403  1.00  0.00    -0.481 OA
ATOM      5  H   UNL     1      10.119   2.303  -1.791  1.00  0.00     0.296 HD
ENDBRANCH   2   4
ENDBRANCH   1   2
BRANCH   1   6
ATOM      6  C   UNL     1       7.116  -0.499  -1.654  1.00  0.00     0.047 C 
BRANCH   6   7
ATOM      7  C   UNL     1       6.333   0.327  -0.699  1.00  0.00    -0.047 A 
ATOM      8  C   UNL     1       6.115  -0.093   0.599  1.00  0.00     0.004 A 
ATOM      9  C   UNL     1       5.789   1.547  -1.055  1.00  0.00     0.004 A 
ATOM     10  C   UNL     1       5.386   0.684   1.480  1.00  0.00     0.000 A 
ATOM     11  C   UNL     1       5.062   2.323  -0.180  1.00  0.00     0.000 A 
ATOM     12  C   UNL     1       4.846   1.900   1.116  1.00  0.00     0.000 A 
ENDBRANCH   6   7
ENDBRANCH   1   6
TORSDOF 4
ENDMDL
