@<TRIPOS>MOLECULE
/home/cewinharhar/GITHUB/reincatalyze/data/processed/docking_pred/2023-Apr-25-2033_maxeplen5_maxtrainstep200_exh16_gamma099_lrac3e-4_lrcr1e-3/5bd4159c0713ad18fb2d2a846002564f6b7df27c_ligand_2.pdbqt
 12 12 0 0 0
SMALL
GASTEIGER

@<TRIPOS>ATOM
      1  C          4.9770    1.7710    0.7000 C.3     1  UNL1        0.1270
      2  C          4.4500    1.1170    1.9260 C.2     1  UNL1        0.3030
      3  O          5.1320    0.2240    2.4850 O.2     1  UNL1       -0.2520
      4  O          3.2220    1.4570    2.4860 O.3     1  UNL1       -0.4810
      5  H          2.8760    2.4290    2.4910 H       1  UNL1        0.2960
      6  C          6.4770    1.7790    0.8000 C.3     1  UNL1        0.0470
      7  C          7.1240    1.0290   -0.3080 C.2     1  UNL1       -0.0470
      8  C          6.4150    0.1140   -1.0620 C.2     1  UNL1        0.0040
      9  C          8.4540    1.2080   -0.6390 C.2     1  UNL1        0.0040
     10  C          7.0260   -0.5770   -2.0910 C.2     1  UNL1        0.0000
     11  C          9.0650    0.5200   -1.6640 C.2     1  UNL1        0.0000
     12  C          8.3540   -0.3940   -2.4160 C.2     1  UNL1        0.0000
@<TRIPOS>BOND
     1    12    10    2
     2    12    11    1
     3    10     8    1
     4    11     9    2
     5     8     7    2
     6     9     7    1
     7     7     6    1
     8     1     6    1
     9     1     2    1
    10     2     3    2
    11     2     4    1
    12     4     5    1
