@<TRIPOS>MOLECULE
/home/cewinharhar/GITHUB/reincatalyze/data/processed/docking_pred/2023-Apr-25-2033_maxeplen5_maxtrainstep200_exh16_gamma099_lrac3e-4_lrcr1e-3/5bd4159c0713ad18fb2d2a846002564f6b7df27c_ligand_2.pdbqt
 12 12 0 0 0
SMALL
GASTEIGER

@<TRIPOS>ATOM
      1  C          8.4640   -0.6490   -2.1330 C.3     1  UNL1        0.1270
      2  C          8.4680   -1.9130   -2.9130 C.2     1  UNL1        0.3030
      3  O          9.5550   -2.5110   -3.1050 O.2     1  UNL1       -0.2520
      4  O          7.3070   -2.4680   -3.4440 O.3     1  UNL1       -0.4810
      5  H          7.3320   -3.1360   -4.2300 H       1  UNL1        0.2960
      6  C          7.0580   -0.1150   -2.1430 C.3     1  UNL1        0.0470
      7  C          6.4960    0.0310   -0.7750 C.2     1  UNL1       -0.0470
      8  C          5.8510    1.1890   -0.3860 C.2     1  UNL1        0.0040
      9  C          6.5900   -0.9740    0.1700 C.2     1  UNL1        0.0040
     10  C          5.3320    1.3140    0.8880 C.2     1  UNL1        0.0000
     11  C          6.0740   -0.8510    1.4410 C.2     1  UNL1        0.0000
     12  C          5.4300    0.3070    1.8260 C.2     1  UNL1        0.0000
@<TRIPOS>BOND
     1     5     4    1
     2     4     2    1
     3     3     2    2
     4     2     1    1
     5     6     1    1
     6     6     7    1
     7     7     8    2
     8     7     9    1
     9     8    10    1
    10     9    11    2
    11    10    12    2
    12    11    12    1
