@<TRIPOS>MOLECULE
/home/cewinharhar/GITHUB/reincatalyze/data/processed/docking_pred/2023-Apr-25-2033_maxeplen5_maxtrainstep200_exh16_gamma099_lrac3e-4_lrcr1e-3/5be73a077ea639c014f12358d863af943f9e92ef_ligand_2.pdbqt
 12 12 0 0 0
SMALL
GASTEIGER

@<TRIPOS>ATOM
      1  C          8.2370    0.2050   -2.2740 C.3     1  UNL1        0.1270
      2  C          9.3490    0.3620   -1.3010 C.2     1  UNL1        0.3030
      3  O          9.4160   -0.4140   -0.3170 O.2     1  UNL1       -0.2520
      4  O         10.3280    1.3430   -1.4360 O.3     1  UNL1       -0.4810
      5  H         11.2750    1.1230   -1.7800 H       1  UNL1        0.2960
      6  C          7.1400   -0.5610   -1.5890 C.3     1  UNL1        0.0470
      7  C          6.3520    0.2880   -0.6570 C.2     1  UNL1       -0.0470
      8  C          6.1170   -0.1080    0.6460 C.2     1  UNL1        0.0040
      9  C          5.8190    1.5040   -1.0420 C.2     1  UNL1        0.0040
     10  C          5.3830    0.6890    1.5040 C.2     1  UNL1        0.0000
     11  C          5.0880    2.3000   -0.1890 C.2     1  UNL1        0.0000
     12  C          4.8540    1.9020    1.1120 C.2     1  UNL1        0.0000
@<TRIPOS>BOND
     1     1     6    1
     2     1     2    1
     3     5     4    1
     4     6     7    1
     5     4     2    1
     6     2     3    2
     7     9     7    2
     8     9    11    1
     9     7     8    1
    10    11    12    2
    11     8    10    2
    12    12    10    1
