@<TRIPOS>MOLECULE
/home/cewinharhar/GITHUB/reincatalyze/data/processed/docking_pred/2023-Apr-25-2033_maxeplen5_maxtrainstep200_exh16_gamma099_lrac3e-4_lrcr1e-3/5be73a077ea639c014f12358d863af943f9e92ef_ligand_2.pdbqt
 12 12 0 0 0
SMALL
GASTEIGER

@<TRIPOS>ATOM
      1  C          5.4320    2.8830    0.0440 C.3     1  UNL1        0.1270
      2  C          6.2700    3.8090    0.8500 C.2     1  UNL1        0.3030
      3  O          6.8360    4.7740    0.2810 O.2     1  UNL1       -0.2520
      4  O          6.4550    3.6490    2.2200 O.3     1  UNL1       -0.4810
      5  H          6.3650    2.7290    2.6780 H       1  UNL1        0.2960
      6  C          4.9090    1.8220    0.9720 C.3     1  UNL1        0.0470
      7  C          5.7200    0.5770    0.9250 C.2     1  UNL1       -0.0470
      8  C          5.8240   -0.2510    2.0260 C.2     1  UNL1        0.0040
      9  C          6.4040    0.1870   -0.2110 C.2     1  UNL1        0.0040
     10  C          6.5800   -1.4060    1.9710 C.2     1  UNL1        0.0000
     11  C          7.1580   -0.9630   -0.2690 C.2     1  UNL1        0.0000
     12  C          7.2600   -1.7890    0.8330 C.2     1  UNL1        0.0000
@<TRIPOS>BOND
     1    11     9    1
     2    11    12    2
     3     9     7    2
     4     1     2    1
     5     1     6    1
     6     3     2    2
     7    12    10    1
     8     2     4    1
     9     7     6    1
    10     7     8    1
    11    10     8    2
    12     4     5    1
