@<TRIPOS>MOLECULE
/home/cewinharhar/GITHUB/reincatalyze/data/processed/docking_pred/2023-Apr-25-2033_maxeplen5_maxtrainstep200_exh16_gamma099_lrac3e-4_lrcr1e-3/5be73a077ea639c014f12358d863af943f9e92ef_ligand_2.pdbqt
 12 12 0 0 0
SMALL
GASTEIGER

@<TRIPOS>ATOM
      1  C          8.4310   -0.6140   -2.1450 C.3     1  UNL1        0.1270
      2  C          8.4130   -1.9040   -2.8830 C.2     1  UNL1        0.3030
      3  O          7.3100   -2.4090   -3.2060 O.2     1  UNL1       -0.2520
      4  O          9.5780   -2.5800   -3.2360 O.3     1  UNL1       -0.4810
      5  H         10.5080   -2.2590   -2.9270 H       1  UNL1        0.2960
      6  C          7.0300   -0.0690   -2.1510 C.3     1  UNL1        0.0470
      7  C          6.4720    0.0790   -0.7810 C.2     1  UNL1       -0.0470
      8  C          6.5960   -0.9300    0.1540 C.2     1  UNL1        0.0040
      9  C          5.8100    1.2230   -0.3760 C.2     1  UNL1        0.0040
     10  C          6.0740   -0.7810    1.4250 C.2     1  UNL1        0.0000
     11  C          5.2890    1.3730    0.8890 C.2     1  UNL1        0.0000
     12  C          5.4130    0.3630    1.8220 C.2     1  UNL1        0.0000
@<TRIPOS>BOND
     1     4     5    1
     2     4     2    1
     3     3     2    2
     4     2     1    1
     5     6     1    1
     6     6     7    1
     7     7     9    2
     8     7     8    1
     9     9    11    1
    10     8    10    2
    11    11    12    2
    12    10    12    1
