@<TRIPOS>MOLECULE
/home/cewinharhar/GITHUB/reincatalyze/data/processed/docking_pred/2023-Apr-25-2033_maxeplen5_maxtrainstep200_exh16_gamma099_lrac3e-4_lrcr1e-3/5be73a077ea639c014f12358d863af943f9e92ef_ligand_2.pdbqt
 12 12 0 0 0
SMALL
GASTEIGER

@<TRIPOS>ATOM
      1  C          8.4300   -0.5710   -2.1930 C.3     1  UNL1        0.1270
      2  C          8.4310   -1.8750   -2.9050 C.2     1  UNL1        0.3030
      3  O          7.3360   -2.4080   -3.2080 O.2     1  UNL1       -0.2520
      4  O          9.6060   -2.5360   -3.2530 O.3     1  UNL1       -0.4810
      5  H         10.2370   -2.9350   -2.5410 H       1  UNL1        0.2960
      6  C          7.0120   -0.0690   -2.1700 C.3     1  UNL1        0.0470
      7  C          6.4780    0.0600   -0.7890 C.2     1  UNL1       -0.0470
      8  C          5.8380    1.2110   -0.3740 C.2     1  UNL1        0.0040
      9  C          6.5920   -0.9570    0.1420 C.2     1  UNL1        0.0040
     10  C          5.3450    1.3200    0.9130 C.2     1  UNL1        0.0000
     11  C          6.1010   -0.8500    1.4240 C.2     1  UNL1        0.0000
     12  C          5.4620    0.3020    1.8360 C.2     1  UNL1        0.0000
@<TRIPOS>BOND
     1     4     2    1
     2     4     5    1
     3     3     2    2
     4     2     1    1
     5     1     6    1
     6     6     7    1
     7     7     8    2
     8     7     9    1
     9     8    10    1
    10     9    11    2
    11    10    12    2
    12    11    12    1
