MODEL 1
REMARK VINA RESULT:      -7.2      0.000      0.000
REMARK SMILES O=C(O)CCc1ccccc1
REMARK SMILES IDX 4 1 2 2 1 3 3 4 5 6 6 7 7 8 11 9 8 10 10 11 9 12
REMARK H PARENT 3 5
REMARK Flexibility Score: inf
ROOT
ATOM      1  C   UNL     1       8.431  -0.614  -2.145  1.00  0.00     0.127 C 
ENDROOT
BRANCH   1   2
ATOM      2  C   UNL     1       8.413  -1.904  -2.883  1.00  0.00     0.303 C 
ATOM      3  O   UNL     1       7.310  -2.409  -3.206  1.00  0.00    -0.252 OA
BRANCH   2   4
ATOM      4  O   UNL     1       9.578  -2.580  -3.236  1.00  0.00    -0.481 OA
ATOM      5  H   UNL     1      10.508  -2.259  -2.927  1.00  0.00     0.296 HD
ENDBRANCH   2   4
ENDBRANCH   1   2
BRANCH   1   6
ATOM      6  C   UNL     1       7.030  -0.069  -2.151  1.00  0.00     0.047 C 
BRANCH   6   7
ATOM      7  C   UNL     1       6.472   0.079  -0.781  1.00  0.00    -0.047 A 
ATOM      8  C   UNL     1       6.596  -0.930   0.154  1.00  0.00     0.004 A 
ATOM      9  C   UNL     1       5.810   1.223  -0.376  1.00  0.00     0.004 A 
ATOM     10  C   UNL     1       6.074  -0.781   1.425  1.00  0.00     0.000 A 
ATOM     11  C   UNL     1       5.289   1.373   0.889  1.00  0.00     0.000 A 
ATOM     12  C   UNL     1       5.413   0.363   1.822  1.00  0.00     0.000 A 
ENDBRANCH   6   7
ENDBRANCH   1   6
TORSDOF 4
ENDMDL
MODEL 2
REMARK VINA RESULT:      -7.2      0.053      1.420
REMARK SMILES O=C(O)CCc1ccccc1
REMARK SMILES IDX 4 1 2 2 1 3 3 4 5 6 6 7 7 8 11 9 8 10 10 11 9 12
REMARK H PARENT 3 5
REMARK Flexibility Score: inf
ROOT
ATOM      1  C   UNL     1       8.430  -0.571  -2.193  1.00  0.00     0.127 C 
ENDROOT
BRANCH   1   2
ATOM      2  C   UNL     1       8.431  -1.875  -2.905  1.00  0.00     0.303 C 
ATOM      3  O   UNL     1       7.336  -2.408  -3.208  1.00  0.00    -0.252 OA
BRANCH   2   4
ATOM      4  O   UNL     1       9.606  -2.536  -3.253  1.00  0.00    -0.481 OA
ATOM      5  H   UNL     1      10.237  -2.935  -2.541  1.00  0.00     0.296 HD
ENDBRANCH   2   4
ENDBRANCH   1   2
BRANCH   1   6
ATOM      6  C   UNL     1       7.012  -0.069  -2.170  1.00  0.00     0.047 C 
BRANCH   6   7
ATOM      7  C   UNL     1       6.478   0.060  -0.789  1.00  0.00    -0.047 A 
ATOM      8  C   UNL     1       5.838   1.211  -0.374  1.00  0.00     0.004 A 
ATOM      9  C   UNL     1       6.592  -0.957   0.142  1.00  0.00     0.004 A 
ATOM     10  C   UNL     1       5.345   1.320   0.913  1.00  0.00     0.000 A 
ATOM     11  C   UNL     1       6.101  -0.850   1.424  1.00  0.00     0.000 A 
ATOM     12  C   UNL     1       5.462   0.302   1.836  1.00  0.00     0.000 A 
ENDBRANCH   6   7
ENDBRANCH   1   6
TORSDOF 4
ENDMDL
MODEL 3
REMARK VINA RESULT:      -6.8      3.306      5.174
REMARK SMILES O=C(O)CCc1ccccc1
REMARK SMILES IDX 4 1 2 2 1 3 3 4 5 6 6 7 7 8 11 9 8 10 10 11 9 12
REMARK H PARENT 3 5
REMARK Flexibility Score: inf
ROOT
ATOM      1  C   UNL     1       5.002   1.786   0.713  1.00  0.00     0.127 C 
ENDROOT
BRANCH   1   2
ATOM      2  C   UNL     1       4.467   1.115   1.926  1.00  0.00     0.303 C 
ATOM      3  O   UNL     1       5.145   0.214   2.477  1.00  0.00    -0.252 OA
BRANCH   2   4
ATOM      4  O   UNL     1       3.234   1.448   2.482  1.00  0.00    -0.481 OA
ATOM      5  H   UNL     1       3.147   2.156   3.227  1.00  0.00     0.296 HD
ENDBRANCH   2   4
ENDBRANCH   1   2
BRANCH   1   6
ATOM      6  C   UNL     1       6.503   1.764   0.809  1.00  0.00     0.047 C 
BRANCH   6   7
ATOM      7  C   UNL     1       7.132   1.016  -0.311  1.00  0.00    -0.047 A 
ATOM      8  C   UNL     1       8.458   1.212  -0.646  1.00  0.00     0.004 A 
ATOM      9  C   UNL     1       6.431   0.094  -1.065  1.00  0.00     0.004 A 
ATOM     10  C   UNL     1       9.033   0.511  -1.688  1.00  0.00     0.000 A 
ATOM     11  C   UNL     1       7.002  -0.606  -2.105  1.00  0.00     0.000 A 
ATOM     12  C   UNL     1       8.327  -0.408  -2.438  1.00  0.00     0.000 A 
ENDBRANCH   6   7
ENDBRANCH   1   6
TORSDOF 4
ENDMDL
MODEL 4
REMARK VINA RESULT:      -6.6      3.822      4.930
REMARK SMILES O=C(O)CCc1ccccc1
REMARK SMILES IDX 4 1 2 2 1 3 3 4 5 6 6 7 7 8 11 9 8 10 10 11 9 12
REMARK H PARENT 3 5
REMARK Flexibility Score: inf
ROOT
ATOM      1  C   UNL     1       5.432   2.883   0.044  1.00  0.00     0.127 C 
ENDROOT
BRANCH   1   2
ATOM      2  C   UNL     1       6.270   3.809   0.850  1.00  0.00     0.303 C 
ATOM      3  O   UNL     1       6.836   4.774   0.281  1.00  0.00    -0.252 OA
BRANCH   2   4
ATOM      4  O   UNL     1       6.455   3.649   2.220  1.00  0.00    -0.481 OA
ATOM      5  H   UNL     1       6.365   2.729   2.678  1.00  0.00     0.296 HD
ENDBRANCH   2   4
ENDBRANCH   1   2
BRANCH   1   6
ATOM      6  C   UNL     1       4.909   1.822   0.972  1.00  0.00     0.047 C 
BRANCH   6   7
ATOM      7  C   UNL     1       5.720   0.577   0.925  1.00  0.00    -0.047 A 
ATOM      8  C   UNL     1       5.824  -0.251   2.026  1.00  0.00     0.004 A 
ATOM      9  C   UNL     1       6.404   0.187  -0.211  1.00  0.00     0.004 A 
ATOM     10  C   UNL     1       6.580  -1.406   1.971  1.00  0.00     0.000 A 
ATOM     11  C   UNL     1       7.158  -0.963  -0.269  1.00  0.00     0.000 A 
ATOM     12  C   UNL     1       7.260  -1.789   0.833  1.00  0.00     0.000 A 
ENDBRANCH   6   7
ENDBRANCH   1   6
TORSDOF 4
ENDMDL
MODEL 5
REMARK VINA RESULT:      -6.6      1.915      2.244
REMARK SMILES O=C(O)CCc1ccccc1
REMARK SMILES IDX 4 1 2 2 1 3 3 4 5 6 6 7 7 8 11 9 8 10 10 11 9 12
REMARK H PARENT 3 5
REMARK Flexibility Score: inf
ROOT
ATOM      1  C   UNL     1       8.237   0.205  -2.274  1.00  0.00     0.127 C 
ENDROOT
BRANCH   1   2
ATOM      2  C   UNL     1       9.349   0.362  -1.301  1.00  0.00     0.303 C 
ATOM      3  O   UNL     1       9.416  -0.414  -0.317  1.00  0.00    -0.252 OA
BRANCH   2   4
ATOM      4  O   UNL     1      10.328   1.343  -1.436  1.00  0.00    -0.481 OA
ATOM      5  H   UNL     1      11.275   1.123  -1.780  1.00  0.00     0.296 HD
ENDBRANCH   2   4
ENDBRANCH   1   2
BRANCH   1   6
ATOM      6  C   UNL     1       7.140  -0.561  -1.589  1.00  0.00     0.047 C 
BRANCH   6   7
ATOM      7  C   UNL     1       6.352   0.288  -0.657  1.00  0.00    -0.047 A 
ATOM      8  C   UNL     1       6.117  -0.108   0.646  1.00  0.00     0.004 A 
ATOM      9  C   UNL     1       5.819   1.504  -1.042  1.00  0.00     0.004 A 
ATOM     10  C   UNL     1       5.383   0.689   1.504  1.00  0.00     0.000 A 
ATOM     11  C   UNL     1       5.088   2.300  -0.189  1.00  0.00     0.000 A 
ATOM     12  C   UNL     1       4.854   1.902   1.112  1.00  0.00     0.000 A 
ENDBRANCH   6   7
ENDBRANCH   1   6
TORSDOF 4
ENDMDL
