@<TRIPOS>MOLECULE
/home/cewinharhar/GITHUB/reincatalyze/data/processed/docking_pred/2023-Apr-25-2033_maxeplen5_maxtrainstep200_exh16_gamma099_lrac3e-4_lrcr1e-3/5be73a077ea639c014f12358d863af943f9e92ef_ligand_2.pdbqt
 12 12 0 0 0
SMALL
GASTEIGER

@<TRIPOS>ATOM
      1  C          5.0020    1.7860    0.7130 C.3     1  UNL1        0.1270
      2  C          4.4670    1.1150    1.9260 C.2     1  UNL1        0.3030
      3  O          5.1450    0.2140    2.4770 O.2     1  UNL1       -0.2520
      4  O          3.2340    1.4480    2.4820 O.3     1  UNL1       -0.4810
      5  H          3.1470    2.1560    3.2270 H       1  UNL1        0.2960
      6  C          6.5030    1.7640    0.8090 C.3     1  UNL1        0.0470
      7  C          7.1320    1.0160   -0.3110 C.2     1  UNL1       -0.0470
      8  C          8.4580    1.2120   -0.6460 C.2     1  UNL1        0.0040
      9  C          6.4310    0.0940   -1.0650 C.2     1  UNL1        0.0040
     10  C          9.0330    0.5110   -1.6880 C.2     1  UNL1        0.0000
     11  C          7.0020   -0.6060   -2.1050 C.2     1  UNL1        0.0000
     12  C          8.3270   -0.4080   -2.4380 C.2     1  UNL1        0.0000
@<TRIPOS>BOND
     1    12    11    2
     2    12    10    1
     3    11     9    1
     4    10     8    2
     5     9     7    2
     6     8     7    1
     7     7     6    1
     8     1     6    1
     9     1     2    1
    10     2     3    2
    11     2     4    1
    12     4     5    1
