@<TRIPOS>MOLECULE
/home/cewinharhar/GITHUB/reincatalyze/data/processed/docking_pred/2023-Apr-25-2033_maxeplen5_maxtrainstep200_exh16_gamma099_lrac3e-4_lrcr1e-3/5c54d156b22251270ecdcbd3d684e6dc7dd5ede7_ligand_2.pdbqt
 12 12 0 0 0
SMALL
GASTEIGER

@<TRIPOS>ATOM
      1  C          8.4770   -0.6630   -2.0570 C.3     1  UNL1        0.1270
      2  C          8.4340   -1.9090   -2.8660 C.2     1  UNL1        0.3030
      3  O          7.3220   -2.3860   -3.1970 O.2     1  UNL1       -0.2520
      4  O          9.5870   -2.5730   -3.2750 O.3     1  UNL1       -0.4810
      5  H          9.7810   -3.5480   -2.9980 H       1  UNL1        0.2960
      6  C          7.1060   -0.0460   -2.1040 C.3     1  UNL1        0.0470
      7  C          6.5040    0.1020   -0.7530 C.2     1  UNL1       -0.0470
      8  C          5.8230    1.2500   -0.3950 C.2     1  UNL1        0.0040
      9  C          6.5920   -0.8910    0.2040 C.2     1  UNL1        0.0040
     10  C          5.2670    1.3770    0.8630 C.2     1  UNL1        0.0000
     11  C          6.0380   -0.7660    1.4590 C.2     1  UNL1        0.0000
     12  C          5.3590    0.3820    1.8140 C.2     1  UNL1        0.0000
@<TRIPOS>BOND
     1     4     5    1
     2     4     2    1
     3     3     2    2
     4     2     1    1
     5     6     1    1
     6     6     7    1
     7     7     8    2
     8     7     9    1
     9     8    10    1
    10     9    11    2
    11    10    12    2
    12    11    12    1
