@<TRIPOS>MOLECULE
/home/cewinharhar/GITHUB/reincatalyze/data/processed/docking_pred/2023-Apr-25-2033_maxeplen5_maxtrainstep200_exh16_gamma099_lrac3e-4_lrcr1e-3/5c54d156b22251270ecdcbd3d684e6dc7dd5ede7_ligand_2.pdbqt
 12 12 0 0 0
SMALL
GASTEIGER

@<TRIPOS>ATOM
      1  C          8.2740    0.1980   -2.1770 C.3     1  UNL1        0.1270
      2  C          9.4030    0.3890   -1.2300 C.2     1  UNL1        0.3030
      3  O          9.4920   -0.3550   -0.2240 O.2     1  UNL1       -0.2520
      4  O         10.3760    1.3690   -1.4150 O.3     1  UNL1       -0.4810
      5  H         10.5150    2.1320   -0.7360 H       1  UNL1        0.2960
      6  C          7.2260   -0.6170   -1.4720 C.3     1  UNL1        0.0470
      7  C          6.4030    0.1990   -0.5420 C.2     1  UNL1       -0.0470
      8  C          6.1570   -0.2200    0.7510 C.2     1  UNL1        0.0040
      9  C          5.8470    1.4070   -0.9180 C.2     1  UNL1        0.0040
     10  C          5.3910    0.5460    1.6080 C.2     1  UNL1        0.0000
     11  C          5.0830    2.1730   -0.0660 C.2     1  UNL1        0.0000
     12  C          4.8390    1.7520    1.2250 C.2     1  UNL1        0.0000
@<TRIPOS>BOND
     1     1     6    1
     2     1     2    1
     3     6     7    1
     4     4     2    1
     5     4     5    1
     6     2     3    2
     7     9     7    2
     8     9    11    1
     9     7     8    1
    10    11    12    2
    11     8    10    2
    12    12    10    1
