@<TRIPOS>MOLECULE
/home/cewinharhar/GITHUB/reincatalyze/data/processed/docking_pred/2023-Apr-25-2033_maxeplen5_maxtrainstep200_exh16_gamma099_lrac3e-4_lrcr1e-3/5c54d156b22251270ecdcbd3d684e6dc7dd5ede7_ligand_2.pdbqt
 12 12 0 0 0
SMALL
GASTEIGER

@<TRIPOS>ATOM
      1  C          8.4420   -0.5950   -2.1530 C.3     1  UNL1        0.1270
      2  C          8.4530   -1.8790   -2.9000 C.2     1  UNL1        0.3030
      3  O          9.5440   -2.4750   -3.0770 O.2     1  UNL1       -0.2520
      4  O          7.2950   -2.4540   -3.4160 O.3     1  UNL1       -0.4810
      5  H          6.8280   -3.2470   -2.9510 H       1  UNL1        0.2960
      6  C          7.0280   -0.0840   -2.1520 C.3     1  UNL1        0.0470
      7  C          6.4760    0.0580   -0.7790 C.2     1  UNL1       -0.0470
      8  C          6.5880   -0.9630    0.1450 C.2     1  UNL1        0.0040
      9  C          5.8300    1.2060   -0.3610 C.2     1  UNL1        0.0040
     10  C          6.0720   -0.8200    1.4190 C.2     1  UNL1        0.0000
     11  C          5.3150    1.3500    0.9080 C.2     1  UNL1        0.0000
     12  C          5.4280    0.3290    1.8300 C.2     1  UNL1        0.0000
@<TRIPOS>BOND
     1     4     5    1
     2     4     2    1
     3     3     2    2
     4     2     1    1
     5     1     6    1
     6     6     7    1
     7     7     9    2
     8     7     8    1
     9     9    11    1
    10     8    10    2
    11    11    12    2
    12    10    12    1
