@<TRIPOS>MOLECULE
/home/cewinharhar/GITHUB/reincatalyze/data/processed/docking_pred/2023-Apr-25-2033_maxeplen5_maxtrainstep200_exh16_gamma099_lrac3e-4_lrcr1e-3/5c54d156b22251270ecdcbd3d684e6dc7dd5ede7_ligand_2.pdbqt
 12 12 0 0 0
SMALL
GASTEIGER

@<TRIPOS>ATOM
      1  C          5.3040    2.8150    0.0560 C.3     1  UNL1        0.1270
      2  C          6.1630    3.7390    0.8420 C.2     1  UNL1        0.3030
      3  O          6.2490    3.5870    2.0850 O.2     1  UNL1       -0.2520
      4  O          6.8820    4.7750    0.2520 O.3     1  UNL1       -0.4810
      5  H          7.8260    5.0360    0.5760 H       1  UNL1        0.2960
      6  C          5.2840    1.4940    0.7750 C.3     1  UNL1        0.0470
      7  C          6.0850    0.4550    0.0760 C.2     1  UNL1       -0.0470
      8  C          6.5610   -0.6540    0.7490 C.2     1  UNL1        0.0040
      9  C          6.3910    0.5440   -1.2690 C.2     1  UNL1        0.0040
     10  C          7.3050   -1.6140    0.0890 C.2     1  UNL1        0.0000
     11  C          7.1320   -0.4110   -1.9280 C.2     1  UNL1        0.0000
     12  C          7.6070   -1.5180   -1.2540 C.2     1  UNL1        0.0000
@<TRIPOS>BOND
     1    11     9    1
     2    11    12    2
     3     9     7    2
     4    12    10    1
     5     1     6    1
     6     1     2    1
     7     7     8    1
     8     7     6    1
     9    10     8    2
    10     4     5    1
    11     4     2    1
    12     2     3    2
