MODEL 1
REMARK VINA RESULT:      -7.3      0.000      0.000
REMARK SMILES O=C(O)CCc1ccccc1
REMARK SMILES IDX 4 1 2 2 1 3 3 4 5 6 6 7 7 8 11 9 8 10 10 11 9 12
REMARK H PARENT 3 5
REMARK Flexibility Score: inf
ROOT
ATOM      1  C   UNL     1       8.442  -0.595  -2.153  1.00  0.00     0.127 C 
ENDROOT
BRANCH   1   2
ATOM      2  C   UNL     1       8.453  -1.879  -2.900  1.00  0.00     0.303 C 
ATOM      3  O   UNL     1       9.544  -2.475  -3.077  1.00  0.00    -0.252 OA
BRANCH   2   4
ATOM      4  O   UNL     1       7.295  -2.454  -3.416  1.00  0.00    -0.481 OA
ATOM      5  H   UNL     1       6.828  -3.247  -2.951  1.00  0.00     0.296 HD
ENDBRANCH   2   4
ENDBRANCH   1   2
BRANCH   1   6
ATOM      6  C   UNL     1       7.028  -0.084  -2.152  1.00  0.00     0.047 C 
BRANCH   6   7
ATOM      7  C   UNL     1       6.476   0.058  -0.779  1.00  0.00    -0.047 A 
ATOM      8  C   UNL     1       6.588  -0.963   0.145  1.00  0.00     0.004 A 
ATOM      9  C   UNL     1       5.830   1.206  -0.361  1.00  0.00     0.004 A 
ATOM     10  C   UNL     1       6.072  -0.820   1.419  1.00  0.00     0.000 A 
ATOM     11  C   UNL     1       5.315   1.350   0.908  1.00  0.00     0.000 A 
ATOM     12  C   UNL     1       5.428   0.329   1.830  1.00  0.00     0.000 A 
ENDBRANCH   6   7
ENDBRANCH   1   6
TORSDOF 4
ENDMDL
MODEL 2
REMARK VINA RESULT:      -7.3      0.123      1.718
REMARK SMILES O=C(O)CCc1ccccc1
REMARK SMILES IDX 4 1 2 2 1 3 3 4 5 6 6 7 7 8 11 9 8 10 10 11 9 12
REMARK H PARENT 3 5
REMARK Flexibility Score: inf
ROOT
ATOM      1  C   UNL     1       8.477  -0.663  -2.057  1.00  0.00     0.127 C 
ENDROOT
BRANCH   1   2
ATOM      2  C   UNL     1       8.434  -1.909  -2.866  1.00  0.00     0.303 C 
ATOM      3  O   UNL     1       7.322  -2.386  -3.197  1.00  0.00    -0.252 OA
BRANCH   2   4
ATOM      4  O   UNL     1       9.587  -2.573  -3.275  1.00  0.00    -0.481 OA
ATOM      5  H   UNL     1       9.781  -3.548  -2.998  1.00  0.00     0.296 HD
ENDBRANCH   2   4
ENDBRANCH   1   2
BRANCH   1   6
ATOM      6  C   UNL     1       7.106  -0.046  -2.104  1.00  0.00     0.047 C 
BRANCH   6   7
ATOM      7  C   UNL     1       6.504   0.102  -0.753  1.00  0.00    -0.047 A 
ATOM      8  C   UNL     1       5.823   1.250  -0.395  1.00  0.00     0.004 A 
ATOM      9  C   UNL     1       6.592  -0.891   0.204  1.00  0.00     0.004 A 
ATOM     10  C   UNL     1       5.267   1.377   0.863  1.00  0.00     0.000 A 
ATOM     11  C   UNL     1       6.038  -0.766   1.459  1.00  0.00     0.000 A 
ATOM     12  C   UNL     1       5.359   0.382   1.814  1.00  0.00     0.000 A 
ENDBRANCH   6   7
ENDBRANCH   1   6
TORSDOF 4
ENDMDL
MODEL 3
REMARK VINA RESULT:      -6.8      3.380      5.097
REMARK SMILES O=C(O)CCc1ccccc1
REMARK SMILES IDX 4 1 2 2 1 3 3 4 5 6 6 7 7 8 11 9 8 10 10 11 9 12
REMARK H PARENT 3 5
REMARK Flexibility Score: inf
ROOT
ATOM      1  C   UNL     1       4.979   1.762   0.659  1.00  0.00     0.127 C 
ENDROOT
BRANCH   1   2
ATOM      2  C   UNL     1       4.463   1.129   1.901  1.00  0.00     0.303 C 
ATOM      3  O   UNL     1       5.153   0.251   2.473  1.00  0.00    -0.252 OA
BRANCH   2   4
ATOM      4  O   UNL     1       3.235   1.474   2.461  1.00  0.00    -0.481 OA
ATOM      5  H   UNL     1       2.666   0.792   2.986  1.00  0.00     0.296 HD
ENDBRANCH   2   4
ENDBRANCH   1   2
BRANCH   1   6
ATOM      6  C   UNL     1       6.479   1.791   0.756  1.00  0.00     0.047 C 
BRANCH   6   7
ATOM      7  C   UNL     1       7.132   1.026  -0.339  1.00  0.00    -0.047 A 
ATOM      8  C   UNL     1       8.467   1.212  -0.643  1.00  0.00     0.004 A 
ATOM      9  C   UNL     1       6.445   0.100  -1.101  1.00  0.00     0.004 A 
ATOM     10  C   UNL     1       9.065   0.496  -1.663  1.00  0.00     0.000 A 
ATOM     11  C   UNL     1       7.039  -0.615  -2.117  1.00  0.00     0.000 A 
ATOM     12  C   UNL     1       8.373  -0.428  -2.419  1.00  0.00     0.000 A 
ENDBRANCH   6   7
ENDBRANCH   1   6
TORSDOF 4
ENDMDL
MODEL 4
REMARK VINA RESULT:      -6.6      1.938      2.323
REMARK SMILES O=C(O)CCc1ccccc1
REMARK SMILES IDX 4 1 2 2 1 3 3 4 5 6 6 7 7 8 11 9 8 10 10 11 9 12
REMARK H PARENT 3 5
REMARK Flexibility Score: inf
ROOT
ATOM      1  C   UNL     1       8.274   0.198  -2.177  1.00  0.00     0.127 C 
ENDROOT
BRANCH   1   2
ATOM      2  C   UNL     1       9.403   0.389  -1.230  1.00  0.00     0.303 C 
ATOM      3  O   UNL     1       9.492  -0.355  -0.224  1.00  0.00    -0.252 OA
BRANCH   2   4
ATOM      4  O   UNL     1      10.376   1.369  -1.415  1.00  0.00    -0.481 OA
ATOM      5  H   UNL     1      10.515   2.132  -0.736  1.00  0.00     0.296 HD
ENDBRANCH   2   4
ENDBRANCH   1   2
BRANCH   1   6
ATOM      6  C   UNL     1       7.226  -0.617  -1.472  1.00  0.00     0.047 C 
BRANCH   6   7
ATOM      7  C   UNL     1       6.403   0.199  -0.542  1.00  0.00    -0.047 A 
ATOM      8  C   UNL     1       6.157  -0.220   0.751  1.00  0.00     0.004 A 
ATOM      9  C   UNL     1       5.847   1.407  -0.918  1.00  0.00     0.004 A 
ATOM     10  C   UNL     1       5.391   0.546   1.608  1.00  0.00     0.000 A 
ATOM     11  C   UNL     1       5.083   2.173  -0.066  1.00  0.00     0.000 A 
ATOM     12  C   UNL     1       4.839   1.752   1.225  1.00  0.00     0.000 A 
ENDBRANCH   6   7
ENDBRANCH   1   6
TORSDOF 4
ENDMDL
MODEL 5
REMARK VINA RESULT:      -6.6      3.672      4.959
REMARK SMILES O=C(O)CCc1ccccc1
REMARK SMILES IDX 4 1 2 2 1 3 3 4 5 6 6 7 7 8 11 9 8 10 10 11 9 12
REMARK H PARENT 3 5
REMARK Flexibility Score: inf
ROOT
ATOM      1  C   UNL     1       5.304   2.815   0.056  1.00  0.00     0.127 C 
ENDROOT
BRANCH   1   2
ATOM      2  C   UNL     1       6.163   3.739   0.842  1.00  0.00     0.303 C 
ATOM      3  O   UNL     1       6.249   3.587   2.085  1.00  0.00    -0.252 OA
BRANCH   2   4
ATOM      4  O   UNL     1       6.882   4.775   0.252  1.00  0.00    -0.481 OA
ATOM      5  H   UNL     1       7.826   5.036   0.576  1.00  0.00     0.296 HD
ENDBRANCH   2   4
ENDBRANCH   1   2
BRANCH   1   6
ATOM      6  C   UNL     1       5.284   1.494   0.775  1.00  0.00     0.047 C 
BRANCH   6   7
ATOM      7  C   UNL     1       6.085   0.455   0.076  1.00  0.00    -0.047 A 
ATOM      8  C   UNL     1       6.561  -0.654   0.749  1.00  0.00     0.004 A 
ATOM      9  C   UNL     1       6.391   0.544  -1.269  1.00  0.00     0.004 A 
ATOM     10  C   UNL     1       7.305  -1.614   0.089  1.00  0.00     0.000 A 
ATOM     11  C   UNL     1       7.132  -0.411  -1.928  1.00  0.00     0.000 A 
ATOM     12  C   UNL     1       7.607  -1.518  -1.254  1.00  0.00     0.000 A 
ENDBRANCH   6   7
ENDBRANCH   1   6
TORSDOF 4
ENDMDL
