@<TRIPOS>MOLECULE
/home/cewinharhar/GITHUB/reincatalyze/data/processed/docking_pred/2023-Apr-25-2033_maxeplen5_maxtrainstep200_exh16_gamma099_lrac3e-4_lrcr1e-3/5c54d156b22251270ecdcbd3d684e6dc7dd5ede7_ligand_2.pdbqt
 12 12 0 0 0
SMALL
GASTEIGER

@<TRIPOS>ATOM
      1  C          4.9790    1.7620    0.6590 C.3     1  UNL1        0.1270
      2  C          4.4630    1.1290    1.9010 C.2     1  UNL1        0.3030
      3  O          5.1530    0.2510    2.4730 O.2     1  UNL1       -0.2520
      4  O          3.2350    1.4740    2.4610 O.3     1  UNL1       -0.4810
      5  H          2.6660    0.7920    2.9860 H       1  UNL1        0.2960
      6  C          6.4790    1.7910    0.7560 C.3     1  UNL1        0.0470
      7  C          7.1320    1.0260   -0.3390 C.2     1  UNL1       -0.0470
      8  C          8.4670    1.2120   -0.6430 C.2     1  UNL1        0.0040
      9  C          6.4450    0.1000   -1.1010 C.2     1  UNL1        0.0040
     10  C          9.0650    0.4960   -1.6630 C.2     1  UNL1        0.0000
     11  C          7.0390   -0.6150   -2.1170 C.2     1  UNL1        0.0000
     12  C          8.3730   -0.4280   -2.4190 C.2     1  UNL1        0.0000
@<TRIPOS>BOND
     1    12    11    2
     2    12    10    1
     3    11     9    1
     4    10     8    2
     5     9     7    2
     6     8     7    1
     7     7     6    1
     8     1     6    1
     9     1     2    1
    10     2     4    1
    11     2     3    2
    12     4     5    1
