@<TRIPOS>MOLECULE
/home/cewinharhar/GITHUB/reincatalyze/data/processed/docking_pred/2023-Apr-25-2033_maxeplen5_maxtrainstep200_exh16_gamma099_lrac3e-4_lrcr1e-3/6047b5c71b47d2a809e14c46b0582b8ae3076bc9_ligand_2.pdbqt
 12 12 0 0 0
SMALL
GASTEIGER

@<TRIPOS>ATOM
      1  C          8.2390    0.2520   -2.2700 C.3     1  UNL1        0.1270
      2  C          9.3350    0.3750   -1.2740 C.2     1  UNL1        0.3030
      3  O          9.3830   -0.4320   -0.3130 O.2     1  UNL1       -0.2520
      4  O         10.3190    1.3560   -1.3620 O.3     1  UNL1       -0.4810
      5  H         10.1000    2.3220   -1.6500 H       1  UNL1        0.2960
      6  C          7.1220   -0.5180   -1.6200 C.3     1  UNL1        0.0470
      7  C          6.3370    0.3140   -0.6710 C.2     1  UNL1       -0.0470
      8  C          5.7930    1.5230   -1.0590 C.2     1  UNL1        0.0040
      9  C          6.1120   -0.0760    0.6360 C.2     1  UNL1        0.0040
     10  C          5.0650    2.2890   -0.1680 C.2     1  UNL1        0.0000
     11  C          5.3870    0.6850    1.5260 C.2     1  UNL1        0.0000
     12  C          4.8450    1.8930    1.1350 C.2     1  UNL1        0.0000
@<TRIPOS>BOND
     1     1     6    1
     2     1     2    1
     3     5     4    1
     4     6     7    1
     5     4     2    1
     6     2     3    2
     7     8     7    2
     8     8    10    1
     9     7     9    1
    10    10    12    2
    11     9    11    2
    12    12    11    1
