@<TRIPOS>MOLECULE
/home/cewinharhar/GITHUB/reincatalyze/data/processed/docking_pred/2023-Apr-25-2033_maxeplen5_maxtrainstep200_exh16_gamma099_lrac3e-4_lrcr1e-3/6047b5c71b47d2a809e14c46b0582b8ae3076bc9_ligand_2.pdbqt
 12 12 0 0 0
SMALL
GASTEIGER

@<TRIPOS>ATOM
      1  C          8.2370   -1.5810    1.1140 C.3     1  UNL1        0.1270
      2  C          8.5100   -2.7950    0.3020 C.2     1  UNL1        0.3030
      3  O          9.1520   -3.7430    0.8150 O.2     1  UNL1       -0.2520
      4  O          8.0780   -2.9250   -1.0150 O.3     1  UNL1       -0.4810
      5  H          7.5100   -2.1980   -1.4760 H       1  UNL1        0.2960
      6  C          6.7480   -1.4820    1.2950 C.3     1  UNL1        0.0470
      7  C          6.1950   -0.2080    0.7660 C.2     1  UNL1       -0.0470
      8  C          6.4280    0.1860   -0.5370 C.2     1  UNL1        0.0040
      9  C          5.4250    0.6380    1.5430 C.2     1  UNL1        0.0040
     10  C          5.9080    1.3730   -1.0190 C.2     1  UNL1        0.0000
     11  C          4.9070    1.8210    1.0650 C.2     1  UNL1        0.0000
     12  C          5.1420    2.2130   -0.2370 C.2     1  UNL1        0.0000
@<TRIPOS>BOND
     1     5     4    1
     2    10     8    1
     3    10    12    2
     4     4     2    1
     5     8     7    2
     6    12    11    1
     7     2     3    2
     8     2     1    1
     9     7     6    1
    10     7     9    1
    11    11     9    2
    12     1     6    1
