MODEL 1
REMARK VINA RESULT:      -7.3      0.000      0.000
REMARK SMILES O=C(O)CCc1ccccc1
REMARK SMILES IDX 4 1 2 2 1 3 3 4 5 6 6 7 7 8 11 9 8 10 10 11 9 12
REMARK H PARENT 3 5
REMARK Flexibility Score: inf
ROOT
ATOM      1  C   UNL     1       8.457  -0.601  -2.170  1.00  0.00     0.127 C 
ENDROOT
BRANCH   1   2
ATOM      2  C   UNL     1       8.463  -1.884  -2.920  1.00  0.00     0.303 C 
ATOM      3  O   UNL     1       9.551  -2.483  -3.099  1.00  0.00    -0.252 OA
BRANCH   2   4
ATOM      4  O   UNL     1       7.302  -2.453  -3.435  1.00  0.00    -0.481 OA
ATOM      5  H   UNL     1       6.396  -2.380  -2.947  1.00  0.00     0.296 HD
ENDBRANCH   2   4
ENDBRANCH   1   2
BRANCH   1   6
ATOM      6  C   UNL     1       7.044  -0.086  -2.164  1.00  0.00     0.047 C 
BRANCH   6   7
ATOM      7  C   UNL     1       6.494   0.047  -0.790  1.00  0.00    -0.047 A 
ATOM      8  C   UNL     1       5.849   1.200  -0.386  1.00  0.00     0.004 A 
ATOM      9  C   UNL     1       6.598  -0.966   0.146  1.00  0.00     0.004 A 
ATOM     10  C   UNL     1       5.341   1.313   0.894  1.00  0.00     0.000 A 
ATOM     11  C   UNL     1       6.093  -0.855   1.422  1.00  0.00     0.000 A 
ATOM     12  C   UNL     1       5.449   0.298   1.823  1.00  0.00     0.000 A 
ENDBRANCH   6   7
ENDBRANCH   1   6
TORSDOF 4
ENDMDL
MODEL 2
REMARK VINA RESULT:      -7.2      0.093      1.717
REMARK SMILES O=C(O)CCc1ccccc1
REMARK SMILES IDX 4 1 2 2 1 3 3 4 5 6 6 7 7 8 11 9 8 10 10 11 9 12
REMARK H PARENT 3 5
REMARK Flexibility Score: inf
ROOT
ATOM      1  C   UNL     1       8.429  -0.580  -2.181  1.00  0.00     0.127 C 
ENDROOT
BRANCH   1   2
ATOM      2  C   UNL     1       8.424  -1.883  -2.897  1.00  0.00     0.303 C 
ATOM      3  O   UNL     1       7.326  -2.408  -3.204  1.00  0.00    -0.252 OA
BRANCH   2   4
ATOM      4  O   UNL     1       9.596  -2.550  -3.244  1.00  0.00    -0.481 OA
ATOM      5  H   UNL     1      10.005  -3.280  -2.642  1.00  0.00     0.296 HD
ENDBRANCH   2   4
ENDBRANCH   1   2
BRANCH   1   6
ATOM      6  C   UNL     1       7.016  -0.068  -2.162  1.00  0.00     0.047 C 
BRANCH   6   7
ATOM      7  C   UNL     1       6.479   0.066  -0.783  1.00  0.00    -0.047 A 
ATOM      8  C   UNL     1       6.602  -0.958   0.136  1.00  0.00     0.004 A 
ATOM      9  C   UNL     1       5.836   1.212  -0.352  1.00  0.00     0.004 A 
ATOM     10  C   UNL     1       6.099  -0.823   1.416  1.00  0.00     0.000 A 
ATOM     11  C   UNL     1       5.334   1.349   0.923  1.00  0.00     0.000 A 
ATOM     12  C   UNL     1       5.458   0.324   1.838  1.00  0.00     0.000 A 
ENDBRANCH   6   7
ENDBRANCH   1   6
TORSDOF 4
ENDMDL
MODEL 3
REMARK VINA RESULT:      -6.8      3.388      5.103
REMARK SMILES O=C(O)CCc1ccccc1
REMARK SMILES IDX 4 1 2 2 1 3 3 4 5 6 6 7 7 8 11 9 8 10 10 11 9 12
REMARK H PARENT 3 5
REMARK Flexibility Score: inf
ROOT
ATOM      1  C   UNL     1       4.981   1.806   0.688  1.00  0.00     0.127 C 
ENDROOT
BRANCH   1   2
ATOM      2  C   UNL     1       4.460   1.136   1.908  1.00  0.00     0.303 C 
ATOM      3  O   UNL     1       5.146   0.238   2.454  1.00  0.00    -0.252 OA
BRANCH   2   4
ATOM      4  O   UNL     1       3.232   1.467   2.476  1.00  0.00    -0.481 OA
ATOM      5  H   UNL     1       2.436   1.785   1.903  1.00  0.00     0.296 HD
ENDBRANCH   2   4
ENDBRANCH   1   2
BRANCH   1   6
ATOM      6  C   UNL     1       6.482   1.813   0.781  1.00  0.00     0.047 C 
BRANCH   6   7
ATOM      7  C   UNL     1       7.123   1.053  -0.323  1.00  0.00    -0.047 A 
ATOM      8  C   UNL     1       6.406   0.144  -1.077  1.00  0.00     0.004 A 
ATOM      9  C   UNL     1       8.456   1.217  -0.652  1.00  0.00     0.004 A 
ATOM     10  C   UNL     1       7.013  -0.557  -2.102  1.00  0.00     0.000 A 
ATOM     11  C   UNL     1       9.062   0.520  -1.673  1.00  0.00     0.000 A 
ATOM     12  C   UNL     1       8.344  -0.389  -2.423  1.00  0.00     0.000 A 
ENDBRANCH   6   7
ENDBRANCH   1   6
TORSDOF 4
ENDMDL
MODEL 4
REMARK VINA RESULT:      -6.6      1.919      2.337
REMARK SMILES O=C(O)CCc1ccccc1
REMARK SMILES IDX 4 1 2 2 1 3 3 4 5 6 6 7 7 8 11 9 8 10 10 11 9 12
REMARK H PARENT 3 5
REMARK Flexibility Score: inf
ROOT
ATOM      1  C   UNL     1       8.239   0.252  -2.270  1.00  0.00     0.127 C 
ENDROOT
BRANCH   1   2
ATOM      2  C   UNL     1       9.335   0.375  -1.274  1.00  0.00     0.303 C 
ATOM      3  O   UNL     1       9.383  -0.432  -0.313  1.00  0.00    -0.252 OA
BRANCH   2   4
ATOM      4  O   UNL     1      10.319   1.356  -1.362  1.00  0.00    -0.481 OA
ATOM      5  H   UNL     1      10.100   2.322  -1.650  1.00  0.00     0.296 HD
ENDBRANCH   2   4
ENDBRANCH   1   2
BRANCH   1   6
ATOM      6  C   UNL     1       7.122  -0.518  -1.620  1.00  0.00     0.047 C 
BRANCH   6   7
ATOM      7  C   UNL     1       6.337   0.314  -0.671  1.00  0.00    -0.047 A 
ATOM      8  C   UNL     1       5.793   1.523  -1.059  1.00  0.00     0.004 A 
ATOM      9  C   UNL     1       6.112  -0.076   0.636  1.00  0.00     0.004 A 
ATOM     10  C   UNL     1       5.065   2.289  -0.168  1.00  0.00     0.000 A 
ATOM     11  C   UNL     1       5.387   0.685   1.526  1.00  0.00     0.000 A 
ATOM     12  C   UNL     1       4.845   1.893   1.135  1.00  0.00     0.000 A 
ENDBRANCH   6   7
ENDBRANCH   1   6
TORSDOF 4
ENDMDL
MODEL 5
REMARK VINA RESULT:      -6.6      1.888      2.881
REMARK SMILES O=C(O)CCc1ccccc1
REMARK SMILES IDX 4 1 2 2 1 3 3 4 5 6 6 7 7 8 11 9 8 10 10 11 9 12
REMARK H PARENT 3 5
REMARK Flexibility Score: inf
ROOT
ATOM      1  C   UNL     1       8.237  -1.581   1.114  1.00  0.00     0.127 C 
ENDROOT
BRANCH   1   2
ATOM      2  C   UNL     1       8.510  -2.795   0.302  1.00  0.00     0.303 C 
ATOM      3  O   UNL     1       9.152  -3.743   0.815  1.00  0.00    -0.252 OA
BRANCH   2   4
ATOM      4  O   UNL     1       8.078  -2.925  -1.015  1.00  0.00    -0.481 OA
ATOM      5  H   UNL     1       7.510  -2.198  -1.476  1.00  0.00     0.296 HD
ENDBRANCH   2   4
ENDBRANCH   1   2
BRANCH   1   6
ATOM      6  C   UNL     1       6.748  -1.482   1.295  1.00  0.00     0.047 C 
BRANCH   6   7
ATOM      7  C   UNL     1       6.195  -0.208   0.766  1.00  0.00    -0.047 A 
ATOM      8  C   UNL     1       6.428   0.186  -0.537  1.00  0.00     0.004 A 
ATOM      9  C   UNL     1       5.425   0.638   1.543  1.00  0.00     0.004 A 
ATOM     10  C   UNL     1       5.908   1.373  -1.019  1.00  0.00     0.000 A 
ATOM     11  C   UNL     1       4.907   1.821   1.065  1.00  0.00     0.000 A 
ATOM     12  C   UNL     1       5.142   2.213  -0.237  1.00  0.00     0.000 A 
ENDBRANCH   6   7
ENDBRANCH   1   6
TORSDOF 4
ENDMDL
