@<TRIPOS>MOLECULE
/home/cewinharhar/GITHUB/reincatalyze/data/processed/docking_pred/2023-Apr-25-2033_maxeplen5_maxtrainstep200_exh16_gamma099_lrac3e-4_lrcr1e-3/6047b5c71b47d2a809e14c46b0582b8ae3076bc9_ligand_2.pdbqt
 12 12 0 0 0
SMALL
GASTEIGER

@<TRIPOS>ATOM
      1  C          8.4570   -0.6010   -2.1700 C.3     1  UNL1        0.1270
      2  C          8.4630   -1.8840   -2.9200 C.2     1  UNL1        0.3030
      3  O          9.5510   -2.4830   -3.0990 O.2     1  UNL1       -0.2520
      4  O          7.3020   -2.4530   -3.4350 O.3     1  UNL1       -0.4810
      5  H          6.3960   -2.3800   -2.9470 H       1  UNL1        0.2960
      6  C          7.0440   -0.0860   -2.1640 C.3     1  UNL1        0.0470
      7  C          6.4940    0.0470   -0.7900 C.2     1  UNL1       -0.0470
      8  C          5.8490    1.2000   -0.3860 C.2     1  UNL1        0.0040
      9  C          6.5980   -0.9660    0.1460 C.2     1  UNL1        0.0040
     10  C          5.3410    1.3130    0.8940 C.2     1  UNL1        0.0000
     11  C          6.0930   -0.8550    1.4220 C.2     1  UNL1        0.0000
     12  C          5.4490    0.2980    1.8230 C.2     1  UNL1        0.0000
@<TRIPOS>BOND
     1     4     5    1
     2     4     2    1
     3     3     2    2
     4     2     1    1
     5     1     6    1
     6     6     7    1
     7     7     8    2
     8     7     9    1
     9     8    10    1
    10     9    11    2
    11    10    12    2
    12    11    12    1
