@<TRIPOS>MOLECULE
/home/cewinharhar/GITHUB/reincatalyze/data/processed/docking_pred/2023-Apr-25-2033_maxeplen5_maxtrainstep200_exh16_gamma099_lrac3e-4_lrcr1e-3/6047b5c71b47d2a809e14c46b0582b8ae3076bc9_ligand_2.pdbqt
 12 12 0 0 0
SMALL
GASTEIGER

@<TRIPOS>ATOM
      1  C          8.4290   -0.5800   -2.1810 C.3     1  UNL1        0.1270
      2  C          8.4240   -1.8830   -2.8970 C.2     1  UNL1        0.3030
      3  O          7.3260   -2.4080   -3.2040 O.2     1  UNL1       -0.2520
      4  O          9.5960   -2.5500   -3.2440 O.3     1  UNL1       -0.4810
      5  H         10.0050   -3.2800   -2.6420 H       1  UNL1        0.2960
      6  C          7.0160   -0.0680   -2.1620 C.3     1  UNL1        0.0470
      7  C          6.4790    0.0660   -0.7830 C.2     1  UNL1       -0.0470
      8  C          6.6020   -0.9580    0.1360 C.2     1  UNL1        0.0040
      9  C          5.8360    1.2120   -0.3520 C.2     1  UNL1        0.0040
     10  C          6.0990   -0.8230    1.4160 C.2     1  UNL1        0.0000
     11  C          5.3340    1.3490    0.9230 C.2     1  UNL1        0.0000
     12  C          5.4580    0.3240    1.8380 C.2     1  UNL1        0.0000
@<TRIPOS>BOND
     1     4     2    1
     2     4     5    1
     3     3     2    2
     4     2     1    1
     5     1     6    1
     6     6     7    1
     7     7     9    2
     8     7     8    1
     9     9    11    1
    10     8    10    2
    11    11    12    2
    12    10    12    1
