@<TRIPOS>MOLECULE
/home/cewinharhar/GITHUB/reincatalyze/data/processed/docking_pred/2023-Apr-25-2033_maxeplen5_maxtrainstep200_exh16_gamma099_lrac3e-4_lrcr1e-3/6070aa1b8336213875ea865ca7f6d729a9af33a9_ligand_2.pdbqt
 12 12 0 0 0
SMALL
GASTEIGER

@<TRIPOS>ATOM
      1  C          7.2940   -1.3500   -2.1400 C.3     1  UNL1        0.1270
      2  C          8.7300   -1.3900   -2.5200 C.2     1  UNL1        0.3030
      3  O          9.5010   -0.4960   -2.0960 O.2     1  UNL1       -0.2520
      4  O          9.2600   -2.3880   -3.3340 O.3     1  UNL1       -0.4810
      5  H          9.7650   -3.1980   -2.9430 H       1  UNL1        0.2960
      6  C          7.2210   -1.3950   -0.6390 C.3     1  UNL1        0.0470
      7  C          6.4270   -0.2720   -0.0750 C.2     1  UNL1       -0.0470
      8  C          5.9350   -0.3210    1.2150 C.2     1  UNL1        0.0040
      9  C          6.1430    0.8670   -0.8050 C.2     1  UNL1        0.0040
     10  C          5.1970    0.7290    1.7290 C.2     1  UNL1        0.0000
     11  C          5.4080    1.9140   -0.2950 C.2     1  UNL1        0.0000
     12  C          4.9170    1.8620    0.9940 C.2     1  UNL1        0.0000
@<TRIPOS>BOND
     1     4     5    1
     2     4     2    1
     3     2     1    1
     4     2     3    2
     5     1     6    1
     6     9    11    1
     7     9     7    2
     8     6     7    1
     9    11    12    2
    10     7     8    1
    11    12    10    1
    12     8    10    2
