@<TRIPOS>MOLECULE
/home/cewinharhar/GITHUB/reincatalyze/data/processed/docking_pred/2023-Apr-25-2033_maxeplen5_maxtrainstep200_exh16_gamma099_lrac3e-4_lrcr1e-3/6070aa1b8336213875ea865ca7f6d729a9af33a9_ligand_2.pdbqt
 12 12 0 0 0
SMALL
GASTEIGER

@<TRIPOS>ATOM
      1  C          8.4130   -0.6670   -2.0820 C.3     1  UNL1        0.1270
      2  C          8.4020   -1.9270   -2.8690 C.2     1  UNL1        0.3030
      3  O          7.3040   -2.4110   -3.2350 O.2     1  UNL1       -0.2520
      4  O          9.5700   -2.5990   -3.2200 O.3     1  UNL1       -0.4810
      5  H         10.2040   -2.9960   -2.5090 H       1  UNL1        0.2960
      6  C          7.0160   -0.1110   -2.0990 C.3     1  UNL1        0.0470
      7  C          6.4520    0.0510   -0.7330 C.2     1  UNL1       -0.0470
      8  C          5.7970    1.2090   -0.3620 C.2     1  UNL1        0.0040
      9  C          6.5530   -0.9400    0.2260 C.2     1  UNL1        0.0040
     10  C          5.2770    1.3490    0.9110 C.2     1  UNL1        0.0000
     11  C          6.0350   -0.8020    1.4950 C.2     1  UNL1        0.0000
     12  C          5.3820    0.3560    1.8630 C.2     1  UNL1        0.0000
@<TRIPOS>BOND
     1     3     2    2
     2     4     2    1
     3     4     5    1
     4     2     1    1
     5     6     1    1
     6     6     7    1
     7     7     8    2
     8     7     9    1
     9     8    10    1
    10     9    11    2
    11    10    12    2
    12    11    12    1
