MODEL 1
REMARK VINA RESULT:      -7.3      0.000      0.000
REMARK SMILES O=C(O)CCc1ccccc1
REMARK SMILES IDX 4 1 2 2 1 3 3 4 5 6 6 7 7 8 11 9 8 10 10 11 9 12
REMARK H PARENT 3 5
REMARK Flexibility Score: inf
ROOT
ATOM      1  C   UNL     1       8.463  -0.574  -2.194  1.00  0.00     0.127 C 
ENDROOT
BRANCH   1   2
ATOM      2  C   UNL     1       8.482  -1.870  -2.921  1.00  0.00     0.303 C 
ATOM      3  O   UNL     1       9.576  -2.462  -3.088  1.00  0.00    -0.252 OA
BRANCH   2   4
ATOM      4  O   UNL     1       7.327  -2.459  -3.428  1.00  0.00    -0.481 OA
ATOM      5  H   UNL     1       7.148  -3.471  -3.339  1.00  0.00     0.296 HD
ENDBRANCH   2   4
ENDBRANCH   1   2
BRANCH   1   6
ATOM      6  C   UNL     1       7.042  -0.082  -2.182  1.00  0.00     0.047 C 
BRANCH   6   7
ATOM      7  C   UNL     1       6.499   0.051  -0.805  1.00  0.00    -0.047 A 
ATOM      8  C   UNL     1       6.622  -0.972   0.115  1.00  0.00     0.004 A 
ATOM      9  C   UNL     1       5.849   1.194  -0.378  1.00  0.00     0.004 A 
ATOM     10  C   UNL     1       6.113  -0.838   1.393  1.00  0.00     0.000 A 
ATOM     11  C   UNL     1       5.342   1.331   0.895  1.00  0.00     0.000 A 
ATOM     12  C   UNL     1       5.466   0.306   1.812  1.00  0.00     0.000 A 
ENDBRANCH   6   7
ENDBRANCH   1   6
TORSDOF 4
ENDMDL
MODEL 2
REMARK VINA RESULT:      -7.3      0.129      1.720
REMARK SMILES O=C(O)CCc1ccccc1
REMARK SMILES IDX 4 1 2 2 1 3 3 4 5 6 6 7 7 8 11 9 8 10 10 11 9 12
REMARK H PARENT 3 5
REMARK Flexibility Score: inf
ROOT
ATOM      1  C   UNL     1       8.413  -0.667  -2.082  1.00  0.00     0.127 C 
ENDROOT
BRANCH   1   2
ATOM      2  C   UNL     1       8.402  -1.927  -2.869  1.00  0.00     0.303 C 
ATOM      3  O   UNL     1       7.304  -2.411  -3.235  1.00  0.00    -0.252 OA
BRANCH   2   4
ATOM      4  O   UNL     1       9.570  -2.599  -3.220  1.00  0.00    -0.481 OA
ATOM      5  H   UNL     1      10.204  -2.996  -2.509  1.00  0.00     0.296 HD
ENDBRANCH   2   4
ENDBRANCH   1   2
BRANCH   1   6
ATOM      6  C   UNL     1       7.016  -0.111  -2.099  1.00  0.00     0.047 C 
BRANCH   6   7
ATOM      7  C   UNL     1       6.452   0.051  -0.733  1.00  0.00    -0.047 A 
ATOM      8  C   UNL     1       5.797   1.209  -0.362  1.00  0.00     0.004 A 
ATOM      9  C   UNL     1       6.553  -0.940   0.226  1.00  0.00     0.004 A 
ATOM     10  C   UNL     1       5.277   1.349   0.911  1.00  0.00     0.000 A 
ATOM     11  C   UNL     1       6.035  -0.802   1.495  1.00  0.00     0.000 A 
ATOM     12  C   UNL     1       5.382   0.356   1.863  1.00  0.00     0.000 A 
ENDBRANCH   6   7
ENDBRANCH   1   6
TORSDOF 4
ENDMDL
MODEL 3
REMARK VINA RESULT:      -7.0      0.999      1.562
REMARK SMILES O=C(O)CCc1ccccc1
REMARK SMILES IDX 4 1 2 2 1 3 3 4 5 6 6 7 7 8 11 9 8 10 10 11 9 12
REMARK H PARENT 3 5
REMARK Flexibility Score: inf
ROOT
ATOM      1  C   UNL     1       7.294  -1.350  -2.140  1.00  0.00     0.127 C 
ENDROOT
BRANCH   1   2
ATOM      2  C   UNL     1       8.730  -1.390  -2.520  1.00  0.00     0.303 C 
ATOM      3  O   UNL     1       9.501  -0.496  -2.096  1.00  0.00    -0.252 OA
BRANCH   2   4
ATOM      4  O   UNL     1       9.260  -2.388  -3.334  1.00  0.00    -0.481 OA
ATOM      5  H   UNL     1       9.765  -3.198  -2.943  1.00  0.00     0.296 HD
ENDBRANCH   2   4
ENDBRANCH   1   2
BRANCH   1   6
ATOM      6  C   UNL     1       7.221  -1.395  -0.639  1.00  0.00     0.047 C 
BRANCH   6   7
ATOM      7  C   UNL     1       6.427  -0.272  -0.075  1.00  0.00    -0.047 A 
ATOM      8  C   UNL     1       5.935  -0.321   1.215  1.00  0.00     0.004 A 
ATOM      9  C   UNL     1       6.143   0.867  -0.805  1.00  0.00     0.004 A 
ATOM     10  C   UNL     1       5.197   0.729   1.729  1.00  0.00     0.000 A 
ATOM     11  C   UNL     1       5.408   1.914  -0.295  1.00  0.00     0.000 A 
ATOM     12  C   UNL     1       4.917   1.862   0.994  1.00  0.00     0.000 A 
ENDBRANCH   6   7
ENDBRANCH   1   6
TORSDOF 4
ENDMDL
MODEL 4
REMARK VINA RESULT:      -6.8      3.393      5.087
REMARK SMILES O=C(O)CCc1ccccc1
REMARK SMILES IDX 4 1 2 2 1 3 3 4 5 6 6 7 7 8 11 9 8 10 10 11 9 12
REMARK H PARENT 3 5
REMARK Flexibility Score: inf
ROOT
ATOM      1  C   UNL     1       4.981   1.797   0.723  1.00  0.00     0.127 C 
ENDROOT
BRANCH   1   2
ATOM      2  C   UNL     1       4.449   1.116   1.932  1.00  0.00     0.303 C 
ATOM      3  O   UNL     1       5.128   0.209   2.472  1.00  0.00    -0.252 OA
BRANCH   2   4
ATOM      4  O   UNL     1       3.220   1.446   2.495  1.00  0.00    -0.481 OA
ATOM      5  H   UNL     1       3.040   2.377   2.902  1.00  0.00     0.296 HD
ENDBRANCH   2   4
ENDBRANCH   1   2
BRANCH   1   6
ATOM      6  C   UNL     1       6.482   1.783   0.819  1.00  0.00     0.047 C 
BRANCH   6   7
ATOM      7  C   UNL     1       7.116   1.044  -0.304  1.00  0.00    -0.047 A 
ATOM      8  C   UNL     1       6.398   0.140  -1.062  1.00  0.00     0.004 A 
ATOM      9  C   UNL     1       8.444   1.224  -0.645  1.00  0.00     0.004 A 
ATOM     10  C   UNL     1       6.998  -0.542  -2.103  1.00  0.00     0.000 A 
ATOM     11  C   UNL     1       9.044   0.546  -1.683  1.00  0.00     0.000 A 
ATOM     12  C   UNL     1       8.324  -0.358  -2.438  1.00  0.00     0.000 A 
ENDBRANCH   6   7
ENDBRANCH   1   6
TORSDOF 4
ENDMDL
MODEL 5
REMARK VINA RESULT:      -6.7      3.831      4.932
REMARK SMILES O=C(O)CCc1ccccc1
REMARK SMILES IDX 4 1 2 2 1 3 3 4 5 6 6 7 7 8 11 9 8 10 10 11 9 12
REMARK H PARENT 3 5
REMARK Flexibility Score: inf
ROOT
ATOM      1  C   UNL     1       5.475   2.887  -0.018  1.00  0.00     0.127 C 
ENDROOT
BRANCH   1   2
ATOM      2  C   UNL     1       6.238   3.870   0.793  1.00  0.00     0.303 C 
ATOM      3  O   UNL     1       6.889   4.771   0.211  1.00  0.00    -0.252 OA
BRANCH   2   4
ATOM      4  O   UNL     1       6.261   3.833   2.185  1.00  0.00    -0.481 OA
ATOM      5  H   UNL     1       5.402   3.701   2.740  1.00  0.00     0.296 HD
ENDBRANCH   2   4
ENDBRANCH   1   2
BRANCH   1   6
ATOM      6  C   UNL     1       4.910   1.862   0.925  1.00  0.00     0.047 C 
BRANCH   6   7
ATOM      7  C   UNL     1       5.719   0.616   0.961  1.00  0.00    -0.047 A 
ATOM      8  C   UNL     1       5.724  -0.203   2.074  1.00  0.00     0.004 A 
ATOM      9  C   UNL     1       6.499   0.215  -0.108  1.00  0.00     0.004 A 
ATOM     10  C   UNL     1       6.481  -1.359   2.096  1.00  0.00     0.000 A 
ATOM     11  C   UNL     1       7.253  -0.937  -0.088  1.00  0.00     0.000 A 
ATOM     12  C   UNL     1       7.257  -1.753   1.026  1.00  0.00     0.000 A 
ENDBRANCH   6   7
ENDBRANCH   1   6
TORSDOF 4
ENDMDL
