@<TRIPOS>MOLECULE
/home/cewinharhar/GITHUB/reincatalyze/data/processed/docking_pred/2023-Apr-25-2033_maxeplen5_maxtrainstep200_exh16_gamma099_lrac3e-4_lrcr1e-3/6070aa1b8336213875ea865ca7f6d729a9af33a9_ligand_2.pdbqt
 12 12 0 0 0
SMALL
GASTEIGER

@<TRIPOS>ATOM
      1  C          5.4750    2.8870   -0.0180 C.3     1  UNL1        0.1270
      2  C          6.2380    3.8700    0.7930 C.2     1  UNL1        0.3030
      3  O          6.8890    4.7710    0.2110 O.2     1  UNL1       -0.2520
      4  O          6.2610    3.8330    2.1850 O.3     1  UNL1       -0.4810
      5  H          5.4020    3.7010    2.7400 H       1  UNL1        0.2960
      6  C          4.9100    1.8620    0.9250 C.3     1  UNL1        0.0470
      7  C          5.7190    0.6160    0.9610 C.2     1  UNL1       -0.0470
      8  C          5.7240   -0.2030    2.0740 C.2     1  UNL1        0.0040
      9  C          6.4990    0.2150   -0.1080 C.2     1  UNL1        0.0040
     10  C          6.4810   -1.3590    2.0960 C.2     1  UNL1        0.0000
     11  C          7.2530   -0.9370   -0.0880 C.2     1  UNL1        0.0000
     12  C          7.2570   -1.7530    1.0260 C.2     1  UNL1        0.0000
@<TRIPOS>BOND
     1     9    11    1
     2     9     7    2
     3    11    12    2
     4     1     2    1
     5     1     6    1
     6     3     2    2
     7     2     4    1
     8     6     7    1
     9     7     8    1
    10    12    10    1
    11     8    10    2
    12     4     5    1
