@<TRIPOS>MOLECULE
/home/cewinharhar/GITHUB/reincatalyze/data/processed/docking_pred/2023-Apr-25-2033_maxeplen5_maxtrainstep200_exh16_gamma099_lrac3e-4_lrcr1e-3/6070aa1b8336213875ea865ca7f6d729a9af33a9_ligand_2.pdbqt
 12 12 0 0 0
SMALL
GASTEIGER

@<TRIPOS>ATOM
      1  C          8.4630   -0.5740   -2.1940 C.3     1  UNL1        0.1270
      2  C          8.4820   -1.8700   -2.9210 C.2     1  UNL1        0.3030
      3  O          9.5760   -2.4620   -3.0880 O.2     1  UNL1       -0.2520
      4  O          7.3270   -2.4590   -3.4280 O.3     1  UNL1       -0.4810
      5  H          7.1480   -3.4710   -3.3390 H       1  UNL1        0.2960
      6  C          7.0420   -0.0820   -2.1820 C.3     1  UNL1        0.0470
      7  C          6.4990    0.0510   -0.8050 C.2     1  UNL1       -0.0470
      8  C          6.6220   -0.9720    0.1150 C.2     1  UNL1        0.0040
      9  C          5.8490    1.1940   -0.3780 C.2     1  UNL1        0.0040
     10  C          6.1130   -0.8380    1.3930 C.2     1  UNL1        0.0000
     11  C          5.3420    1.3310    0.8950 C.2     1  UNL1        0.0000
     12  C          5.4660    0.3060    1.8120 C.2     1  UNL1        0.0000
@<TRIPOS>BOND
     1     4     5    1
     2     4     2    1
     3     3     2    2
     4     2     1    1
     5     1     6    1
     6     6     7    1
     7     7     9    2
     8     7     8    1
     9     9    11    1
    10     8    10    2
    11    11    12    2
    12    10    12    1
