@<TRIPOS>MOLECULE
/home/cewinharhar/GITHUB/reincatalyze/data/processed/docking_pred/2023-Apr-25-2033_maxeplen5_maxtrainstep200_exh16_gamma099_lrac3e-4_lrcr1e-3/6070aa1b8336213875ea865ca7f6d729a9af33a9_ligand_2.pdbqt
 12 12 0 0 0
SMALL
GASTEIGER

@<TRIPOS>ATOM
      1  C          4.9810    1.7970    0.7230 C.3     1  UNL1        0.1270
      2  C          4.4490    1.1160    1.9320 C.2     1  UNL1        0.3030
      3  O          5.1280    0.2090    2.4720 O.2     1  UNL1       -0.2520
      4  O          3.2200    1.4460    2.4950 O.3     1  UNL1       -0.4810
      5  H          3.0400    2.3770    2.9020 H       1  UNL1        0.2960
      6  C          6.4820    1.7830    0.8190 C.3     1  UNL1        0.0470
      7  C          7.1160    1.0440   -0.3040 C.2     1  UNL1       -0.0470
      8  C          6.3980    0.1400   -1.0620 C.2     1  UNL1        0.0040
      9  C          8.4440    1.2240   -0.6450 C.2     1  UNL1        0.0040
     10  C          6.9980   -0.5420   -2.1030 C.2     1  UNL1        0.0000
     11  C          9.0440    0.5460   -1.6830 C.2     1  UNL1        0.0000
     12  C          8.3240   -0.3580   -2.4380 C.2     1  UNL1        0.0000
@<TRIPOS>BOND
     1    12    10    2
     2    12    11    1
     3    10     8    1
     4    11     9    2
     5     8     7    2
     6     9     7    1
     7     7     6    1
     8     1     6    1
     9     1     2    1
    10     2     3    2
    11     2     4    1
    12     4     5    1
