@<TRIPOS>MOLECULE
/home/cewinharhar/GITHUB/reincatalyze/data/processed/docking_pred/2023-Apr-25-2033_maxeplen5_maxtrainstep200_exh16_gamma099_lrac3e-4_lrcr1e-3/62f66f9004302081042513b5faa006f3d97c65a4_ligand_2.pdbqt
 12 12 0 0 0
SMALL
GASTEIGER

@<TRIPOS>ATOM
      1  C          8.4330   -0.6030   -2.1490 C.3     1  UNL1        0.1270
      2  C          8.4160   -1.8880   -2.8950 C.2     1  UNL1        0.3030
      3  O          7.3140   -2.4040   -3.2020 O.2     1  UNL1       -0.2520
      4  O          9.5830   -2.5490   -3.2720 O.3     1  UNL1       -0.4810
      5  H          9.5990   -3.5640   -3.4530 H       1  UNL1        0.2960
      6  C          7.0290   -0.0650   -2.1440 C.3     1  UNL1        0.0470
      7  C          6.4770    0.0690   -0.7700 C.2     1  UNL1       -0.0470
      8  C          6.5910   -0.9550    0.1490 C.2     1  UNL1        0.0040
      9  C          5.8300    1.2150   -0.3460 C.2     1  UNL1        0.0040
     10  C          6.0750   -0.8200    1.4240 C.2     1  UNL1        0.0000
     11  C          5.3150    1.3520    0.9230 C.2     1  UNL1        0.0000
     12  C          5.4290    0.3260    1.8400 C.2     1  UNL1        0.0000
@<TRIPOS>BOND
     1     5     4    1
     2     4     2    1
     3     3     2    2
     4     2     1    1
     5     1     6    1
     6     6     7    1
     7     7     9    2
     8     7     8    1
     9     9    11    1
    10     8    10    2
    11    11    12    2
    12    10    12    1
