@<TRIPOS>MOLECULE
/home/cewinharhar/GITHUB/reincatalyze/data/processed/docking_pred/2023-Apr-25-2033_maxeplen5_maxtrainstep200_exh16_gamma099_lrac3e-4_lrcr1e-3/62f66f9004302081042513b5faa006f3d97c65a4_ligand_2.pdbqt
 12 12 0 0 0
SMALL
GASTEIGER

@<TRIPOS>ATOM
      1  C          8.2150    0.4140   -2.0700 C.3     1  UNL1        0.1270
      2  C          9.4070    0.4060   -1.1830 C.2     1  UNL1        0.3030
      3  O          9.4520   -0.4040   -0.2260 O.2     1  UNL1       -0.2520
      4  O         10.4850    1.2670   -1.3720 O.3     1  UNL1       -0.4810
      5  H         10.7460    1.9750   -0.6690 H       1  UNL1        0.2960
      6  C          7.1970   -0.5170   -1.4700 C.3     1  UNL1        0.0470
      7  C          6.3830    0.1390   -0.4130 C.2     1  UNL1       -0.0470
      8  C          6.1830   -0.4650    0.8130 C.2     1  UNL1        0.0040
      9  C          5.7900    1.3730   -0.6010 C.2     1  UNL1        0.0040
     10  C          5.4240    0.1530    1.7890 C.2     1  UNL1        0.0000
     11  C          5.0330    1.9910    0.3690 C.2     1  UNL1        0.0000
     12  C          4.8350    1.3860    1.5940 C.2     1  UNL1        0.0000
@<TRIPOS>BOND
     1     1     6    1
     2     1     2    1
     3     6     7    1
     4     4     2    1
     5     4     5    1
     6     2     3    2
     7     9     7    2
     8     9    11    1
     9     7     8    1
    10    11    12    2
    11     8    10    2
    12    12    10    1
