MODEL 1
REMARK VINA RESULT:      -7.3      0.000      0.000
REMARK SMILES O=C(O)CCc1ccccc1
REMARK SMILES IDX 4 1 2 2 1 3 3 4 5 6 6 7 7 8 11 9 8 10 10 11 9 12
REMARK H PARENT 3 5
REMARK Flexibility Score: inf
ROOT
ATOM      1  C   UNL     1       8.457  -0.560  -2.218  1.00  0.00     0.127 C 
ENDROOT
BRANCH   1   2
ATOM      2  C   UNL     1       8.473  -1.864  -2.930  1.00  0.00     0.303 C 
ATOM      3  O   UNL     1       9.566  -2.459  -3.093  1.00  0.00    -0.252 OA
BRANCH   2   4
ATOM      4  O   UNL     1       7.317  -2.458  -3.428  1.00  0.00    -0.481 OA
ATOM      5  H   UNL     1       6.409  -1.968  -3.427  1.00  0.00     0.296 HD
ENDBRANCH   2   4
ENDBRANCH   1   2
BRANCH   1   6
ATOM      6  C   UNL     1       7.034  -0.074  -2.196  1.00  0.00     0.047 C 
BRANCH   6   7
ATOM      7  C   UNL     1       6.500   0.056  -0.815  1.00  0.00    -0.047 A 
ATOM      8  C   UNL     1       5.866   1.211  -0.399  1.00  0.00     0.004 A 
ATOM      9  C   UNL     1       6.608  -0.962   0.114  1.00  0.00     0.004 A 
ATOM     10  C   UNL     1       5.374   1.321   0.887  1.00  0.00     0.000 A 
ATOM     11  C   UNL     1       6.118  -0.854   1.396  1.00  0.00     0.000 A 
ATOM     12  C   UNL     1       5.486   0.301   1.810  1.00  0.00     0.000 A 
ENDBRANCH   6   7
ENDBRANCH   1   6
TORSDOF 4
ENDMDL
MODEL 2
REMARK VINA RESULT:      -7.2      0.110      1.718
REMARK SMILES O=C(O)CCc1ccccc1
REMARK SMILES IDX 4 1 2 2 1 3 3 4 5 6 6 7 7 8 11 9 8 10 10 11 9 12
REMARK H PARENT 3 5
REMARK Flexibility Score: inf
ROOT
ATOM      1  C   UNL     1       8.433  -0.603  -2.149  1.00  0.00     0.127 C 
ENDROOT
BRANCH   1   2
ATOM      2  C   UNL     1       8.416  -1.888  -2.895  1.00  0.00     0.303 C 
ATOM      3  O   UNL     1       7.314  -2.404  -3.202  1.00  0.00    -0.252 OA
BRANCH   2   4
ATOM      4  O   UNL     1       9.583  -2.549  -3.272  1.00  0.00    -0.481 OA
ATOM      5  H   UNL     1       9.599  -3.564  -3.453  1.00  0.00     0.296 HD
ENDBRANCH   2   4
ENDBRANCH   1   2
BRANCH   1   6
ATOM      6  C   UNL     1       7.029  -0.065  -2.144  1.00  0.00     0.047 C 
BRANCH   6   7
ATOM      7  C   UNL     1       6.477   0.069  -0.770  1.00  0.00    -0.047 A 
ATOM      8  C   UNL     1       6.591  -0.955   0.149  1.00  0.00     0.004 A 
ATOM      9  C   UNL     1       5.830   1.215  -0.346  1.00  0.00     0.004 A 
ATOM     10  C   UNL     1       6.075  -0.820   1.424  1.00  0.00     0.000 A 
ATOM     11  C   UNL     1       5.315   1.352   0.923  1.00  0.00     0.000 A 
ATOM     12  C   UNL     1       5.429   0.326   1.840  1.00  0.00     0.000 A 
ENDBRANCH   6   7
ENDBRANCH   1   6
TORSDOF 4
ENDMDL
MODEL 3
REMARK VINA RESULT:      -6.8      3.386      5.094
REMARK SMILES O=C(O)CCc1ccccc1
REMARK SMILES IDX 4 1 2 2 1 3 3 4 5 6 6 7 7 8 11 9 8 10 10 11 9 12
REMARK H PARENT 3 5
REMARK Flexibility Score: inf
ROOT
ATOM      1  C   UNL     1       4.989   1.794   0.680  1.00  0.00     0.127 C 
ENDROOT
BRANCH   1   2
ATOM      2  C   UNL     1       4.471   1.132   1.906  1.00  0.00     0.303 C 
ATOM      3  O   UNL     1       5.162   0.244   2.461  1.00  0.00    -0.252 OA
BRANCH   2   4
ATOM      4  O   UNL     1       3.240   1.459   2.468  1.00  0.00    -0.481 OA
ATOM      5  H   UNL     1       2.943   1.086   3.383  1.00  0.00     0.296 HD
ENDBRANCH   2   4
ENDBRANCH   1   2
BRANCH   1   6
ATOM      6  C   UNL     1       6.490   1.810   0.775  1.00  0.00     0.047 C 
BRANCH   6   7
ATOM      7  C   UNL     1       7.136   1.057  -0.332  1.00  0.00    -0.047 A 
ATOM      8  C   UNL     1       6.412   0.185  -1.123  1.00  0.00     0.004 A 
ATOM      9  C   UNL     1       8.481   1.189  -0.625  1.00  0.00     0.004 A 
ATOM     10  C   UNL     1       7.023  -0.510  -2.149  1.00  0.00     0.000 A 
ATOM     11  C   UNL     1       9.091   0.498  -1.647  1.00  0.00     0.000 A 
ATOM     12  C   UNL     1       8.366  -0.373  -2.435  1.00  0.00     0.000 A 
ENDBRANCH   6   7
ENDBRANCH   1   6
TORSDOF 4
ENDMDL
MODEL 4
REMARK VINA RESULT:      -6.6      1.939      2.642
REMARK SMILES O=C(O)CCc1ccccc1
REMARK SMILES IDX 4 1 2 2 1 3 3 4 5 6 6 7 7 8 11 9 8 10 10 11 9 12
REMARK H PARENT 3 5
REMARK Flexibility Score: inf
ROOT
ATOM      1  C   UNL     1       8.215   0.414  -2.070  1.00  0.00     0.127 C 
ENDROOT
BRANCH   1   2
ATOM      2  C   UNL     1       9.407   0.406  -1.183  1.00  0.00     0.303 C 
ATOM      3  O   UNL     1       9.452  -0.404  -0.226  1.00  0.00    -0.252 OA
BRANCH   2   4
ATOM      4  O   UNL     1      10.485   1.267  -1.372  1.00  0.00    -0.481 OA
ATOM      5  H   UNL     1      10.746   1.975  -0.669  1.00  0.00     0.296 HD
ENDBRANCH   2   4
ENDBRANCH   1   2
BRANCH   1   6
ATOM      6  C   UNL     1       7.197  -0.517  -1.470  1.00  0.00     0.047 C 
BRANCH   6   7
ATOM      7  C   UNL     1       6.383   0.139  -0.413  1.00  0.00    -0.047 A 
ATOM      8  C   UNL     1       6.183  -0.465   0.813  1.00  0.00     0.004 A 
ATOM      9  C   UNL     1       5.790   1.373  -0.601  1.00  0.00     0.004 A 
ATOM     10  C   UNL     1       5.424   0.153   1.789  1.00  0.00     0.000 A 
ATOM     11  C   UNL     1       5.033   1.991   0.369  1.00  0.00     0.000 A 
ATOM     12  C   UNL     1       4.835   1.386   1.594  1.00  0.00     0.000 A 
ENDBRANCH   6   7
ENDBRANCH   1   6
TORSDOF 4
ENDMDL
MODEL 5
REMARK VINA RESULT:      -6.6      3.730      4.964
REMARK SMILES O=C(O)CCc1ccccc1
REMARK SMILES IDX 4 1 2 2 1 3 3 4 5 6 6 7 7 8 11 9 8 10 10 11 9 12
REMARK H PARENT 3 5
REMARK Flexibility Score: inf
ROOT
ATOM      1  C   UNL     1       5.336   2.949   0.061  1.00  0.00     0.127 C 
ENDROOT
BRANCH   1   2
ATOM      2  C   UNL     1       6.212   3.858   0.845  1.00  0.00     0.303 C 
ATOM      3  O   UNL     1       6.867   4.744   0.245  1.00  0.00    -0.252 OA
BRANCH   2   4
ATOM      4  O   UNL     1       6.336   3.766   2.228  1.00  0.00    -0.481 OA
ATOM      5  H   UNL     1       7.056   3.174   2.672  1.00  0.00     0.296 HD
ENDBRANCH   2   4
ENDBRANCH   1   2
BRANCH   1   6
ATOM      6  C   UNL     1       5.231   1.655   0.820  1.00  0.00     0.047 C 
BRANCH   6   7
ATOM      7  C   UNL     1       6.027   0.565   0.197  1.00  0.00    -0.047 A 
ATOM      8  C   UNL     1       6.341   0.588  -1.149  1.00  0.00     0.004 A 
ATOM      9  C   UNL     1       6.491  -0.515   0.924  1.00  0.00     0.004 A 
ATOM     10  C   UNL     1       7.081  -0.431  -1.718  1.00  0.00     0.000 A 
ATOM     11  C   UNL     1       7.229  -1.531   0.359  1.00  0.00     0.000 A 
ATOM     12  C   UNL     1       7.541  -1.506  -0.985  1.00  0.00     0.000 A 
ENDBRANCH   6   7
ENDBRANCH   1   6
TORSDOF 4
ENDMDL
