@<TRIPOS>MOLECULE
/home/cewinharhar/GITHUB/reincatalyze/data/processed/docking_pred/2023-Apr-25-2033_maxeplen5_maxtrainstep200_exh16_gamma099_lrac3e-4_lrcr1e-3/62f66f9004302081042513b5faa006f3d97c65a4_ligand_2.pdbqt
 12 12 0 0 0
SMALL
GASTEIGER

@<TRIPOS>ATOM
      1  C          8.4570   -0.5600   -2.2180 C.3     1  UNL1        0.1270
      2  C          8.4730   -1.8640   -2.9300 C.2     1  UNL1        0.3030
      3  O          9.5660   -2.4590   -3.0930 O.2     1  UNL1       -0.2520
      4  O          7.3170   -2.4580   -3.4280 O.3     1  UNL1       -0.4810
      5  H          6.4090   -1.9680   -3.4270 H       1  UNL1        0.2960
      6  C          7.0340   -0.0740   -2.1960 C.3     1  UNL1        0.0470
      7  C          6.5000    0.0560   -0.8150 C.2     1  UNL1       -0.0470
      8  C          5.8660    1.2110   -0.3990 C.2     1  UNL1        0.0040
      9  C          6.6080   -0.9620    0.1140 C.2     1  UNL1        0.0040
     10  C          5.3740    1.3210    0.8870 C.2     1  UNL1        0.0000
     11  C          6.1180   -0.8540    1.3960 C.2     1  UNL1        0.0000
     12  C          5.4860    0.3010    1.8100 C.2     1  UNL1        0.0000
@<TRIPOS>BOND
     1     4     5    1
     2     4     2    1
     3     3     2    2
     4     2     1    1
     5     1     6    1
     6     6     7    1
     7     7     8    2
     8     7     9    1
     9     8    10    1
    10     9    11    2
    11    10    12    2
    12    11    12    1
