@<TRIPOS>MOLECULE
/home/cewinharhar/GITHUB/reincatalyze/data/processed/docking_pred/2023-Apr-25-2033_maxeplen5_maxtrainstep200_exh16_gamma099_lrac3e-4_lrcr1e-3/62f66f9004302081042513b5faa006f3d97c65a4_ligand_2.pdbqt
 12 12 0 0 0
SMALL
GASTEIGER

@<TRIPOS>ATOM
      1  C          4.9890    1.7940    0.6800 C.3     1  UNL1        0.1270
      2  C          4.4710    1.1320    1.9060 C.2     1  UNL1        0.3030
      3  O          5.1620    0.2440    2.4610 O.2     1  UNL1       -0.2520
      4  O          3.2400    1.4590    2.4680 O.3     1  UNL1       -0.4810
      5  H          2.9430    1.0860    3.3830 H       1  UNL1        0.2960
      6  C          6.4900    1.8100    0.7750 C.3     1  UNL1        0.0470
      7  C          7.1360    1.0570   -0.3320 C.2     1  UNL1       -0.0470
      8  C          6.4120    0.1850   -1.1230 C.2     1  UNL1        0.0040
      9  C          8.4810    1.1890   -0.6250 C.2     1  UNL1        0.0040
     10  C          7.0230   -0.5100   -2.1490 C.2     1  UNL1        0.0000
     11  C          9.0910    0.4980   -1.6470 C.2     1  UNL1        0.0000
     12  C          8.3660   -0.3730   -2.4350 C.2     1  UNL1        0.0000
@<TRIPOS>BOND
     1    12    10    2
     2    12    11    1
     3    10     8    1
     4    11     9    2
     5     8     7    2
     6     9     7    1
     7     7     6    1
     8     1     6    1
     9     1     2    1
    10     2     3    2
    11     2     4    1
    12     4     5    1
