@<TRIPOS>MOLECULE
/home/cewinharhar/GITHUB/reincatalyze/data/processed/docking_pred/2023-Apr-25-2033_maxeplen5_maxtrainstep200_exh16_gamma099_lrac3e-4_lrcr1e-3/62f66f9004302081042513b5faa006f3d97c65a4_ligand_2.pdbqt
 12 12 0 0 0
SMALL
GASTEIGER

@<TRIPOS>ATOM
      1  C          5.3360    2.9490    0.0610 C.3     1  UNL1        0.1270
      2  C          6.2120    3.8580    0.8450 C.2     1  UNL1        0.3030
      3  O          6.8670    4.7440    0.2450 O.2     1  UNL1       -0.2520
      4  O          6.3360    3.7660    2.2280 O.3     1  UNL1       -0.4810
      5  H          7.0560    3.1740    2.6720 H       1  UNL1        0.2960
      6  C          5.2310    1.6550    0.8200 C.3     1  UNL1        0.0470
      7  C          6.0270    0.5650    0.1970 C.2     1  UNL1       -0.0470
      8  C          6.3410    0.5880   -1.1490 C.2     1  UNL1        0.0040
      9  C          6.4910   -0.5150    0.9240 C.2     1  UNL1        0.0040
     10  C          7.0810   -0.4310   -1.7180 C.2     1  UNL1        0.0000
     11  C          7.2290   -1.5310    0.3590 C.2     1  UNL1        0.0000
     12  C          7.5410   -1.5060   -0.9850 C.2     1  UNL1        0.0000
@<TRIPOS>BOND
     1    10     8    1
     2    10    12    2
     3     8     7    2
     4    12    11    1
     5     1     6    1
     6     1     2    1
     7     7     6    1
     8     7     9    1
     9     3     2    2
    10    11     9    2
    11     2     4    1
    12     4     5    1
