@<TRIPOS>MOLECULE
/home/cewinharhar/GITHUB/reincatalyze/data/processed/docking_pred/2023-Apr-25-2033_maxeplen5_maxtrainstep200_exh16_gamma099_lrac3e-4_lrcr1e-3/650932a4c96e02f0afcc120cab6b741f416c7ae8_ligand_2.pdbqt
 12 12 0 0 0
SMALL
GASTEIGER

@<TRIPOS>ATOM
      1  C          5.3400    2.9680    0.0310 C.3     1  UNL1        0.1270
      2  C          6.2030    3.8750    0.8310 C.2     1  UNL1        0.3030
      3  O          6.8540    4.7740    0.2470 O.2     1  UNL1       -0.2520
      4  O          6.3200    3.7680    2.2150 O.3     1  UNL1       -0.4810
      5  H          5.9060    4.4650    2.8520 H       1  UNL1        0.2960
      6  C          5.2060    1.6800    0.7950 C.3     1  UNL1        0.0470
      7  C          5.9810    0.5720    0.1770 C.2     1  UNL1       -0.0470
      8  C          6.4090   -0.5060    0.9280 C.2     1  UNL1        0.0040
      9  C          6.3080    0.5620   -1.1660 C.2     1  UNL1        0.0040
     10  C          7.1280   -1.5320    0.3440 C.2     1  UNL1        0.0000
     11  C          7.0250   -0.4590   -1.7500 C.2     1  UNL1        0.0000
     12  C          7.4520   -1.5340   -0.9980 C.2     1  UNL1        0.0000
@<TRIPOS>BOND
     1    11     9    1
     2    11    12    2
     3     9     7    2
     4    12    10    1
     5     1     6    1
     6     1     2    1
     7     7     6    1
     8     7     8    1
     9     3     2    2
    10    10     8    2
    11     2     4    1
    12     4     5    1
