@<TRIPOS>MOLECULE
/home/cewinharhar/GITHUB/reincatalyze/data/processed/docking_pred/2023-Apr-25-2033_maxeplen5_maxtrainstep200_exh16_gamma099_lrac3e-4_lrcr1e-3/650932a4c96e02f0afcc120cab6b741f416c7ae8_ligand_2.pdbqt
 12 12 0 0 0
SMALL
GASTEIGER

@<TRIPOS>ATOM
      1  C          8.2880   -0.9800   -1.7900 C.3     1  UNL1        0.1270
      2  C          8.3780   -2.0280   -2.8390 C.2     1  UNL1        0.3030
      3  O          9.5010   -2.5020   -3.1370 O.2     1  UNL1       -0.2520
      4  O          7.2570   -2.5120   -3.5100 O.3     1  UNL1       -0.4810
      5  H          6.9340   -2.0980   -4.3970 H       1  UNL1        0.2960
      6  C          7.3090   -1.4590   -0.7540 C.3     1  UNL1        0.0470
      7  C          6.5140   -0.3480   -0.1680 C.2     1  UNL1       -0.0470
      8  C          6.2050    0.7780   -0.9060 C.2     1  UNL1        0.0040
      9  C          6.0470   -0.3840    1.1330 C.2     1  UNL1        0.0040
     10  C          5.4650    1.8050   -0.3510 C.2     1  UNL1        0.0000
     11  C          5.3100    0.6380    1.6880 C.2     1  UNL1        0.0000
     12  C          5.0030    1.7620    0.9480 C.2     1  UNL1        0.0000
@<TRIPOS>BOND
     1     5     4    1
     2     4     2    1
     3     3     2    2
     4     2     1    1
     5     1     6    1
     6     8    10    1
     7     8     7    2
     8     6     7    1
     9    10    12    2
    10     7     9    1
    11    12    11    1
    12     9    11    2
