@<TRIPOS>MOLECULE
/home/cewinharhar/GITHUB/reincatalyze/data/processed/docking_pred/2023-Apr-25-2033_maxeplen5_maxtrainstep200_exh16_gamma099_lrac3e-4_lrcr1e-3/650932a4c96e02f0afcc120cab6b741f416c7ae8_ligand_2.pdbqt
 12 12 0 0 0
SMALL
GASTEIGER

@<TRIPOS>ATOM
      1  C          8.4550   -0.5560   -2.2040 C.3     1  UNL1        0.1270
      2  C          8.4760   -1.8550   -2.9250 C.2     1  UNL1        0.3030
      3  O          9.5710   -2.4430   -3.0960 O.2     1  UNL1       -0.2520
      4  O          7.3210   -2.4520   -3.4240 O.3     1  UNL1       -0.4810
      5  H          6.3980   -1.9970   -3.3490 H       1  UNL1        0.2960
      6  C          7.0340   -0.0650   -2.1960 C.3     1  UNL1        0.0470
      7  C          6.4890    0.0760   -0.8200 C.2     1  UNL1       -0.0470
      8  C          6.6180   -0.9400    0.1080 C.2     1  UNL1        0.0040
      9  C          5.8340    1.2190   -0.4020 C.2     1  UNL1        0.0040
     10  C          6.1080   -0.7980    1.3840 C.2     1  UNL1        0.0000
     11  C          5.3260    1.3620    0.8700 C.2     1  UNL1        0.0000
     12  C          5.4550    0.3460    1.7950 C.2     1  UNL1        0.0000
@<TRIPOS>BOND
     1     4     5    1
     2     4     2    1
     3     3     2    2
     4     2     1    1
     5     1     6    1
     6     6     7    1
     7     7     9    2
     8     7     8    1
     9     9    11    1
    10     8    10    2
    11    11    12    2
    12    10    12    1
