@<TRIPOS>MOLECULE
/home/cewinharhar/GITHUB/reincatalyze/data/processed/docking_pred/2023-Apr-25-2033_maxeplen5_maxtrainstep200_exh16_gamma099_lrac3e-4_lrcr1e-3/650932a4c96e02f0afcc120cab6b741f416c7ae8_ligand_2.pdbqt
 12 12 0 0 0
SMALL
GASTEIGER

@<TRIPOS>ATOM
      1  C          8.4520   -0.6440   -2.1040 C.3     1  UNL1        0.1270
      2  C          8.4270   -1.9140   -2.8750 C.2     1  UNL1        0.3030
      3  O          7.3220   -2.4020   -3.2150 O.2     1  UNL1       -0.2520
      4  O          9.5880   -2.5900   -3.2400 O.3     1  UNL1       -0.4810
      5  H         10.4070   -2.0960   -3.6280 H       1  UNL1        0.2960
      6  C          7.0600   -0.0760   -2.1220 C.3     1  UNL1        0.0470
      7  C          6.4880    0.0660   -0.7570 C.2     1  UNL1       -0.0470
      8  C          5.8180    1.2130   -0.3790 C.2     1  UNL1        0.0040
      9  C          6.5950   -0.9320    0.1930 C.2     1  UNL1        0.0040
     10  C          5.2890    1.3350    0.8930 C.2     1  UNL1        0.0000
     11  C          6.0690   -0.8130    1.4600 C.2     1  UNL1        0.0000
     12  C          5.4010    0.3340    1.8360 C.2     1  UNL1        0.0000
@<TRIPOS>BOND
     1     5     4    1
     2     4     2    1
     3     3     2    2
     4     2     1    1
     5     6     1    1
     6     6     7    1
     7     7     8    2
     8     7     9    1
     9     8    10    1
    10     9    11    2
    11    10    12    2
    12    11    12    1
