@<TRIPOS>MOLECULE
/home/cewinharhar/GITHUB/reincatalyze/data/processed/docking_pred/2023-Apr-25-2033_maxeplen5_maxtrainstep200_exh16_gamma099_lrac3e-4_lrcr1e-3/650932a4c96e02f0afcc120cab6b741f416c7ae8_ligand_2.pdbqt
 12 12 0 0 0
SMALL
GASTEIGER

@<TRIPOS>ATOM
      1  C          5.0300    1.7370    0.6860 C.3     1  UNL1        0.1270
      2  C          4.5950    1.0450    1.9270 C.2     1  UNL1        0.3030
      3  O          5.3650    0.2150    2.4680 O.2     1  UNL1       -0.2520
      4  O          3.3570    1.2830    2.5200 O.3     1  UNL1       -0.4810
      5  H          3.0850    2.2190    2.8560 H       1  UNL1        0.2960
      6  C          6.5310    1.8260    0.7200 C.3     1  UNL1        0.0470
      7  C          7.1700    1.0390   -0.3670 C.2     1  UNL1       -0.0470
      8  C          6.4370    0.1600   -1.1400 C.2     1  UNL1        0.0040
      9  C          8.5170    1.1480   -0.6580 C.2     1  UNL1        0.0040
     10  C          7.0420   -0.5660   -2.1490 C.2     1  UNL1        0.0000
     11  C          9.1220    0.4250   -1.6630 C.2     1  UNL1        0.0000
     12  C          8.3880   -0.4530   -2.4330 C.2     1  UNL1        0.0000
@<TRIPOS>BOND
     1    12    10    2
     2    12    11    1
     3    10     8    1
     4    11     9    2
     5     8     7    2
     6     9     7    1
     7     7     6    1
     8     1     6    1
     9     1     2    1
    10     2     3    2
    11     2     4    1
    12     4     5    1
