MODEL 1
REMARK VINA RESULT:      -7.3      0.000      0.000
REMARK SMILES O=C(O)CCc1ccccc1
REMARK SMILES IDX 4 1 2 2 1 3 3 4 5 6 6 7 7 8 11 9 8 10 10 11 9 12
REMARK H PARENT 3 5
REMARK Flexibility Score: inf
ROOT
ATOM      1  C   UNL     1       8.445  -0.560  -2.206  1.00  0.00     0.127 C 
ENDROOT
BRANCH   1   2
ATOM      2  C   UNL     1       8.472  -1.866  -2.914  1.00  0.00     0.303 C 
ATOM      3  O   UNL     1       9.571  -2.450  -3.079  1.00  0.00    -0.252 OA
BRANCH   2   4
ATOM      4  O   UNL     1       7.320  -2.474  -3.406  1.00  0.00    -0.481 OA
ATOM      5  H   UNL     1       7.340  -3.086  -4.236  1.00  0.00     0.296 HD
ENDBRANCH   2   4
ENDBRANCH   1   2
BRANCH   1   6
ATOM      6  C   UNL     1       7.018  -0.085  -2.189  1.00  0.00     0.047 C 
BRANCH   6   7
ATOM      7  C   UNL     1       6.483   0.056  -0.810  1.00  0.00    -0.047 A 
ATOM      8  C   UNL     1       6.614  -0.961   0.116  1.00  0.00     0.004 A 
ATOM      9  C   UNL     1       5.834   1.201  -0.386  1.00  0.00     0.004 A 
ATOM     10  C   UNL     1       6.113  -0.819   1.396  1.00  0.00     0.000 A 
ATOM     11  C   UNL     1       5.334   1.344   0.889  1.00  0.00     0.000 A 
ATOM     12  C   UNL     1       5.466   0.326   1.812  1.00  0.00     0.000 A 
ENDBRANCH   6   7
ENDBRANCH   1   6
TORSDOF 4
ENDMDL
MODEL 2
REMARK VINA RESULT:      -7.3      0.044      1.420
REMARK SMILES O=C(O)CCc1ccccc1
REMARK SMILES IDX 4 1 2 2 1 3 3 4 5 6 6 7 7 8 11 9 8 10 10 11 9 12
REMARK H PARENT 3 5
REMARK Flexibility Score: inf
ROOT
ATOM      1  C   UNL     1       8.447  -0.561  -2.218  1.00  0.00     0.127 C 
ENDROOT
BRANCH   1   2
ATOM      2  C   UNL     1       8.460  -1.863  -2.934  1.00  0.00     0.303 C 
ATOM      3  O   UNL     1       9.550  -2.466  -3.088  1.00  0.00    -0.252 OA
BRANCH   2   4
ATOM      4  O   UNL     1       7.304  -2.446  -3.446  1.00  0.00    -0.481 OA
ATOM      5  H   UNL     1       6.383  -2.309  -3.002  1.00  0.00     0.296 HD
ENDBRANCH   2   4
ENDBRANCH   1   2
BRANCH   1   6
ATOM      6  C   UNL     1       7.024  -0.074  -2.191  1.00  0.00     0.047 C 
BRANCH   6   7
ATOM      7  C   UNL     1       6.491   0.043  -0.808  1.00  0.00    -0.047 A 
ATOM      8  C   UNL     1       5.866   1.197  -0.377  1.00  0.00     0.004 A 
ATOM      9  C   UNL     1       6.590  -0.988   0.107  1.00  0.00     0.004 A 
ATOM     10  C   UNL     1       5.374   1.294   0.910  1.00  0.00     0.000 A 
ATOM     11  C   UNL     1       6.100  -0.894   1.391  1.00  0.00     0.000 A 
ATOM     12  C   UNL     1       5.477   0.261   1.819  1.00  0.00     0.000 A 
ENDBRANCH   6   7
ENDBRANCH   1   6
TORSDOF 4
ENDMDL
MODEL 3
REMARK VINA RESULT:      -6.8      3.375      5.086
REMARK SMILES O=C(O)CCc1ccccc1
REMARK SMILES IDX 4 1 2 2 1 3 3 4 5 6 6 7 7 8 11 9 8 10 10 11 9 12
REMARK H PARENT 3 5
REMARK Flexibility Score: inf
ROOT
ATOM      1  C   UNL     1       5.017   1.792   0.697  1.00  0.00     0.127 C 
ENDROOT
BRANCH   1   2
ATOM      2  C   UNL     1       4.495   1.121   1.915  1.00  0.00     0.303 C 
ATOM      3  O   UNL     1       5.188   0.235   2.471  1.00  0.00    -0.252 OA
BRANCH   2   4
ATOM      4  O   UNL     1       3.258   1.437   2.470  1.00  0.00    -0.481 OA
ATOM      5  H   UNL     1       2.880   2.397   2.447  1.00  0.00     0.296 HD
ENDBRANCH   2   4
ENDBRANCH   1   2
BRANCH   1   6
ATOM      6  C   UNL     1       6.518   1.782   0.782  1.00  0.00     0.047 C 
BRANCH   6   7
ATOM      7  C   UNL     1       7.144   1.011  -0.324  1.00  0.00    -0.047 A 
ATOM      8  C   UNL     1       8.468   1.203  -0.669  1.00  0.00     0.004 A 
ATOM      9  C   UNL     1       6.442   0.072  -1.056  1.00  0.00     0.004 A 
ATOM     10  C   UNL     1       9.040   0.481  -1.699  1.00  0.00     0.000 A 
ATOM     11  C   UNL     1       7.010  -0.649  -2.083  1.00  0.00     0.000 A 
ATOM     12  C   UNL     1       8.333  -0.455  -2.426  1.00  0.00     0.000 A 
ENDBRANCH   6   7
ENDBRANCH   1   6
TORSDOF 4
ENDMDL
MODEL 4
REMARK VINA RESULT:      -6.6      3.792      4.924
REMARK SMILES O=C(O)CCc1ccccc1
REMARK SMILES IDX 4 1 2 2 1 3 3 4 5 6 6 7 7 8 11 9 8 10 10 11 9 12
REMARK H PARENT 3 5
REMARK Flexibility Score: inf
ROOT
ATOM      1  C   UNL     1       5.430   2.975  -0.055  1.00  0.00     0.127 C 
ENDROOT
BRANCH   1   2
ATOM      2  C   UNL     1       6.241   3.914   0.762  1.00  0.00     0.303 C 
ATOM      3  O   UNL     1       6.978   4.750   0.184  1.00  0.00    -0.252 OA
BRANCH   2   4
ATOM      4  O   UNL     1       6.216   3.907   2.155  1.00  0.00    -0.481 OA
ATOM      5  H   UNL     1       6.935   3.416   2.709  1.00  0.00     0.296 HD
ENDBRANCH   2   4
ENDBRANCH   1   2
BRANCH   1   6
ATOM      6  C   UNL     1       4.872   1.932   0.874  1.00  0.00     0.047 C 
BRANCH   6   7
ATOM      7  C   UNL     1       5.688   0.690   0.888  1.00  0.00    -0.047 A 
ATOM      8  C   UNL     1       5.764  -0.104   2.016  1.00  0.00     0.004 A 
ATOM      9  C   UNL     1       6.404   0.268  -0.216  1.00  0.00     0.004 A 
ATOM     10  C   UNL     1       6.525  -1.257   2.018  1.00  0.00     0.000 A 
ATOM     11  C   UNL     1       7.163  -0.881  -0.217  1.00  0.00     0.000 A 
ATOM     12  C   UNL     1       7.238  -1.672   0.912  1.00  0.00     0.000 A 
ENDBRANCH   6   7
ENDBRANCH   1   6
TORSDOF 4
ENDMDL
MODEL 5
REMARK VINA RESULT:      -6.6      1.887      2.905
REMARK SMILES O=C(O)CCc1ccccc1
REMARK SMILES IDX 4 1 2 2 1 3 3 4 5 6 6 7 7 8 11 9 8 10 10 11 9 12
REMARK H PARENT 3 5
REMARK Flexibility Score: inf
ROOT
ATOM      1  C   UNL     1       8.147  -1.592   1.191  1.00  0.00     0.127 C 
ENDROOT
BRANCH   1   2
ATOM      2  C   UNL     1       8.470  -2.774   0.350  1.00  0.00     0.303 C 
ATOM      3  O   UNL     1       9.133  -3.716   0.846  1.00  0.00    -0.252 OA
BRANCH   2   4
ATOM      4  O   UNL     1       8.062  -2.880  -0.977  1.00  0.00    -0.481 OA
ATOM      5  H   UNL     1       8.075  -2.071  -1.617  1.00  0.00     0.296 HD
ENDBRANCH   2   4
ENDBRANCH   1   2
BRANCH   1   6
ATOM      6  C   UNL     1       6.649  -1.497   1.283  1.00  0.00     0.047 C 
BRANCH   6   7
ATOM      7  C   UNL     1       6.130  -0.204   0.766  1.00  0.00    -0.047 A 
ATOM      8  C   UNL     1       5.376   0.634   1.563  1.00  0.00     0.004 A 
ATOM      9  C   UNL     1       6.374   0.223  -0.526  1.00  0.00     0.004 A 
ATOM     10  C   UNL     1       4.898   1.834   1.073  1.00  0.00     0.000 A 
ATOM     11  C   UNL     1       5.899   1.418  -1.018  1.00  0.00     0.000 A 
ATOM     12  C   UNL     1       5.145   2.254  -0.218  1.00  0.00     0.000 A 
ENDBRANCH   6   7
ENDBRANCH   1   6
TORSDOF 4
ENDMDL
