@<TRIPOS>MOLECULE
/home/cewinharhar/GITHUB/reincatalyze/data/processed/docking_pred/2023-Apr-25-2033_maxeplen5_maxtrainstep200_exh16_gamma099_lrac3e-4_lrcr1e-3/67ebe37560d6b2ff0daae954040d2bc7ae74be81_ligand_2.pdbqt
 12 12 0 0 0
SMALL
GASTEIGER

@<TRIPOS>ATOM
      1  C          8.1470   -1.5920    1.1910 C.3     1  UNL1        0.1270
      2  C          8.4700   -2.7740    0.3500 C.2     1  UNL1        0.3030
      3  O          9.1330   -3.7160    0.8460 O.2     1  UNL1       -0.2520
      4  O          8.0620   -2.8800   -0.9770 O.3     1  UNL1       -0.4810
      5  H          8.0750   -2.0710   -1.6170 H       1  UNL1        0.2960
      6  C          6.6490   -1.4970    1.2830 C.3     1  UNL1        0.0470
      7  C          6.1300   -0.2040    0.7660 C.2     1  UNL1       -0.0470
      8  C          5.3760    0.6340    1.5630 C.2     1  UNL1        0.0040
      9  C          6.3740    0.2230   -0.5260 C.2     1  UNL1        0.0040
     10  C          4.8980    1.8340    1.0730 C.2     1  UNL1        0.0000
     11  C          5.8990    1.4180   -1.0180 C.2     1  UNL1        0.0000
     12  C          5.1450    2.2540   -0.2180 C.2     1  UNL1        0.0000
@<TRIPOS>BOND
     1     5     4    1
     2    11     9    1
     3    11    12    2
     4     4     2    1
     5     9     7    2
     6    12    10    1
     7     2     3    2
     8     2     1    1
     9     7     6    1
    10     7     8    1
    11    10     8    2
    12     1     6    1
