@<TRIPOS>MOLECULE
/home/cewinharhar/GITHUB/reincatalyze/data/processed/docking_pred/2023-Apr-25-2033_maxeplen5_maxtrainstep200_exh16_gamma099_lrac3e-4_lrcr1e-3/67ebe37560d6b2ff0daae954040d2bc7ae74be81_ligand_2.pdbqt
 12 12 0 0 0
SMALL
GASTEIGER

@<TRIPOS>ATOM
      1  C          5.0170    1.7920    0.6970 C.3     1  UNL1        0.1270
      2  C          4.4950    1.1210    1.9150 C.2     1  UNL1        0.3030
      3  O          5.1880    0.2350    2.4710 O.2     1  UNL1       -0.2520
      4  O          3.2580    1.4370    2.4700 O.3     1  UNL1       -0.4810
      5  H          2.8800    2.3970    2.4470 H       1  UNL1        0.2960
      6  C          6.5180    1.7820    0.7820 C.3     1  UNL1        0.0470
      7  C          7.1440    1.0110   -0.3240 C.2     1  UNL1       -0.0470
      8  C          8.4680    1.2030   -0.6690 C.2     1  UNL1        0.0040
      9  C          6.4420    0.0720   -1.0560 C.2     1  UNL1        0.0040
     10  C          9.0400    0.4810   -1.6990 C.2     1  UNL1        0.0000
     11  C          7.0100   -0.6490   -2.0830 C.2     1  UNL1        0.0000
     12  C          8.3330   -0.4550   -2.4260 C.2     1  UNL1        0.0000
@<TRIPOS>BOND
     1    12    11    2
     2    12    10    1
     3    11     9    1
     4    10     8    2
     5     9     7    2
     6     8     7    1
     7     7     6    1
     8     1     6    1
     9     1     2    1
    10     2     4    1
    11     2     3    2
    12     5     4    1
