@<TRIPOS>MOLECULE
/home/cewinharhar/GITHUB/reincatalyze/data/processed/docking_pred/2023-Apr-25-2033_maxeplen5_maxtrainstep200_exh16_gamma099_lrac3e-4_lrcr1e-3/67ebe37560d6b2ff0daae954040d2bc7ae74be81_ligand_2.pdbqt
 12 12 0 0 0
SMALL
GASTEIGER

@<TRIPOS>ATOM
      1  C          5.4300    2.9750   -0.0550 C.3     1  UNL1        0.1270
      2  C          6.2410    3.9140    0.7620 C.2     1  UNL1        0.3030
      3  O          6.9780    4.7500    0.1840 O.2     1  UNL1       -0.2520
      4  O          6.2160    3.9070    2.1550 O.3     1  UNL1       -0.4810
      5  H          6.9350    3.4160    2.7090 H       1  UNL1        0.2960
      6  C          4.8720    1.9320    0.8740 C.3     1  UNL1        0.0470
      7  C          5.6880    0.6900    0.8880 C.2     1  UNL1       -0.0470
      8  C          5.7640   -0.1040    2.0160 C.2     1  UNL1        0.0040
      9  C          6.4040    0.2680   -0.2160 C.2     1  UNL1        0.0040
     10  C          6.5250   -1.2570    2.0180 C.2     1  UNL1        0.0000
     11  C          7.1630   -0.8810   -0.2170 C.2     1  UNL1        0.0000
     12  C          7.2380   -1.6720    0.9120 C.2     1  UNL1        0.0000
@<TRIPOS>BOND
     1    11     9    1
     2    11    12    2
     3     9     7    2
     4     1     2    1
     5     1     6    1
     6     3     2    2
     7     2     4    1
     8     6     7    1
     9     7     8    1
    10    12    10    1
    11     8    10    2
    12     4     5    1
