@<TRIPOS>MOLECULE
/home/cewinharhar/GITHUB/reincatalyze/data/processed/docking_pred/2023-Apr-25-2033_maxeplen5_maxtrainstep200_exh16_gamma099_lrac3e-4_lrcr1e-3/67ebe37560d6b2ff0daae954040d2bc7ae74be81_ligand_2.pdbqt
 12 12 0 0 0
SMALL
GASTEIGER

@<TRIPOS>ATOM
      1  C          8.4470   -0.5610   -2.2180 C.3     1  UNL1        0.1270
      2  C          8.4600   -1.8630   -2.9340 C.2     1  UNL1        0.3030
      3  O          9.5500   -2.4660   -3.0880 O.2     1  UNL1       -0.2520
      4  O          7.3040   -2.4460   -3.4460 O.3     1  UNL1       -0.4810
      5  H          6.3830   -2.3090   -3.0020 H       1  UNL1        0.2960
      6  C          7.0240   -0.0740   -2.1910 C.3     1  UNL1        0.0470
      7  C          6.4910    0.0430   -0.8080 C.2     1  UNL1       -0.0470
      8  C          5.8660    1.1970   -0.3770 C.2     1  UNL1        0.0040
      9  C          6.5900   -0.9880    0.1070 C.2     1  UNL1        0.0040
     10  C          5.3740    1.2940    0.9100 C.2     1  UNL1        0.0000
     11  C          6.1000   -0.8940    1.3910 C.2     1  UNL1        0.0000
     12  C          5.4770    0.2610    1.8190 C.2     1  UNL1        0.0000
@<TRIPOS>BOND
     1     4     5    1
     2     4     2    1
     3     3     2    2
     4     2     1    1
     5     1     6    1
     6     6     7    1
     7     7     8    2
     8     7     9    1
     9     8    10    1
    10     9    11    2
    11    10    12    2
    12    11    12    1
