@<TRIPOS>MOLECULE
/home/cewinharhar/GITHUB/reincatalyze/data/processed/docking_pred/2023-Apr-25-2033_maxeplen5_maxtrainstep200_exh16_gamma099_lrac3e-4_lrcr1e-3/681e80220216c71ec10eb1429598bf11558fcb24_ligand_2.pdbqt
 12 12 0 0 0
SMALL
GASTEIGER

@<TRIPOS>ATOM
      1  C          8.3120   -0.8420   -1.6340 C.3     1  UNL1        0.1270
      2  C          8.3640   -1.8870   -2.6880 C.2     1  UNL1        0.3030
      3  O          8.4040   -3.0950   -2.3510 O.2     1  UNL1       -0.2520
      4  O          8.3680   -1.5800   -4.0460 O.3     1  UNL1       -0.4810
      5  H          7.6820   -0.9300   -4.4590 H       1  UNL1        0.2960
      6  C          7.3960   -1.3370   -0.5490 C.3     1  UNL1        0.0470
      7  C          6.5230   -0.2620   -0.0080 C.2     1  UNL1       -0.0470
      8  C          6.0010   -0.3400    1.2690 C.2     1  UNL1        0.0040
      9  C          6.1940    0.8590   -0.7460 C.2     1  UNL1        0.0040
     10  C          5.1910    0.6650    1.7620 C.2     1  UNL1        0.0000
     11  C          5.3880    1.8620   -0.2560 C.2     1  UNL1        0.0000
     12  C          4.8670    1.7820    1.0200 C.2     1  UNL1        0.0000
@<TRIPOS>BOND
     1     5     4    1
     2     4     2    1
     3     2     3    2
     4     2     1    1
     5     1     6    1
     6     9    11    1
     7     9     7    2
     8     6     7    1
     9    11    12    2
    10     7     8    1
    11    12    10    1
    12     8    10    2
