MODEL 1
REMARK VINA RESULT:      -7.3      0.000      0.000
REMARK SMILES O=C(O)CCc1ccccc1
REMARK SMILES IDX 4 1 2 2 1 3 3 4 5 6 6 7 7 8 11 9 8 10 10 11 9 12
REMARK H PARENT 3 5
REMARK Flexibility Score: inf
ROOT
ATOM      1  C   UNL     1       8.445  -0.654  -2.080  1.00  0.00     0.127 C 
ENDROOT
BRANCH   1   2
ATOM      2  C   UNL     1       8.418  -1.910  -2.873  1.00  0.00     0.303 C 
ATOM      3  O   UNL     1       7.311  -2.401  -3.204  1.00  0.00    -0.252 OA
BRANCH   2   4
ATOM      4  O   UNL     1       9.578  -2.571  -3.267  1.00  0.00    -0.481 OA
ATOM      5  H   UNL     1       9.681  -3.593  -3.174  1.00  0.00     0.296 HD
ENDBRANCH   2   4
ENDBRANCH   1   2
BRANCH   1   6
ATOM      6  C   UNL     1       7.061  -0.068  -2.112  1.00  0.00     0.047 C 
BRANCH   6   7
ATOM      7  C   UNL     1       6.479   0.087  -0.753  1.00  0.00    -0.047 A 
ATOM      8  C   UNL     1       5.822   1.245  -0.384  1.00  0.00     0.004 A 
ATOM      9  C   UNL     1       6.562  -0.909   0.201  1.00  0.00     0.004 A 
ATOM     10  C   UNL     1       5.284   1.379   0.882  1.00  0.00     0.000 A 
ATOM     11  C   UNL     1       6.027  -0.779   1.463  1.00  0.00     0.000 A 
ATOM     12  C   UNL     1       5.372   0.380   1.829  1.00  0.00     0.000 A 
ENDBRANCH   6   7
ENDBRANCH   1   6
TORSDOF 4
ENDMDL
MODEL 2
REMARK VINA RESULT:      -7.2      0.064      1.420
REMARK SMILES O=C(O)CCc1ccccc1
REMARK SMILES IDX 4 1 2 2 1 3 3 4 5 6 6 7 7 8 11 9 8 10 10 11 9 12
REMARK H PARENT 3 5
REMARK Flexibility Score: inf
ROOT
ATOM      1  C   UNL     1       8.474  -0.629  -2.131  1.00  0.00     0.127 C 
ENDROOT
BRANCH   1   2
ATOM      2  C   UNL     1       8.444  -1.913  -2.879  1.00  0.00     0.303 C 
ATOM      3  O   UNL     1       7.337  -2.406  -3.206  1.00  0.00    -0.252 OA
BRANCH   2   4
ATOM      4  O   UNL     1       9.603  -2.596  -3.237  1.00  0.00    -0.481 OA
ATOM      5  H   UNL     1       9.811  -2.840  -4.217  1.00  0.00     0.296 HD
ENDBRANCH   2   4
ENDBRANCH   1   2
BRANCH   1   6
ATOM      6  C   UNL     1       7.079  -0.068  -2.140  1.00  0.00     0.047 C 
BRANCH   6   7
ATOM      7  C   UNL     1       6.512   0.065  -0.772  1.00  0.00    -0.047 A 
ATOM      8  C   UNL     1       6.649  -0.945   0.160  1.00  0.00     0.004 A 
ATOM      9  C   UNL     1       5.827   1.195  -0.366  1.00  0.00     0.004 A 
ATOM     10  C   UNL     1       6.118  -0.811   1.429  1.00  0.00     0.000 A 
ATOM     11  C   UNL     1       5.298   1.331   0.898  1.00  0.00     0.000 A 
ATOM     12  C   UNL     1       5.435   0.320   1.827  1.00  0.00     0.000 A 
ENDBRANCH   6   7
ENDBRANCH   1   6
TORSDOF 4
ENDMDL
MODEL 3
REMARK VINA RESULT:      -6.8      3.305      5.157
REMARK SMILES O=C(O)CCc1ccccc1
REMARK SMILES IDX 4 1 2 2 1 3 3 4 5 6 6 7 7 8 11 9 8 10 10 11 9 12
REMARK H PARENT 3 5
REMARK Flexibility Score: inf
ROOT
ATOM      1  C   UNL     1       4.989   1.798   0.718  1.00  0.00     0.127 C 
ENDROOT
BRANCH   1   2
ATOM      2  C   UNL     1       4.452   1.121   1.927  1.00  0.00     0.303 C 
ATOM      3  O   UNL     1       5.126   0.212   2.470  1.00  0.00    -0.252 OA
BRANCH   2   4
ATOM      4  O   UNL     1       3.223   1.456   2.488  1.00  0.00    -0.481 OA
ATOM      5  H   UNL     1       3.127   2.223   3.171  1.00  0.00     0.296 HD
ENDBRANCH   2   4
ENDBRANCH   1   2
BRANCH   1   6
ATOM      6  C   UNL     1       6.489   1.775   0.815  1.00  0.00     0.047 C 
BRANCH   6   7
ATOM      7  C   UNL     1       7.118   1.022  -0.302  1.00  0.00    -0.047 A 
ATOM      8  C   UNL     1       8.438   1.230  -0.651  1.00  0.00     0.004 A 
ATOM      9  C   UNL     1       6.421   0.084  -1.041  1.00  0.00     0.004 A 
ATOM     10  C   UNL     1       9.013   0.525  -1.691  1.00  0.00     0.000 A 
ATOM     11  C   UNL     1       6.992  -0.621  -2.077  1.00  0.00     0.000 A 
ATOM     12  C   UNL     1       8.311  -0.410  -2.424  1.00  0.00     0.000 A 
ENDBRANCH   6   7
ENDBRANCH   1   6
TORSDOF 4
ENDMDL
MODEL 4
REMARK VINA RESULT:      -6.7      0.946      1.772
REMARK SMILES O=C(O)CCc1ccccc1
REMARK SMILES IDX 4 1 2 2 1 3 3 4 5 6 6 7 7 8 11 9 8 10 10 11 9 12
REMARK H PARENT 3 5
REMARK Flexibility Score: inf
ROOT
ATOM      1  C   UNL     1       8.312  -0.842  -1.634  1.00  0.00     0.127 C 
ENDROOT
BRANCH   1   2
ATOM      2  C   UNL     1       8.364  -1.887  -2.688  1.00  0.00     0.303 C 
ATOM      3  O   UNL     1       8.404  -3.095  -2.351  1.00  0.00    -0.252 OA
BRANCH   2   4
ATOM      4  O   UNL     1       8.368  -1.580  -4.046  1.00  0.00    -0.481 OA
ATOM      5  H   UNL     1       7.682  -0.930  -4.459  1.00  0.00     0.296 HD
ENDBRANCH   2   4
ENDBRANCH   1   2
BRANCH   1   6
ATOM      6  C   UNL     1       7.396  -1.337  -0.549  1.00  0.00     0.047 C 
BRANCH   6   7
ATOM      7  C   UNL     1       6.523  -0.262  -0.008  1.00  0.00    -0.047 A 
ATOM      8  C   UNL     1       6.001  -0.340   1.269  1.00  0.00     0.004 A 
ATOM      9  C   UNL     1       6.194   0.859  -0.746  1.00  0.00     0.004 A 
ATOM     10  C   UNL     1       5.191   0.665   1.762  1.00  0.00     0.000 A 
ATOM     11  C   UNL     1       5.388   1.862  -0.256  1.00  0.00     0.000 A 
ATOM     12  C   UNL     1       4.867   1.782   1.020  1.00  0.00     0.000 A 
ENDBRANCH   6   7
ENDBRANCH   1   6
TORSDOF 4
ENDMDL
MODEL 5
REMARK VINA RESULT:      -6.5      1.899      2.901
REMARK SMILES O=C(O)CCc1ccccc1
REMARK SMILES IDX 4 1 2 2 1 3 3 4 5 6 6 7 7 8 11 9 8 10 10 11 9 12
REMARK H PARENT 3 5
REMARK Flexibility Score: inf
ROOT
ATOM      1  C   UNL     1       8.222  -1.578   1.139  1.00  0.00     0.127 C 
ENDROOT
BRANCH   1   2
ATOM      2  C   UNL     1       8.490  -2.789   0.319  1.00  0.00     0.303 C 
ATOM      3  O   UNL     1       9.118  -3.747   0.831  1.00  0.00    -0.252 OA
BRANCH   2   4
ATOM      4  O   UNL     1       8.070  -2.905  -1.003  1.00  0.00    -0.481 OA
ATOM      5  H   UNL     1       7.293  -2.339  -1.379  1.00  0.00     0.296 HD
ENDBRANCH   2   4
ENDBRANCH   1   2
BRANCH   1   6
ATOM      6  C   UNL     1       6.732  -1.475   1.319  1.00  0.00     0.047 C 
BRANCH   6   7
ATOM      7  C   UNL     1       6.182  -0.203   0.783  1.00  0.00    -0.047 A 
ATOM      8  C   UNL     1       5.414   0.633   1.570  1.00  0.00     0.004 A 
ATOM      9  C   UNL     1       6.410   0.206  -0.518  1.00  0.00     0.004 A 
ATOM     10  C   UNL     1       4.908   1.814   1.061  1.00  0.00     0.000 A 
ATOM     11  C   UNL     1       5.907   1.383  -1.027  1.00  0.00     0.000 A 
ATOM     12  C   UNL     1       5.139   2.216  -0.238  1.00  0.00     0.000 A 
ENDBRANCH   6   7
ENDBRANCH   1   6
TORSDOF 4
ENDMDL
