@<TRIPOS>MOLECULE
/home/cewinharhar/GITHUB/reincatalyze/data/processed/docking_pred/2023-Apr-25-2033_maxeplen5_maxtrainstep200_exh16_gamma099_lrac3e-4_lrcr1e-3/681e80220216c71ec10eb1429598bf11558fcb24_ligand_2.pdbqt
 12 12 0 0 0
SMALL
GASTEIGER

@<TRIPOS>ATOM
      1  C          4.9890    1.7980    0.7180 C.3     1  UNL1        0.1270
      2  C          4.4520    1.1210    1.9270 C.2     1  UNL1        0.3030
      3  O          5.1260    0.2120    2.4700 O.2     1  UNL1       -0.2520
      4  O          3.2230    1.4560    2.4880 O.3     1  UNL1       -0.4810
      5  H          3.1270    2.2230    3.1710 H       1  UNL1        0.2960
      6  C          6.4890    1.7750    0.8150 C.3     1  UNL1        0.0470
      7  C          7.1180    1.0220   -0.3020 C.2     1  UNL1       -0.0470
      8  C          8.4380    1.2300   -0.6510 C.2     1  UNL1        0.0040
      9  C          6.4210    0.0840   -1.0410 C.2     1  UNL1        0.0040
     10  C          9.0130    0.5250   -1.6910 C.2     1  UNL1        0.0000
     11  C          6.9920   -0.6210   -2.0770 C.2     1  UNL1        0.0000
     12  C          8.3110   -0.4100   -2.4240 C.2     1  UNL1        0.0000
@<TRIPOS>BOND
     1    12    11    2
     2    12    10    1
     3    11     9    1
     4    10     8    2
     5     9     7    2
     6     8     7    1
     7     7     6    1
     8     1     6    1
     9     1     2    1
    10     2     3    2
    11     2     4    1
    12     4     5    1
