@<TRIPOS>MOLECULE
/home/cewinharhar/GITHUB/reincatalyze/data/processed/docking_pred/2023-Apr-25-2033_maxeplen5_maxtrainstep200_exh16_gamma099_lrac3e-4_lrcr1e-3/681e80220216c71ec10eb1429598bf11558fcb24_ligand_2.pdbqt
 12 12 0 0 0
SMALL
GASTEIGER

@<TRIPOS>ATOM
      1  C          8.4450   -0.6540   -2.0800 C.3     1  UNL1        0.1270
      2  C          8.4180   -1.9100   -2.8730 C.2     1  UNL1        0.3030
      3  O          7.3110   -2.4010   -3.2040 O.2     1  UNL1       -0.2520
      4  O          9.5780   -2.5710   -3.2670 O.3     1  UNL1       -0.4810
      5  H          9.6810   -3.5930   -3.1740 H       1  UNL1        0.2960
      6  C          7.0610   -0.0680   -2.1120 C.3     1  UNL1        0.0470
      7  C          6.4790    0.0870   -0.7530 C.2     1  UNL1       -0.0470
      8  C          5.8220    1.2450   -0.3840 C.2     1  UNL1        0.0040
      9  C          6.5620   -0.9090    0.2010 C.2     1  UNL1        0.0040
     10  C          5.2840    1.3790    0.8820 C.2     1  UNL1        0.0000
     11  C          6.0270   -0.7790    1.4630 C.2     1  UNL1        0.0000
     12  C          5.3720    0.3800    1.8290 C.2     1  UNL1        0.0000
@<TRIPOS>BOND
     1     4     5    1
     2     4     2    1
     3     3     2    2
     4     2     1    1
     5     6     1    1
     6     6     7    1
     7     7     8    2
     8     7     9    1
     9     8    10    1
    10     9    11    2
    11    10    12    2
    12    11    12    1
