@<TRIPOS>MOLECULE
/home/cewinharhar/GITHUB/reincatalyze/data/processed/docking_pred/2023-Apr-25-2033_maxeplen5_maxtrainstep200_exh16_gamma099_lrac3e-4_lrcr1e-3/681e80220216c71ec10eb1429598bf11558fcb24_ligand_2.pdbqt
 12 12 0 0 0
SMALL
GASTEIGER

@<TRIPOS>ATOM
      1  C          8.4740   -0.6290   -2.1310 C.3     1  UNL1        0.1270
      2  C          8.4440   -1.9130   -2.8790 C.2     1  UNL1        0.3030
      3  O          7.3370   -2.4060   -3.2060 O.2     1  UNL1       -0.2520
      4  O          9.6030   -2.5960   -3.2370 O.3     1  UNL1       -0.4810
      5  H          9.8110   -2.8400   -4.2170 H       1  UNL1        0.2960
      6  C          7.0790   -0.0680   -2.1400 C.3     1  UNL1        0.0470
      7  C          6.5120    0.0650   -0.7720 C.2     1  UNL1       -0.0470
      8  C          6.6490   -0.9450    0.1600 C.2     1  UNL1        0.0040
      9  C          5.8270    1.1950   -0.3660 C.2     1  UNL1        0.0040
     10  C          6.1180   -0.8110    1.4290 C.2     1  UNL1        0.0000
     11  C          5.2980    1.3310    0.8980 C.2     1  UNL1        0.0000
     12  C          5.4350    0.3200    1.8270 C.2     1  UNL1        0.0000
@<TRIPOS>BOND
     1     5     4    1
     2     4     2    1
     3     3     2    2
     4     2     1    1
     5     6     1    1
     6     6     7    1
     7     7     9    2
     8     7     8    1
     9     9    11    1
    10     8    10    2
    11    11    12    2
    12    10    12    1
