@<TRIPOS>MOLECULE
/home/cewinharhar/GITHUB/reincatalyze/data/processed/docking_pred/2023-Apr-25-2033_maxeplen5_maxtrainstep200_exh16_gamma099_lrac3e-4_lrcr1e-3/681e80220216c71ec10eb1429598bf11558fcb24_ligand_2.pdbqt
 12 12 0 0 0
SMALL
GASTEIGER

@<TRIPOS>ATOM
      1  C          8.2220   -1.5780    1.1390 C.3     1  UNL1        0.1270
      2  C          8.4900   -2.7890    0.3190 C.2     1  UNL1        0.3030
      3  O          9.1180   -3.7470    0.8310 O.2     1  UNL1       -0.2520
      4  O          8.0700   -2.9050   -1.0030 O.3     1  UNL1       -0.4810
      5  H          7.2930   -2.3390   -1.3790 H       1  UNL1        0.2960
      6  C          6.7320   -1.4750    1.3190 C.3     1  UNL1        0.0470
      7  C          6.1820   -0.2030    0.7830 C.2     1  UNL1       -0.0470
      8  C          5.4140    0.6330    1.5700 C.2     1  UNL1        0.0040
      9  C          6.4100    0.2060   -0.5180 C.2     1  UNL1        0.0040
     10  C          4.9080    1.8140    1.0610 C.2     1  UNL1        0.0000
     11  C          5.9070    1.3830   -1.0270 C.2     1  UNL1        0.0000
     12  C          5.1390    2.2160   -0.2380 C.2     1  UNL1        0.0000
@<TRIPOS>BOND
     1     5     4    1
     2    11     9    1
     3    11    12    2
     4     4     2    1
     5     9     7    2
     6    12    10    1
     7     2     3    2
     8     2     1    1
     9     7     6    1
    10     7     8    1
    11    10     8    2
    12     1     6    1
