MODEL 1
REMARK VINA RESULT:      -7.3      0.000      0.000
REMARK SMILES O=C(O)CCc1ccccc1
REMARK SMILES IDX 4 1 2 2 1 3 3 4 5 6 6 7 7 8 11 9 8 10 10 11 9 12
REMARK H PARENT 3 5
REMARK Flexibility Score: inf
ROOT
ATOM      1  C   UNL     1       8.458  -0.565  -2.227  1.00  0.00     0.127 C 
ENDROOT
BRANCH   1   2
ATOM      2  C   UNL     1       8.478  -1.870  -2.936  1.00  0.00     0.303 C 
ATOM      3  O   UNL     1       9.574  -2.455  -3.112  1.00  0.00    -0.252 OA
BRANCH   2   4
ATOM      4  O   UNL     1       7.320  -2.477  -3.418  1.00  0.00    -0.481 OA
ATOM      5  H   UNL     1       6.738  -3.086  -2.823  1.00  0.00     0.296 HD
ENDBRANCH   2   4
ENDBRANCH   1   2
BRANCH   1   6
ATOM      6  C   UNL     1       7.035  -0.079  -2.212  1.00  0.00     0.047 C 
BRANCH   6   7
ATOM      7  C   UNL     1       6.498   0.060  -0.833  1.00  0.00    -0.047 A 
ATOM      8  C   UNL     1       5.867   1.220  -0.425  1.00  0.00     0.004 A 
ATOM      9  C   UNL     1       6.599  -0.953   0.101  1.00  0.00     0.004 A 
ATOM     10  C   UNL     1       5.371   1.339   0.859  1.00  0.00     0.000 A 
ATOM     11  C   UNL     1       6.105  -0.837   1.382  1.00  0.00     0.000 A 
ATOM     12  C   UNL     1       5.476   0.323   1.787  1.00  0.00     0.000 A 
ENDBRANCH   6   7
ENDBRANCH   1   6
TORSDOF 4
ENDMDL
MODEL 2
REMARK VINA RESULT:      -7.3      0.117      1.719
REMARK SMILES O=C(O)CCc1ccccc1
REMARK SMILES IDX 4 1 2 2 1 3 3 4 5 6 6 7 7 8 11 9 8 10 10 11 9 12
REMARK H PARENT 3 5
REMARK Flexibility Score: inf
ROOT
ATOM      1  C   UNL     1       8.440  -0.627  -2.123  1.00  0.00     0.127 C 
ENDROOT
BRANCH   1   2
ATOM      2  C   UNL     1       8.418  -1.904  -2.883  1.00  0.00     0.303 C 
ATOM      3  O   UNL     1       7.314  -2.405  -3.206  1.00  0.00    -0.252 OA
BRANCH   2   4
ATOM      4  O   UNL     1       9.582  -2.572  -3.254  1.00  0.00    -0.481 OA
ATOM      5  H   UNL     1      10.341  -2.099  -3.767  1.00  0.00     0.296 HD
ENDBRANCH   2   4
ENDBRANCH   1   2
BRANCH   1   6
ATOM      6  C   UNL     1       7.044  -0.068  -2.138  1.00  0.00     0.047 C 
BRANCH   6   7
ATOM      7  C   UNL     1       6.477   0.080  -0.771  1.00  0.00    -0.047 A 
ATOM      8  C   UNL     1       6.586  -0.934   0.161  1.00  0.00     0.004 A 
ATOM      9  C   UNL     1       5.821   1.227  -0.367  1.00  0.00     0.004 A 
ATOM     10  C   UNL     1       6.055  -0.786   1.428  1.00  0.00     0.000 A 
ATOM     11  C   UNL     1       5.292   1.377   0.895  1.00  0.00     0.000 A 
ATOM     12  C   UNL     1       5.401   0.362   1.825  1.00  0.00     0.000 A 
ENDBRANCH   6   7
ENDBRANCH   1   6
TORSDOF 4
ENDMDL
MODEL 3
REMARK VINA RESULT:      -7.1      0.676      1.514
REMARK SMILES O=C(O)CCc1ccccc1
REMARK SMILES IDX 4 1 2 2 1 3 3 4 5 6 6 7 7 8 11 9 8 10 10 11 9 12
REMARK H PARENT 3 5
REMARK Flexibility Score: inf
ROOT
ATOM      1  C   UNL     1       8.332  -0.948  -1.810  1.00  0.00     0.127 C 
ENDROOT
BRANCH   1   2
ATOM      2  C   UNL     1       8.368  -2.029  -2.829  1.00  0.00     0.303 C 
ATOM      3  O   UNL     1       7.290  -2.449  -3.314  1.00  0.00    -0.252 OA
BRANCH   2   4
ATOM      4  O   UNL     1       9.559  -2.600  -3.271  1.00  0.00    -0.481 OA
ATOM      5  H   UNL     1      10.165  -2.129  -3.959  1.00  0.00     0.296 HD
ENDBRANCH   2   4
ENDBRANCH   1   2
BRANCH   1   6
ATOM      6  C   UNL     1       7.480  -1.429  -0.669  1.00  0.00     0.047 C 
BRANCH   6   7
ATOM      7  C   UNL     1       6.616  -0.355  -0.112  1.00  0.00    -0.047 A 
ATOM      8  C   UNL     1       6.274   0.750  -0.867  1.00  0.00     0.004 A 
ATOM      9  C   UNL     1       6.116  -0.407   1.175  1.00  0.00     0.004 A 
ATOM     10  C   UNL     1       5.470   1.743  -0.340  1.00  0.00     0.000 A 
ATOM     11  C   UNL     1       5.315   0.581   1.703  1.00  0.00     0.000 A 
ATOM     12  C   UNL     1       4.975   1.685   0.947  1.00  0.00     0.000 A 
ENDBRANCH   6   7
ENDBRANCH   1   6
TORSDOF 4
ENDMDL
MODEL 4
REMARK VINA RESULT:      -7.1      0.677      1.892
REMARK SMILES O=C(O)CCc1ccccc1
REMARK SMILES IDX 4 1 2 2 1 3 3 4 5 6 6 7 7 8 11 9 8 10 10 11 9 12
REMARK H PARENT 3 5
REMARK Flexibility Score: inf
ROOT
ATOM      1  C   UNL     1       8.377  -0.952  -1.770  1.00  0.00     0.127 C 
ENDROOT
BRANCH   1   2
ATOM      2  C   UNL     1       8.402  -2.027  -2.796  1.00  0.00     0.303 C 
ATOM      3  O   UNL     1       7.318  -2.447  -3.269  1.00  0.00    -0.252 OA
BRANCH   2   4
ATOM      4  O   UNL     1       9.587  -2.592  -3.258  1.00  0.00    -0.481 OA
ATOM      5  H   UNL     1      10.474  -2.065  -3.264  1.00  0.00     0.296 HD
ENDBRANCH   2   4
ENDBRANCH   1   2
BRANCH   1   6
ATOM      6  C   UNL     1       7.534  -1.440  -0.624  1.00  0.00     0.047 C 
BRANCH   6   7
ATOM      7  C   UNL     1       6.649  -0.377  -0.078  1.00  0.00    -0.047 A 
ATOM      8  C   UNL     1       6.149  -0.453   1.207  1.00  0.00     0.004 A 
ATOM      9  C   UNL     1       6.287   0.731  -0.821  1.00  0.00     0.004 A 
ATOM     10  C   UNL     1       5.328   0.541   1.705  1.00  0.00     0.000 A 
ATOM     11  C   UNL     1       5.469   1.723  -0.327  1.00  0.00     0.000 A 
ATOM     12  C   UNL     1       4.970   1.644   0.958  1.00  0.00     0.000 A 
ENDBRANCH   6   7
ENDBRANCH   1   6
TORSDOF 4
ENDMDL
MODEL 5
REMARK VINA RESULT:      -6.8      3.370      5.062
REMARK SMILES O=C(O)CCc1ccccc1
REMARK SMILES IDX 4 1 2 2 1 3 3 4 5 6 6 7 7 8 11 9 8 10 10 11 9 12
REMARK H PARENT 3 5
REMARK Flexibility Score: inf
ROOT
ATOM      1  C   UNL     1       4.980   1.747   0.658  1.00  0.00     0.127 C 
ENDROOT
BRANCH   1   2
ATOM      2  C   UNL     1       4.490   1.094   1.900  1.00  0.00     0.303 C 
ATOM      3  O   UNL     1       5.199   0.218   2.452  1.00  0.00    -0.252 OA
BRANCH   2   4
ATOM      4  O   UNL     1       3.268   1.418   2.483  1.00  0.00    -0.481 OA
ATOM      5  H   UNL     1       2.884   0.882   3.276  1.00  0.00     0.296 HD
ENDBRANCH   2   4
ENDBRANCH   1   2
BRANCH   1   6
ATOM      6  C   UNL     1       6.480   1.799   0.736  1.00  0.00     0.047 C 
BRANCH   6   7
ATOM      7  C   UNL     1       7.132   1.023  -0.352  1.00  0.00    -0.047 A 
ATOM      8  C   UNL     1       8.475   1.176  -0.635  1.00  0.00     0.004 A 
ATOM      9  C   UNL     1       6.434   0.116  -1.128  1.00  0.00     0.004 A 
ATOM     10  C   UNL     1       9.071   0.450  -1.648  1.00  0.00     0.000 A 
ATOM     11  C   UNL     1       7.025  -0.609  -2.139  1.00  0.00     0.000 A 
ATOM     12  C   UNL     1       8.368  -0.453  -2.419  1.00  0.00     0.000 A 
ENDBRANCH   6   7
ENDBRANCH   1   6
TORSDOF 4
ENDMDL
