@<TRIPOS>MOLECULE
/home/cewinharhar/GITHUB/reincatalyze/data/processed/docking_pred/2023-Apr-25-2033_maxeplen5_maxtrainstep200_exh16_gamma099_lrac3e-4_lrcr1e-3/69e2ce579100b0ee4b56c8bb4a95d1562fd611af_ligand_2.pdbqt
 12 12 0 0 0
SMALL
GASTEIGER

@<TRIPOS>ATOM
      1  C          8.3770   -0.9520   -1.7700 C.3     1  UNL1        0.1270
      2  C          8.4020   -2.0270   -2.7960 C.2     1  UNL1        0.3030
      3  O          7.3180   -2.4470   -3.2690 O.2     1  UNL1       -0.2520
      4  O          9.5870   -2.5920   -3.2580 O.3     1  UNL1       -0.4810
      5  H         10.4740   -2.0650   -3.2640 H       1  UNL1        0.2960
      6  C          7.5340   -1.4400   -0.6240 C.3     1  UNL1        0.0470
      7  C          6.6490   -0.3770   -0.0780 C.2     1  UNL1       -0.0470
      8  C          6.1490   -0.4530    1.2070 C.2     1  UNL1        0.0040
      9  C          6.2870    0.7310   -0.8210 C.2     1  UNL1        0.0040
     10  C          5.3280    0.5410    1.7050 C.2     1  UNL1        0.0000
     11  C          5.4690    1.7230   -0.3270 C.2     1  UNL1        0.0000
     12  C          4.9700    1.6440    0.9580 C.2     1  UNL1        0.0000
@<TRIPOS>BOND
     1     3     2    2
     2     5     4    1
     3     4     2    1
     4     2     1    1
     5     1     6    1
     6     9    11    1
     7     9     7    2
     8     6     7    1
     9    11    12    2
    10     7     8    1
    11    12    10    1
    12     8    10    2
