@<TRIPOS>MOLECULE
/home/cewinharhar/GITHUB/reincatalyze/data/processed/docking_pred/2023-Apr-25-2033_maxeplen5_maxtrainstep200_exh16_gamma099_lrac3e-4_lrcr1e-3/69e2ce579100b0ee4b56c8bb4a95d1562fd611af_ligand_2.pdbqt
 12 12 0 0 0
SMALL
GASTEIGER

@<TRIPOS>ATOM
      1  C          8.4580   -0.5650   -2.2270 C.3     1  UNL1        0.1270
      2  C          8.4780   -1.8700   -2.9360 C.2     1  UNL1        0.3030
      3  O          9.5740   -2.4550   -3.1120 O.2     1  UNL1       -0.2520
      4  O          7.3200   -2.4770   -3.4180 O.3     1  UNL1       -0.4810
      5  H          6.7380   -3.0860   -2.8230 H       1  UNL1        0.2960
      6  C          7.0350   -0.0790   -2.2120 C.3     1  UNL1        0.0470
      7  C          6.4980    0.0600   -0.8330 C.2     1  UNL1       -0.0470
      8  C          5.8670    1.2200   -0.4250 C.2     1  UNL1        0.0040
      9  C          6.5990   -0.9530    0.1010 C.2     1  UNL1        0.0040
     10  C          5.3710    1.3390    0.8590 C.2     1  UNL1        0.0000
     11  C          6.1050   -0.8370    1.3820 C.2     1  UNL1        0.0000
     12  C          5.4760    0.3230    1.7870 C.2     1  UNL1        0.0000
@<TRIPOS>BOND
     1     4     2    1
     2     4     5    1
     3     3     2    2
     4     2     1    1
     5     1     6    1
     6     6     7    1
     7     7     8    2
     8     7     9    1
     9     8    10    1
    10     9    11    2
    11    10    12    2
    12    11    12    1
