@<TRIPOS>MOLECULE
/home/cewinharhar/GITHUB/reincatalyze/data/processed/docking_pred/2023-Apr-25-2033_maxeplen5_maxtrainstep200_exh16_gamma099_lrac3e-4_lrcr1e-3/69e2ce579100b0ee4b56c8bb4a95d1562fd611af_ligand_2.pdbqt
 12 12 0 0 0
SMALL
GASTEIGER

@<TRIPOS>ATOM
      1  C          8.4400   -0.6270   -2.1230 C.3     1  UNL1        0.1270
      2  C          8.4180   -1.9040   -2.8830 C.2     1  UNL1        0.3030
      3  O          7.3140   -2.4050   -3.2060 O.2     1  UNL1       -0.2520
      4  O          9.5820   -2.5720   -3.2540 O.3     1  UNL1       -0.4810
      5  H         10.3410   -2.0990   -3.7670 H       1  UNL1        0.2960
      6  C          7.0440   -0.0680   -2.1380 C.3     1  UNL1        0.0470
      7  C          6.4770    0.0800   -0.7710 C.2     1  UNL1       -0.0470
      8  C          6.5860   -0.9340    0.1610 C.2     1  UNL1        0.0040
      9  C          5.8210    1.2270   -0.3670 C.2     1  UNL1        0.0040
     10  C          6.0550   -0.7860    1.4280 C.2     1  UNL1        0.0000
     11  C          5.2920    1.3770    0.8950 C.2     1  UNL1        0.0000
     12  C          5.4010    0.3620    1.8250 C.2     1  UNL1        0.0000
@<TRIPOS>BOND
     1     5     4    1
     2     4     2    1
     3     3     2    2
     4     2     1    1
     5     6     1    1
     6     6     7    1
     7     7     9    2
     8     7     8    1
     9     9    11    1
    10     8    10    2
    11    11    12    2
    12    10    12    1
