@<TRIPOS>MOLECULE
/home/cewinharhar/GITHUB/reincatalyze/data/processed/docking_pred/2023-Apr-25-2033_maxeplen5_maxtrainstep200_exh16_gamma099_lrac3e-4_lrcr1e-3/69e2ce579100b0ee4b56c8bb4a95d1562fd611af_ligand_2.pdbqt
 12 12 0 0 0
SMALL
GASTEIGER

@<TRIPOS>ATOM
      1  C          8.3320   -0.9480   -1.8100 C.3     1  UNL1        0.1270
      2  C          8.3680   -2.0290   -2.8290 C.2     1  UNL1        0.3030
      3  O          7.2900   -2.4490   -3.3140 O.2     1  UNL1       -0.2520
      4  O          9.5590   -2.6000   -3.2710 O.3     1  UNL1       -0.4810
      5  H         10.1650   -2.1290   -3.9590 H       1  UNL1        0.2960
      6  C          7.4800   -1.4290   -0.6690 C.3     1  UNL1        0.0470
      7  C          6.6160   -0.3550   -0.1120 C.2     1  UNL1       -0.0470
      8  C          6.2740    0.7500   -0.8670 C.2     1  UNL1        0.0040
      9  C          6.1160   -0.4070    1.1750 C.2     1  UNL1        0.0040
     10  C          5.4700    1.7430   -0.3400 C.2     1  UNL1        0.0000
     11  C          5.3150    0.5810    1.7030 C.2     1  UNL1        0.0000
     12  C          4.9750    1.6850    0.9470 C.2     1  UNL1        0.0000
@<TRIPOS>BOND
     1     5     4    1
     2     3     2    2
     3     4     2    1
     4     2     1    1
     5     1     6    1
     6     8    10    1
     7     8     7    2
     8     6     7    1
     9    10    12    2
    10     7     9    1
    11    12    11    1
    12     9    11    2
