MODEL 1
REMARK VINA RESULT:      -7.2      0.000      0.000
REMARK SMILES O=C(O)CCc1ccccc1
REMARK SMILES IDX 4 1 2 2 1 3 3 4 5 6 6 7 7 8 11 9 8 10 10 11 9 12
REMARK H PARENT 3 5
REMARK Flexibility Score: inf
ROOT
ATOM      1  C   UNL     1       8.449  -0.614  -2.147  1.00  0.00     0.127 C 
ENDROOT
BRANCH   1   2
ATOM      2  C   UNL     1       8.426  -1.898  -2.894  1.00  0.00     0.303 C 
ATOM      3  O   UNL     1       7.321  -2.404  -3.208  1.00  0.00    -0.252 OA
BRANCH   2   4
ATOM      4  O   UNL     1       9.589  -2.569  -3.263  1.00  0.00    -0.481 OA
ATOM      5  H   UNL     1      10.118  -2.315  -4.111  1.00  0.00     0.296 HD
ENDBRANCH   2   4
ENDBRANCH   1   2
BRANCH   1   6
ATOM      6  C   UNL     1       7.050  -0.061  -2.155  1.00  0.00     0.047 C 
BRANCH   6   7
ATOM      7  C   UNL     1       6.488   0.080  -0.786  1.00  0.00    -0.047 A 
ATOM      8  C   UNL     1       6.600  -0.938   0.141  1.00  0.00     0.004 A 
ATOM      9  C   UNL     1       5.832   1.225  -0.375  1.00  0.00     0.004 A 
ATOM     10  C   UNL     1       6.074  -0.797   1.411  1.00  0.00     0.000 A 
ATOM     11  C   UNL     1       5.306   1.368   0.890  1.00  0.00     0.000 A 
ATOM     12  C   UNL     1       5.419   0.349   1.814  1.00  0.00     0.000 A 
ENDBRANCH   6   7
ENDBRANCH   1   6
TORSDOF 4
ENDMDL
MODEL 2
REMARK VINA RESULT:      -7.2      0.045      1.420
REMARK SMILES O=C(O)CCc1ccccc1
REMARK SMILES IDX 4 1 2 2 1 3 3 4 5 6 6 7 7 8 11 9 8 10 10 11 9 12
REMARK H PARENT 3 5
REMARK Flexibility Score: inf
ROOT
ATOM      1  C   UNL     1       8.409  -0.589  -2.177  1.00  0.00     0.127 C 
ENDROOT
BRANCH   1   2
ATOM      2  C   UNL     1       8.397  -1.887  -2.899  1.00  0.00     0.303 C 
ATOM      3  O   UNL     1       7.298  -2.392  -3.233  1.00  0.00    -0.252 OA
BRANCH   2   4
ATOM      4  O   UNL     1       9.565  -2.572  -3.224  1.00  0.00    -0.481 OA
ATOM      5  H   UNL     1       9.639  -3.147  -4.077  1.00  0.00     0.296 HD
ENDBRANCH   2   4
ENDBRANCH   1   2
BRANCH   1   6
ATOM      6  C   UNL     1       6.998  -0.070  -2.156  1.00  0.00     0.047 C 
BRANCH   6   7
ATOM      7  C   UNL     1       6.463   0.064  -0.775  1.00  0.00    -0.047 A 
ATOM      8  C   UNL     1       5.802   1.208  -0.372  1.00  0.00     0.004 A 
ATOM      9  C   UNL     1       6.596  -0.940   0.165  1.00  0.00     0.004 A 
ATOM     10  C   UNL     1       5.309   1.321   0.914  1.00  0.00     0.000 A 
ATOM     11  C   UNL     1       6.105  -0.830   1.447  1.00  0.00     0.000 A 
ATOM     12  C   UNL     1       5.446   0.315   1.848  1.00  0.00     0.000 A 
ENDBRANCH   6   7
ENDBRANCH   1   6
TORSDOF 4
ENDMDL
MODEL 3
REMARK VINA RESULT:      -7.2      0.674      1.502
REMARK SMILES O=C(O)CCc1ccccc1
REMARK SMILES IDX 4 1 2 2 1 3 3 4 5 6 6 7 7 8 11 9 8 10 10 11 9 12
REMARK H PARENT 3 5
REMARK Flexibility Score: inf
ROOT
ATOM      1  C   UNL     1       8.331  -0.961  -1.804  1.00  0.00     0.127 C 
ENDROOT
BRANCH   1   2
ATOM      2  C   UNL     1       8.414  -2.045  -2.817  1.00  0.00     0.303 C 
ATOM      3  O   UNL     1       9.530  -2.562  -3.070  1.00  0.00    -0.252 OA
BRANCH   2   4
ATOM      4  O   UNL     1       7.297  -2.516  -3.502  1.00  0.00    -0.481 OA
ATOM      5  H   UNL     1       6.444  -2.820  -3.008  1.00  0.00     0.296 HD
ENDBRANCH   2   4
ENDBRANCH   1   2
BRANCH   1   6
ATOM      6  C   UNL     1       7.425  -1.439  -0.703  1.00  0.00     0.047 C 
BRANCH   6   7
ATOM      7  C   UNL     1       6.579  -0.349  -0.150  1.00  0.00    -0.047 A 
ATOM      8  C   UNL     1       6.085  -0.411   1.139  1.00  0.00     0.004 A 
ATOM      9  C   UNL     1       6.249   0.773  -0.888  1.00  0.00     0.004 A 
ATOM     10  C   UNL     1       5.300   0.609   1.643  1.00  0.00     0.000 A 
ATOM     11  C   UNL     1       5.468   1.790  -0.388  1.00  0.00     0.000 A 
ATOM     12  C   UNL     1       4.974   1.725   0.900  1.00  0.00     0.000 A 
ENDBRANCH   6   7
ENDBRANCH   1   6
TORSDOF 4
ENDMDL
MODEL 4
REMARK VINA RESULT:      -6.8      3.313      5.166
REMARK SMILES O=C(O)CCc1ccccc1
REMARK SMILES IDX 4 1 2 2 1 3 3 4 5 6 6 7 7 8 11 9 8 10 10 11 9 12
REMARK H PARENT 3 5
REMARK Flexibility Score: inf
ROOT
ATOM      1  C   UNL     1       4.974   1.809   0.720  1.00  0.00     0.127 C 
ENDROOT
BRANCH   1   2
ATOM      2  C   UNL     1       4.453   1.125   1.932  1.00  0.00     0.303 C 
ATOM      3  O   UNL     1       5.138   0.220   2.467  1.00  0.00    -0.252 OA
BRANCH   2   4
ATOM      4  O   UNL     1       3.225   1.449   2.503  1.00  0.00    -0.481 OA
ATOM      5  H   UNL     1       2.792   2.376   2.373  1.00  0.00     0.296 HD
ENDBRANCH   2   4
ENDBRANCH   1   2
BRANCH   1   6
ATOM      6  C   UNL     1       6.475   1.812   0.813  1.00  0.00     0.047 C 
BRANCH   6   7
ATOM      7  C   UNL     1       7.114   1.066  -0.303  1.00  0.00    -0.047 A 
ATOM      8  C   UNL     1       6.390   0.183  -1.080  1.00  0.00     0.004 A 
ATOM      9  C   UNL     1       8.451   1.218  -0.619  1.00  0.00     0.004 A 
ATOM     10  C   UNL     1       6.994  -0.505  -2.116  1.00  0.00     0.000 A 
ATOM     11  C   UNL     1       9.055   0.534  -1.650  1.00  0.00     0.000 A 
ATOM     12  C   UNL     1       8.329  -0.349  -2.424  1.00  0.00     0.000 A 
ENDBRANCH   6   7
ENDBRANCH   1   6
TORSDOF 4
ENDMDL
MODEL 5
REMARK VINA RESULT:      -6.6      1.921      2.243
REMARK SMILES O=C(O)CCc1ccccc1
REMARK SMILES IDX 4 1 2 2 1 3 3 4 5 6 6 7 7 8 11 9 8 10 10 11 9 12
REMARK H PARENT 3 5
REMARK Flexibility Score: inf
ROOT
ATOM      1  C   UNL     1       8.261   0.167  -2.204  1.00  0.00     0.127 C 
ENDROOT
BRANCH   1   2
ATOM      2  C   UNL     1       9.387   0.349  -1.252  1.00  0.00     0.303 C 
ATOM      3  O   UNL     1       9.461  -0.391  -0.242  1.00  0.00    -0.252 OA
BRANCH   2   4
ATOM      4  O   UNL     1      10.372   1.316  -1.437  1.00  0.00    -0.481 OA
ATOM      5  H   UNL     1      10.962   1.647  -0.658  1.00  0.00     0.296 HD
ENDBRANCH   2   4
ENDBRANCH   1   2
BRANCH   1   6
ATOM      6  C   UNL     1       7.194  -0.622  -1.497  1.00  0.00     0.047 C 
BRANCH   6   7
ATOM      7  C   UNL     1       6.382   0.218  -0.578  1.00  0.00    -0.047 A 
ATOM      8  C   UNL     1       6.130  -0.181   0.720  1.00  0.00     0.004 A 
ATOM      9  C   UNL     1       5.843   1.429  -0.971  1.00  0.00     0.004 A 
ATOM     10  C   UNL     1       5.373   0.607   1.566  1.00  0.00     0.000 A 
ATOM     11  C   UNL     1       5.090   2.216  -0.130  1.00  0.00     0.000 A 
ATOM     12  C   UNL     1       4.839   1.815   1.167  1.00  0.00     0.000 A 
ENDBRANCH   6   7
ENDBRANCH   1   6
TORSDOF 4
ENDMDL
