@<TRIPOS>MOLECULE
/home/cewinharhar/GITHUB/reincatalyze/data/processed/docking_pred/2023-Apr-25-2033_maxeplen5_maxtrainstep200_exh16_gamma099_lrac3e-4_lrcr1e-3/6b061a7890d75c8b26c884693b3b8f9ee5a9c423_ligand_2.pdbqt
 12 12 0 0 0
SMALL
GASTEIGER

@<TRIPOS>ATOM
      1  C          4.9740    1.8090    0.7200 C.3     1  UNL1        0.1270
      2  C          4.4530    1.1250    1.9320 C.2     1  UNL1        0.3030
      3  O          5.1380    0.2200    2.4670 O.2     1  UNL1       -0.2520
      4  O          3.2250    1.4490    2.5030 O.3     1  UNL1       -0.4810
      5  H          2.7920    2.3760    2.3730 H       1  UNL1        0.2960
      6  C          6.4750    1.8120    0.8130 C.3     1  UNL1        0.0470
      7  C          7.1140    1.0660   -0.3030 C.2     1  UNL1       -0.0470
      8  C          6.3900    0.1830   -1.0800 C.2     1  UNL1        0.0040
      9  C          8.4510    1.2180   -0.6190 C.2     1  UNL1        0.0040
     10  C          6.9940   -0.5050   -2.1160 C.2     1  UNL1        0.0000
     11  C          9.0550    0.5340   -1.6500 C.2     1  UNL1        0.0000
     12  C          8.3290   -0.3490   -2.4240 C.2     1  UNL1        0.0000
@<TRIPOS>BOND
     1    12    10    2
     2    12    11    1
     3    10     8    1
     4    11     9    2
     5     8     7    2
     6     9     7    1
     7     7     6    1
     8     1     6    1
     9     1     2    1
    10     2     3    2
    11     2     4    1
    12     5     4    1
