@<TRIPOS>MOLECULE
/home/cewinharhar/GITHUB/reincatalyze/data/processed/docking_pred/2023-Apr-25-2033_maxeplen5_maxtrainstep200_exh16_gamma099_lrac3e-4_lrcr1e-3/6b061a7890d75c8b26c884693b3b8f9ee5a9c423_ligand_2.pdbqt
 12 12 0 0 0
SMALL
GASTEIGER

@<TRIPOS>ATOM
      1  C          8.2610    0.1670   -2.2040 C.3     1  UNL1        0.1270
      2  C          9.3870    0.3490   -1.2520 C.2     1  UNL1        0.3030
      3  O          9.4610   -0.3910   -0.2420 O.2     1  UNL1       -0.2520
      4  O         10.3720    1.3160   -1.4370 O.3     1  UNL1       -0.4810
      5  H         10.9620    1.6470   -0.6580 H       1  UNL1        0.2960
      6  C          7.1940   -0.6220   -1.4970 C.3     1  UNL1        0.0470
      7  C          6.3820    0.2180   -0.5780 C.2     1  UNL1       -0.0470
      8  C          6.1300   -0.1810    0.7200 C.2     1  UNL1        0.0040
      9  C          5.8430    1.4290   -0.9710 C.2     1  UNL1        0.0040
     10  C          5.3730    0.6070    1.5660 C.2     1  UNL1        0.0000
     11  C          5.0900    2.2160   -0.1300 C.2     1  UNL1        0.0000
     12  C          4.8390    1.8150    1.1670 C.2     1  UNL1        0.0000
@<TRIPOS>BOND
     1     1     6    1
     2     1     2    1
     3     6     7    1
     4     4     2    1
     5     4     5    1
     6     2     3    2
     7     9     7    2
     8     9    11    1
     9     7     8    1
    10    11    12    2
    11     8    10    2
    12    12    10    1
