@<TRIPOS>MOLECULE
/home/cewinharhar/GITHUB/reincatalyze/data/processed/docking_pred/2023-Apr-25-2033_maxeplen5_maxtrainstep200_exh16_gamma099_lrac3e-4_lrcr1e-3/6b061a7890d75c8b26c884693b3b8f9ee5a9c423_ligand_2.pdbqt
 12 12 0 0 0
SMALL
GASTEIGER

@<TRIPOS>ATOM
      1  C          8.4090   -0.5890   -2.1770 C.3     1  UNL1        0.1270
      2  C          8.3970   -1.8870   -2.8990 C.2     1  UNL1        0.3030
      3  O          7.2980   -2.3920   -3.2330 O.2     1  UNL1       -0.2520
      4  O          9.5650   -2.5720   -3.2240 O.3     1  UNL1       -0.4810
      5  H          9.6390   -3.1470   -4.0770 H       1  UNL1        0.2960
      6  C          6.9980   -0.0700   -2.1560 C.3     1  UNL1        0.0470
      7  C          6.4630    0.0640   -0.7750 C.2     1  UNL1       -0.0470
      8  C          5.8020    1.2080   -0.3720 C.2     1  UNL1        0.0040
      9  C          6.5960   -0.9400    0.1650 C.2     1  UNL1        0.0040
     10  C          5.3090    1.3210    0.9140 C.2     1  UNL1        0.0000
     11  C          6.1050   -0.8300    1.4470 C.2     1  UNL1        0.0000
     12  C          5.4460    0.3150    1.8480 C.2     1  UNL1        0.0000
@<TRIPOS>BOND
     1     5     4    1
     2     3     2    2
     3     4     2    1
     4     2     1    1
     5     1     6    1
     6     6     7    1
     7     7     8    2
     8     7     9    1
     9     8    10    1
    10     9    11    2
    11    10    12    2
    12    11    12    1
