@<TRIPOS>MOLECULE
/home/cewinharhar/GITHUB/reincatalyze/data/processed/docking_pred/2023-Apr-25-2033_maxeplen5_maxtrainstep200_exh16_gamma099_lrac3e-4_lrcr1e-3/6b061a7890d75c8b26c884693b3b8f9ee5a9c423_ligand_2.pdbqt
 12 12 0 0 0
SMALL
GASTEIGER

@<TRIPOS>ATOM
      1  C          8.4490   -0.6140   -2.1470 C.3     1  UNL1        0.1270
      2  C          8.4260   -1.8980   -2.8940 C.2     1  UNL1        0.3030
      3  O          7.3210   -2.4040   -3.2080 O.2     1  UNL1       -0.2520
      4  O          9.5890   -2.5690   -3.2630 O.3     1  UNL1       -0.4810
      5  H         10.1180   -2.3150   -4.1110 H       1  UNL1        0.2960
      6  C          7.0500   -0.0610   -2.1550 C.3     1  UNL1        0.0470
      7  C          6.4880    0.0800   -0.7860 C.2     1  UNL1       -0.0470
      8  C          6.6000   -0.9380    0.1410 C.2     1  UNL1        0.0040
      9  C          5.8320    1.2250   -0.3750 C.2     1  UNL1        0.0040
     10  C          6.0740   -0.7970    1.4110 C.2     1  UNL1        0.0000
     11  C          5.3060    1.3680    0.8900 C.2     1  UNL1        0.0000
     12  C          5.4190    0.3490    1.8140 C.2     1  UNL1        0.0000
@<TRIPOS>BOND
     1     5     4    1
     2     4     2    1
     3     3     2    2
     4     2     1    1
     5     6     1    1
     6     6     7    1
     7     7     9    2
     8     7     8    1
     9     9    11    1
    10     8    10    2
    11    11    12    2
    12    10    12    1
