@<TRIPOS>MOLECULE
/home/cewinharhar/GITHUB/reincatalyze/data/processed/docking_pred/2023-Apr-25-2033_maxeplen5_maxtrainstep200_exh16_gamma099_lrac3e-4_lrcr1e-3/6b66a19e3843729fbb18dde59d8ef2ce5f9236cc_ligand_2.pdbqt
 12 12 0 0 0
SMALL
GASTEIGER

@<TRIPOS>ATOM
      1  C          5.4720    2.8910   -0.0310 C.3     1  UNL1        0.1270
      2  C          6.2460    3.8490    0.8010 C.2     1  UNL1        0.3030
      3  O          6.9040    4.7570    0.2370 O.2     1  UNL1       -0.2520
      4  O          6.2700    3.7810    2.1910 O.3     1  UNL1       -0.4810
      5  H          6.9610    4.3060    2.7490 H       1  UNL1        0.2960
      6  C          4.8860    1.8600    0.8930 C.3     1  UNL1        0.0470
      7  C          5.6930    0.6130    0.9360 C.2     1  UNL1       -0.0470
      8  C          6.4080    0.1840   -0.1660 C.2     1  UNL1        0.0040
      9  C          5.7710   -0.1740    2.0710 C.2     1  UNL1        0.0040
     10  C          7.1560   -0.9770   -0.1140 C.2     1  UNL1        0.0000
     11  C          6.5160   -1.3310    2.1240 C.2     1  UNL1        0.0000
     12  C          7.2280   -1.7570    1.0210 C.2     1  UNL1        0.0000
@<TRIPOS>BOND
     1     8    10    1
     2     8     7    2
     3    10    12    2
     4     1     2    1
     5     1     6    1
     6     3     2    2
     7     2     4    1
     8     6     7    1
     9     7     9    1
    10    12    11    1
    11     9    11    2
    12     4     5    1
