@<TRIPOS>MOLECULE
/home/cewinharhar/GITHUB/reincatalyze/data/processed/docking_pred/2023-Apr-25-2033_maxeplen5_maxtrainstep200_exh16_gamma099_lrac3e-4_lrcr1e-3/6b66a19e3843729fbb18dde59d8ef2ce5f9236cc_ligand_2.pdbqt
 12 12 0 0 0
SMALL
GASTEIGER

@<TRIPOS>ATOM
      1  C          4.9760    1.7760    0.6820 C.3     1  UNL1        0.1270
      2  C          4.4630    1.1100    1.9080 C.2     1  UNL1        0.3030
      3  O          5.1500    0.2100    2.4480 O.2     1  UNL1       -0.2520
      4  O          3.2420    1.4470    2.4860 O.3     1  UNL1       -0.4810
      5  H          2.9450    1.0600    3.3950 H       1  UNL1        0.2960
      6  C          6.4770    1.7940    0.7710 C.3     1  UNL1        0.0470
      7  C          7.1200    1.0290   -0.3290 C.2     1  UNL1       -0.0470
      8  C          8.4510    1.2170   -0.6480 C.2     1  UNL1        0.0040
      9  C          6.4270    0.0990   -1.0810 C.2     1  UNL1        0.0040
     10  C          9.0390    0.5000   -1.6730 C.2     1  UNL1        0.0000
     11  C          7.0100   -0.6160   -2.1030 C.2     1  UNL1        0.0000
     12  C          8.3400   -0.4260   -2.4200 C.2     1  UNL1        0.0000
@<TRIPOS>BOND
     1    12    11    2
     2    12    10    1
     3    11     9    1
     4    10     8    2
     5     9     7    2
     6     8     7    1
     7     7     6    1
     8     1     6    1
     9     1     2    1
    10     2     3    2
    11     2     4    1
    12     4     5    1
