@<TRIPOS>MOLECULE
/home/cewinharhar/GITHUB/reincatalyze/data/processed/docking_pred/2023-Apr-25-2033_maxeplen5_maxtrainstep200_exh16_gamma099_lrac3e-4_lrcr1e-3/6b66a19e3843729fbb18dde59d8ef2ce5f9236cc_ligand_2.pdbqt
 12 12 0 0 0
SMALL
GASTEIGER

@<TRIPOS>ATOM
      1  C          8.4670   -0.6520   -2.0850 C.3     1  UNL1        0.1270
      2  C          8.4320   -1.9080   -2.8780 C.2     1  UNL1        0.3030
      3  O          7.3220   -2.3890   -3.2150 O.2     1  UNL1       -0.2520
      4  O          9.5880   -2.5800   -3.2660 O.3     1  UNL1       -0.4810
      5  H         10.3790   -2.7200   -2.6190 H       1  UNL1        0.2960
      6  C          7.0890   -0.0510   -2.1280 C.3     1  UNL1        0.0470
      7  C          6.4960    0.1060   -0.7740 C.2     1  UNL1       -0.0470
      8  C          6.5990   -0.8940    0.1730 C.2     1  UNL1        0.0040
      9  C          5.8190    1.2500   -0.3960 C.2     1  UNL1        0.0040
     10  C          6.0440   -0.7380    1.4290 C.2     1  UNL1        0.0000
     11  C          5.2650    1.4090    0.8550 C.2     1  UNL1        0.0000
     12  C          5.3690    0.4070    1.7990 C.2     1  UNL1        0.0000
@<TRIPOS>BOND
     1     4     2    1
     2     4     5    1
     3     3     2    2
     4     2     1    1
     5     6     1    1
     6     6     7    1
     7     7     9    2
     8     7     8    1
     9     9    11    1
    10     8    10    2
    11    11    12    2
    12    10    12    1
