@<TRIPOS>MOLECULE
/home/cewinharhar/GITHUB/reincatalyze/data/processed/docking_pred/2023-Apr-25-2033_maxeplen5_maxtrainstep200_exh16_gamma099_lrac3e-4_lrcr1e-3/6b66a19e3843729fbb18dde59d8ef2ce5f9236cc_ligand_2.pdbqt
 12 12 0 0 0
SMALL
GASTEIGER

@<TRIPOS>ATOM
      1  C          8.2430    0.2480   -2.2030 C.3     1  UNL1        0.1270
      2  C          9.3770    0.3920   -1.2540 C.2     1  UNL1        0.3030
      3  O          9.4550   -0.3820   -0.2700 O.2     1  UNL1       -0.2520
      4  O         10.3670    1.3590   -1.4140 O.3     1  UNL1       -0.4810
      5  H         10.1470    2.3170   -1.7260 H       1  UNL1        0.2960
      6  C          7.1750   -0.5550   -1.5130 C.3     1  UNL1        0.0470
      7  C          6.3650    0.2660   -0.5750 C.2     1  UNL1       -0.0470
      8  C          5.8190    1.4720   -0.9680 C.2     1  UNL1        0.0040
      9  C          6.1180   -0.1330    0.7260 C.2     1  UNL1        0.0040
     10  C          5.0670    2.2270   -0.0870 C.2     1  UNL1        0.0000
     11  C          5.3690    0.6170    1.6050 C.2     1  UNL1        0.0000
     12  C          4.8250    1.8230    1.2090 C.2     1  UNL1        0.0000
@<TRIPOS>BOND
     1     1     6    1
     2     1     2    1
     3     5     4    1
     4     6     7    1
     5     4     2    1
     6     2     3    2
     7     8     7    2
     8     8    10    1
     9     7     9    1
    10    10    12    2
    11     9    11    2
    12    12    11    1
