@<TRIPOS>MOLECULE
/home/cewinharhar/GITHUB/reincatalyze/data/processed/docking_pred/2023-Apr-25-2033_maxeplen5_maxtrainstep200_exh16_gamma099_lrac3e-4_lrcr1e-3/6dc168e099aae66a1c19408847f7f9495b2b5216_ligand_2.pdbqt
 12 12 0 0 0
SMALL
GASTEIGER

@<TRIPOS>ATOM
      1  C          8.3260   -0.9700   -1.7920 C.3     1  UNL1        0.1270
      2  C          8.4320   -2.0220   -2.8360 C.2     1  UNL1        0.3030
      3  O          9.5580   -2.5040   -3.1070 O.2     1  UNL1       -0.2520
      4  O          7.3240   -2.5010   -3.5300 O.3     1  UNL1       -0.4810
      5  H          6.9050   -1.9770   -4.3130 H       1  UNL1        0.2960
      6  C          7.3390   -1.4510   -0.7630 C.3     1  UNL1        0.0470
      7  C          6.5430   -0.3400   -0.1780 C.2     1  UNL1       -0.0470
      8  C          6.2030    0.7690   -0.9290 C.2     1  UNL1        0.0040
      9  C          6.1040   -0.3610    1.1320 C.2     1  UNL1        0.0040
     10  C          5.4630    1.7960   -0.3750 C.2     1  UNL1        0.0000
     11  C          5.3660    0.6610    1.6860 C.2     1  UNL1        0.0000
     12  C          5.0290    1.7690    0.9350 C.2     1  UNL1        0.0000
@<TRIPOS>BOND
     1     5     4    1
     2     4     2    1
     3     3     2    2
     4     2     1    1
     5     1     6    1
     6     8    10    1
     7     8     7    2
     8     6     7    1
     9    10    12    2
    10     7     9    1
    11    12    11    1
    12     9    11    2
