@<TRIPOS>MOLECULE
/home/cewinharhar/GITHUB/reincatalyze/data/processed/docking_pred/2023-Apr-25-2033_maxeplen5_maxtrainstep200_exh16_gamma099_lrac3e-4_lrcr1e-3/6dc168e099aae66a1c19408847f7f9495b2b5216_ligand_2.pdbqt
 12 12 0 0 0
SMALL
GASTEIGER

@<TRIPOS>ATOM
      1  C          5.3850    2.9350    0.0570 C.3     1  UNL1        0.1270
      2  C          6.3120    3.7670    0.8670 C.2     1  UNL1        0.3030
      3  O          6.8470    4.7740    0.3440 O.2     1  UNL1       -0.2520
      4  O          6.6130    3.4740    2.1950 O.3     1  UNL1       -0.4810
      5  H          7.2570    2.7100    2.4510 H       1  UNL1        0.2960
      6  C          5.1990    1.6300    0.7800 C.3     1  UNL1        0.0470
      7  C          6.0240    0.5370    0.2010 C.2     1  UNL1       -0.0470
      8  C          6.3380    0.5140   -1.1440 C.2     1  UNL1        0.0040
      9  C          6.5160   -0.5000    0.9710 C.2     1  UNL1        0.0040
     10  C          7.1060   -0.5060   -1.6720 C.2     1  UNL1        0.0000
     11  C          7.2820   -1.5180    0.4470 C.2     1  UNL1        0.0000
     12  C          7.5930   -1.5390   -0.8980 C.2     1  UNL1        0.0000
@<TRIPOS>BOND
     1    10     8    1
     2    10    12    2
     3     8     7    2
     4    12    11    1
     5     1     6    1
     6     1     2    1
     7     7     6    1
     8     7     9    1
     9     3     2    2
    10    11     9    2
    11     2     4    1
    12     4     5    1
