@<TRIPOS>MOLECULE
/home/cewinharhar/GITHUB/reincatalyze/data/processed/docking_pred/2023-Apr-25-2033_maxeplen5_maxtrainstep200_exh16_gamma099_lrac3e-4_lrcr1e-3/6dc168e099aae66a1c19408847f7f9495b2b5216_ligand_2.pdbqt
 12 12 0 0 0
SMALL
GASTEIGER

@<TRIPOS>ATOM
      1  C          8.4480   -0.6120   -2.1690 C.3     1  UNL1        0.1270
      2  C          8.4610   -1.9000   -2.9100 C.2     1  UNL1        0.3030
      3  O          9.5540   -2.4910   -3.0910 O.2     1  UNL1       -0.2520
      4  O          7.3030   -2.4840   -3.4160 O.3     1  UNL1       -0.4810
      5  H          6.5160   -1.9170   -3.7680 H       1  UNL1        0.2960
      6  C          7.0320   -0.1060   -2.1680 C.3     1  UNL1        0.0470
      7  C          6.4850    0.0460   -0.7940 C.2     1  UNL1       -0.0470
      8  C          6.6010   -0.9670    0.1380 C.2     1  UNL1        0.0040
      9  C          5.8400    1.1980   -0.3830 C.2     1  UNL1        0.0040
     10  C          6.0890   -0.8150    1.4130 C.2     1  UNL1        0.0000
     11  C          5.3290    1.3510    0.8870 C.2     1  UNL1        0.0000
     12  C          5.4460    0.3380    1.8160 C.2     1  UNL1        0.0000
@<TRIPOS>BOND
     1     5     4    1
     2     4     2    1
     3     3     2    2
     4     2     1    1
     5     1     6    1
     6     6     7    1
     7     7     9    2
     8     7     8    1
     9     9    11    1
    10     8    10    2
    11    11    12    2
    12    10    12    1
