@<TRIPOS>MOLECULE
/home/cewinharhar/GITHUB/reincatalyze/data/processed/docking_pred/2023-Apr-25-2033_maxeplen5_maxtrainstep200_exh16_gamma099_lrac3e-4_lrcr1e-3/6dc168e099aae66a1c19408847f7f9495b2b5216_ligand_2.pdbqt
 12 12 0 0 0
SMALL
GASTEIGER

@<TRIPOS>ATOM
      1  C          5.0070    1.7860    0.7240 C.3     1  UNL1        0.1270
      2  C          4.4580    1.1120    1.9300 C.2     1  UNL1        0.3030
      3  O          5.1250    0.2020    2.4790 O.2     1  UNL1       -0.2520
      4  O          3.2260    1.4530    2.4810 O.3     1  UNL1       -0.4810
      5  H          2.9930    1.2450    3.4640 H       1  UNL1        0.2960
      6  C          6.5060    1.7510    0.8290 C.3     1  UNL1        0.0470
      7  C          7.1370    1.0110   -0.2960 C.2     1  UNL1       -0.0470
      8  C          6.4240    0.0840   -1.0310 C.2     1  UNL1        0.0040
      9  C          8.4550    1.2120   -0.6610 C.2     1  UNL1        0.0040
     10  C          7.0200   -0.5980   -2.0750 C.2     1  UNL1        0.0000
     11  C          9.0510    0.5340   -1.7010 C.2     1  UNL1        0.0000
     12  C          8.3360   -0.3920   -2.4340 C.2     1  UNL1        0.0000
@<TRIPOS>BOND
     1    12    10    2
     2    12    11    1
     3    10     8    1
     4    11     9    2
     5     8     7    2
     6     9     7    1
     7     7     6    1
     8     1     6    1
     9     1     2    1
    10     2     3    2
    11     2     4    1
    12     4     5    1
