@<TRIPOS>MOLECULE
/home/cewinharhar/GITHUB/reincatalyze/data/processed/docking_pred/2023-Apr-25-2033_maxeplen5_maxtrainstep200_exh16_gamma099_lrac3e-4_lrcr1e-3/6e6a373552f8835a6ba7a6c6fa001d8bbefa4498_ligand_2.pdbqt
 12 12 0 0 0
SMALL
GASTEIGER

@<TRIPOS>ATOM
      1  C          8.3160    0.3470   -1.9900 C.3     1  UNL1        0.1270
      2  C          9.4850    0.4000   -1.0740 C.2     1  UNL1        0.3030
      3  O          9.5260   -0.3750   -0.0880 O.2     1  UNL1       -0.2520
      4  O         10.5470    1.2800   -1.2680 O.3     1  UNL1       -0.4810
      5  H         11.1880    1.1910   -2.0700 H       1  UNL1        0.2960
      6  C          7.2960   -0.5670   -1.3690 C.3     1  UNL1        0.0470
      7  C          6.4350    0.1330   -0.3800 C.2     1  UNL1       -0.0470
      8  C          5.8750    1.3640   -0.6620 C.2     1  UNL1        0.0040
      9  C          6.1510   -0.4070    0.8610 C.2     1  UNL1        0.0040
     10  C          5.0760    2.0060    0.2650 C.2     1  UNL1        0.0000
     11  C          5.3550    0.2300    1.7860 C.2     1  UNL1        0.0000
     12  C          4.7980    1.4600    1.5010 C.2     1  UNL1        0.0000
@<TRIPOS>BOND
     1     5     4    1
     2     1     6    1
     3     1     2    1
     4     6     7    1
     5     4     2    1
     6     2     3    2
     7     8     7    2
     8     8    10    1
     9     7     9    1
    10    10    12    2
    11     9    11    2
    12    12    11    1
