@<TRIPOS>MOLECULE
/home/cewinharhar/GITHUB/reincatalyze/data/processed/docking_pred/2023-Apr-25-2033_maxeplen5_maxtrainstep200_exh16_gamma099_lrac3e-4_lrcr1e-3/6e6a373552f8835a6ba7a6c6fa001d8bbefa4498_ligand_2.pdbqt
 12 12 0 0 0
SMALL
GASTEIGER

@<TRIPOS>ATOM
      1  C          8.4260   -0.6130   -2.1440 C.3     1  UNL1        0.1270
      2  C          8.4160   -1.8990   -2.8880 C.2     1  UNL1        0.3030
      3  O          7.3160   -2.4140   -3.2050 O.2     1  UNL1       -0.2520
      4  O          9.5850   -2.5620   -3.2500 O.3     1  UNL1       -0.4810
      5  H          9.7190   -2.9510   -4.1960 H       1  UNL1        0.2960
      6  C          7.0180   -0.0850   -2.1340 C.3     1  UNL1        0.0470
      7  C          6.4710    0.0470   -0.7580 C.2     1  UNL1       -0.0470
      8  C          6.5950   -0.9750    0.1620 C.2     1  UNL1        0.0040
      9  C          5.8180    1.1890   -0.3330 C.2     1  UNL1        0.0040
     10  C          6.0830   -0.8420    1.4390 C.2     1  UNL1        0.0000
     11  C          5.3070    1.3240    0.9390 C.2     1  UNL1        0.0000
     12  C          5.4320    0.3000    1.8560 C.2     1  UNL1        0.0000
@<TRIPOS>BOND
     1     5     4    1
     2     4     2    1
     3     3     2    2
     4     2     1    1
     5     1     6    1
     6     6     7    1
     7     7     9    2
     8     7     8    1
     9     9    11    1
    10     8    10    2
    11    11    12    2
    12    10    12    1
