@<TRIPOS>MOLECULE
/home/cewinharhar/GITHUB/reincatalyze/data/processed/docking_pred/2023-Apr-25-2033_maxeplen5_maxtrainstep200_exh16_gamma099_lrac3e-4_lrcr1e-3/6e6a373552f8835a6ba7a6c6fa001d8bbefa4498_ligand_2.pdbqt
 12 12 0 0 0
SMALL
GASTEIGER

@<TRIPOS>ATOM
      1  C          4.9800    1.7740    0.6920 C.3     1  UNL1        0.1270
      2  C          4.4530    1.1180    1.9160 C.2     1  UNL1        0.3030
      3  O          5.1340    0.2210    2.4720 O.2     1  UNL1       -0.2520
      4  O          3.2260    1.4600    2.4780 O.3     1  UNL1       -0.4810
      5  H          2.7010    0.8050    3.0770 H       1  UNL1        0.2960
      6  C          6.4810    1.7750    0.7880 C.3     1  UNL1        0.0470
      7  C          7.1210    1.0160   -0.3180 C.2     1  UNL1       -0.0470
      8  C          8.4450    1.2240   -0.6550 C.2     1  UNL1        0.0040
      9  C          6.4330    0.0730   -1.0580 C.2     1  UNL1        0.0040
     10  C          9.0310    0.5130   -1.6850 C.2     1  UNL1        0.0000
     11  C          7.0150   -0.6370   -2.0850 C.2     1  UNL1        0.0000
     12  C          8.3370   -0.4270   -2.4200 C.2     1  UNL1        0.0000
@<TRIPOS>BOND
     1    12    11    2
     2    12    10    1
     3    11     9    1
     4    10     8    2
     5     9     7    2
     6     8     7    1
     7     7     6    1
     8     1     6    1
     9     1     2    1
    10     2     3    2
    11     2     4    1
    12     4     5    1
