@<TRIPOS>MOLECULE
/home/cewinharhar/GITHUB/reincatalyze/data/processed/docking_pred/2023-Apr-25-2033_maxeplen5_maxtrainstep200_exh16_gamma099_lrac3e-4_lrcr1e-3/6e6a373552f8835a6ba7a6c6fa001d8bbefa4498_ligand_2.pdbqt
 12 12 0 0 0
SMALL
GASTEIGER

@<TRIPOS>ATOM
      1  C          5.4130    2.7870    0.0320 C.3     1  UNL1        0.1270
      2  C          6.1850    3.7820    0.8210 C.2     1  UNL1        0.3030
      3  O          6.1480    3.7320    2.0740 O.2     1  UNL1       -0.2520
      4  O          6.9560    4.7750    0.2220 O.3     1  UNL1       -0.4810
      5  H          7.9870    4.7580    0.2550 H       1  UNL1        0.2960
      6  C          4.9320    1.7290    0.9860 C.3     1  UNL1        0.0470
      7  C          5.7880    0.5140    0.9650 C.2     1  UNL1       -0.0470
      8  C          5.7860   -0.3810    2.0170 C.2     1  UNL1        0.0040
      9  C          6.6220    0.2200   -0.0980 C.2     1  UNL1        0.0040
     10  C          6.5860   -1.5080    1.9870 C.2     1  UNL1        0.0000
     11  C          7.4200   -0.9020   -0.1300 C.2     1  UNL1        0.0000
     12  C          7.4160   -1.7950    0.9230 C.2     1  UNL1        0.0000
@<TRIPOS>BOND
     1    11     9    1
     2    11    12    2
     3     9     7    2
     4     1     2    1
     5     1     6    1
     6     4     5    1
     7     4     2    1
     8     2     3    2
     9    12    10    1
    10     7     6    1
    11     7     8    1
    12    10     8    2
