@<TRIPOS>MOLECULE
/home/cewinharhar/GITHUB/reincatalyze/data/processed/docking_pred/2023-Apr-25-2033_maxeplen5_maxtrainstep200_exh16_gamma099_lrac3e-4_lrcr1e-3/6e6a373552f8835a6ba7a6c6fa001d8bbefa4498_ligand_2.pdbqt
 12 12 0 0 0
SMALL
GASTEIGER

@<TRIPOS>ATOM
      1  C          8.4610   -0.5590   -2.2050 C.3     1  UNL1        0.1270
      2  C          8.4770   -1.8560   -2.9300 C.2     1  UNL1        0.3030
      3  O          9.5680   -2.4530   -3.0940 O.2     1  UNL1       -0.2520
      4  O          7.3200   -2.4410   -3.4400 O.3     1  UNL1       -0.4810
      5  H          7.3540   -3.2760   -4.0440 H       1  UNL1        0.2960
      6  C          7.0430   -0.0600   -2.2000 C.3     1  UNL1        0.0470
      7  C          6.4960    0.0820   -0.8250 C.2     1  UNL1       -0.0470
      8  C          5.8380    1.2320   -0.4330 C.2     1  UNL1        0.0040
      9  C          6.6150   -0.9190    0.1210 C.2     1  UNL1        0.0040
     10  C          5.3330    1.3540    0.8480 C.2     1  UNL1        0.0000
     11  C          6.1130   -0.8000    1.3980 C.2     1  UNL1        0.0000
     12  C          5.4560    0.3500    1.7880 C.2     1  UNL1        0.0000
@<TRIPOS>BOND
     1     5     4    1
     2     4     2    1
     3     3     2    2
     4     2     1    1
     5     1     6    1
     6     6     7    1
     7     7     8    2
     8     7     9    1
     9     8    10    1
    10     9    11    2
    11    10    12    2
    12    11    12    1
