MODEL 1
REMARK VINA RESULT:      -7.3      0.000      0.000
REMARK SMILES O=C(O)CCc1ccccc1
REMARK SMILES IDX 4 1 2 2 1 3 3 4 5 6 6 7 7 8 11 9 8 10 10 11 9 12
REMARK H PARENT 3 5
REMARK Flexibility Score: inf
ROOT
ATOM      1  C   UNL     1       8.461  -0.559  -2.205  1.00  0.00     0.127 C 
ENDROOT
BRANCH   1   2
ATOM      2  C   UNL     1       8.477  -1.856  -2.930  1.00  0.00     0.303 C 
ATOM      3  O   UNL     1       9.568  -2.453  -3.094  1.00  0.00    -0.252 OA
BRANCH   2   4
ATOM      4  O   UNL     1       7.320  -2.441  -3.440  1.00  0.00    -0.481 OA
ATOM      5  H   UNL     1       7.354  -3.276  -4.044  1.00  0.00     0.296 HD
ENDBRANCH   2   4
ENDBRANCH   1   2
BRANCH   1   6
ATOM      6  C   UNL     1       7.043  -0.060  -2.200  1.00  0.00     0.047 C 
BRANCH   6   7
ATOM      7  C   UNL     1       6.496   0.082  -0.825  1.00  0.00    -0.047 A 
ATOM      8  C   UNL     1       5.838   1.232  -0.433  1.00  0.00     0.004 A 
ATOM      9  C   UNL     1       6.615  -0.919   0.121  1.00  0.00     0.004 A 
ATOM     10  C   UNL     1       5.333   1.354   0.848  1.00  0.00     0.000 A 
ATOM     11  C   UNL     1       6.113  -0.800   1.398  1.00  0.00     0.000 A 
ATOM     12  C   UNL     1       5.456   0.350   1.788  1.00  0.00     0.000 A 
ENDBRANCH   6   7
ENDBRANCH   1   6
TORSDOF 4
ENDMDL
MODEL 2
REMARK VINA RESULT:      -7.2      0.120      1.718
REMARK SMILES O=C(O)CCc1ccccc1
REMARK SMILES IDX 4 1 2 2 1 3 3 4 5 6 6 7 7 8 11 9 8 10 10 11 9 12
REMARK H PARENT 3 5
REMARK Flexibility Score: inf
ROOT
ATOM      1  C   UNL     1       8.426  -0.613  -2.144  1.00  0.00     0.127 C 
ENDROOT
BRANCH   1   2
ATOM      2  C   UNL     1       8.416  -1.899  -2.888  1.00  0.00     0.303 C 
ATOM      3  O   UNL     1       7.316  -2.414  -3.205  1.00  0.00    -0.252 OA
BRANCH   2   4
ATOM      4  O   UNL     1       9.585  -2.562  -3.250  1.00  0.00    -0.481 OA
ATOM      5  H   UNL     1       9.719  -2.951  -4.196  1.00  0.00     0.296 HD
ENDBRANCH   2   4
ENDBRANCH   1   2
BRANCH   1   6
ATOM      6  C   UNL     1       7.018  -0.085  -2.134  1.00  0.00     0.047 C 
BRANCH   6   7
ATOM      7  C   UNL     1       6.471   0.047  -0.758  1.00  0.00    -0.047 A 
ATOM      8  C   UNL     1       6.595  -0.975   0.162  1.00  0.00     0.004 A 
ATOM      9  C   UNL     1       5.818   1.189  -0.333  1.00  0.00     0.004 A 
ATOM     10  C   UNL     1       6.083  -0.842   1.439  1.00  0.00     0.000 A 
ATOM     11  C   UNL     1       5.307   1.324   0.939  1.00  0.00     0.000 A 
ATOM     12  C   UNL     1       5.432   0.300   1.856  1.00  0.00     0.000 A 
ENDBRANCH   6   7
ENDBRANCH   1   6
TORSDOF 4
ENDMDL
MODEL 3
REMARK VINA RESULT:      -6.8      3.386      5.072
REMARK SMILES O=C(O)CCc1ccccc1
REMARK SMILES IDX 4 1 2 2 1 3 3 4 5 6 6 7 7 8 11 9 8 10 10 11 9 12
REMARK H PARENT 3 5
REMARK Flexibility Score: inf
ROOT
ATOM      1  C   UNL     1       4.980   1.774   0.692  1.00  0.00     0.127 C 
ENDROOT
BRANCH   1   2
ATOM      2  C   UNL     1       4.453   1.118   1.916  1.00  0.00     0.303 C 
ATOM      3  O   UNL     1       5.134   0.221   2.472  1.00  0.00    -0.252 OA
BRANCH   2   4
ATOM      4  O   UNL     1       3.226   1.460   2.478  1.00  0.00    -0.481 OA
ATOM      5  H   UNL     1       2.701   0.805   3.077  1.00  0.00     0.296 HD
ENDBRANCH   2   4
ENDBRANCH   1   2
BRANCH   1   6
ATOM      6  C   UNL     1       6.481   1.775   0.788  1.00  0.00     0.047 C 
BRANCH   6   7
ATOM      7  C   UNL     1       7.121   1.016  -0.318  1.00  0.00    -0.047 A 
ATOM      8  C   UNL     1       8.445   1.224  -0.655  1.00  0.00     0.004 A 
ATOM      9  C   UNL     1       6.433   0.073  -1.058  1.00  0.00     0.004 A 
ATOM     10  C   UNL     1       9.031   0.513  -1.685  1.00  0.00     0.000 A 
ATOM     11  C   UNL     1       7.015  -0.637  -2.085  1.00  0.00     0.000 A 
ATOM     12  C   UNL     1       8.337  -0.427  -2.420  1.00  0.00     0.000 A 
ENDBRANCH   6   7
ENDBRANCH   1   6
TORSDOF 4
ENDMDL
MODEL 4
REMARK VINA RESULT:      -6.6      3.819      4.998
REMARK SMILES O=C(O)CCc1ccccc1
REMARK SMILES IDX 4 1 2 2 1 3 3 4 5 6 6 7 7 8 11 9 8 10 10 11 9 12
REMARK H PARENT 3 5
REMARK Flexibility Score: inf
ROOT
ATOM      1  C   UNL     1       5.413   2.787   0.032  1.00  0.00     0.127 C 
ENDROOT
BRANCH   1   2
ATOM      2  C   UNL     1       6.185   3.782   0.821  1.00  0.00     0.303 C 
ATOM      3  O   UNL     1       6.148   3.732   2.074  1.00  0.00    -0.252 OA
BRANCH   2   4
ATOM      4  O   UNL     1       6.956   4.775   0.222  1.00  0.00    -0.481 OA
ATOM      5  H   UNL     1       7.987   4.758   0.255  1.00  0.00     0.296 HD
ENDBRANCH   2   4
ENDBRANCH   1   2
BRANCH   1   6
ATOM      6  C   UNL     1       4.932   1.729   0.986  1.00  0.00     0.047 C 
BRANCH   6   7
ATOM      7  C   UNL     1       5.788   0.514   0.965  1.00  0.00    -0.047 A 
ATOM      8  C   UNL     1       5.786  -0.381   2.017  1.00  0.00     0.004 A 
ATOM      9  C   UNL     1       6.622   0.220  -0.098  1.00  0.00     0.004 A 
ATOM     10  C   UNL     1       6.586  -1.508   1.987  1.00  0.00     0.000 A 
ATOM     11  C   UNL     1       7.420  -0.902  -0.130  1.00  0.00     0.000 A 
ATOM     12  C   UNL     1       7.416  -1.795   0.923  1.00  0.00     0.000 A 
ENDBRANCH   6   7
ENDBRANCH   1   6
TORSDOF 4
ENDMDL
MODEL 5
REMARK VINA RESULT:      -6.6      1.991      2.325
REMARK SMILES O=C(O)CCc1ccccc1
REMARK SMILES IDX 4 1 2 2 1 3 3 4 5 6 6 7 7 8 11 9 8 10 10 11 9 12
REMARK H PARENT 3 5
REMARK Flexibility Score: inf
ROOT
ATOM      1  C   UNL     1       8.316   0.347  -1.990  1.00  0.00     0.127 C 
ENDROOT
BRANCH   1   2
ATOM      2  C   UNL     1       9.485   0.400  -1.074  1.00  0.00     0.303 C 
ATOM      3  O   UNL     1       9.526  -0.375  -0.088  1.00  0.00    -0.252 OA
BRANCH   2   4
ATOM      4  O   UNL     1      10.547   1.280  -1.268  1.00  0.00    -0.481 OA
ATOM      5  H   UNL     1      11.188   1.191  -2.070  1.00  0.00     0.296 HD
ENDBRANCH   2   4
ENDBRANCH   1   2
BRANCH   1   6
ATOM      6  C   UNL     1       7.296  -0.567  -1.369  1.00  0.00     0.047 C 
BRANCH   6   7
ATOM      7  C   UNL     1       6.435   0.133  -0.380  1.00  0.00    -0.047 A 
ATOM      8  C   UNL     1       5.875   1.364  -0.662  1.00  0.00     0.004 A 
ATOM      9  C   UNL     1       6.151  -0.407   0.861  1.00  0.00     0.004 A 
ATOM     10  C   UNL     1       5.076   2.006   0.265  1.00  0.00     0.000 A 
ATOM     11  C   UNL     1       5.355   0.230   1.786  1.00  0.00     0.000 A 
ATOM     12  C   UNL     1       4.798   1.460   1.501  1.00  0.00     0.000 A 
ENDBRANCH   6   7
ENDBRANCH   1   6
TORSDOF 4
ENDMDL
