@<TRIPOS>MOLECULE
/home/cewinharhar/GITHUB/reincatalyze/data/processed/docking_pred/2023-Apr-25-2033_maxeplen5_maxtrainstep200_exh16_gamma099_lrac3e-4_lrcr1e-3/7076afde4386affa59e586c5ec9b2181426a643f_ligand_2.pdbqt
 12 12 0 0 0
SMALL
GASTEIGER

@<TRIPOS>ATOM
      1  C          5.0080    1.8000    0.7200 C.3     1  UNL1        0.1270
      2  C          4.4620    1.1240    1.9260 C.2     1  UNL1        0.3030
      3  O          5.1320    0.2170    2.4760 O.2     1  UNL1       -0.2520
      4  O          3.2270    1.4580    2.4750 O.3     1  UNL1       -0.4810
      5  H          3.1460    1.8950    3.4060 H       1  UNL1        0.2960
      6  C          6.5080    1.7570    0.8180 C.3     1  UNL1        0.0470
      7  C          7.1300    1.0170   -0.3110 C.2     1  UNL1       -0.0470
      8  C          6.4020    0.1150   -1.0620 C.2     1  UNL1        0.0040
      9  C          8.4550    1.1940   -0.6650 C.2     1  UNL1        0.0040
     10  C          6.9900   -0.5680   -2.1100 C.2     1  UNL1        0.0000
     11  C          9.0430    0.5150   -1.7090 C.2     1  UNL1        0.0000
     12  C          8.3130   -0.3870   -2.4580 C.2     1  UNL1        0.0000
@<TRIPOS>BOND
     1    12    10    2
     2    12    11    1
     3    10     8    1
     4    11     9    2
     5     8     7    2
     6     9     7    1
     7     7     6    1
     8     1     6    1
     9     1     2    1
    10     2     4    1
    11     2     3    2
    12     4     5    1
