@<TRIPOS>MOLECULE
/home/cewinharhar/GITHUB/reincatalyze/data/processed/docking_pred/2023-Apr-25-2033_maxeplen5_maxtrainstep200_exh16_gamma099_lrac3e-4_lrcr1e-3/7076afde4386affa59e586c5ec9b2181426a643f_ligand_2.pdbqt
 12 12 0 0 0
SMALL
GASTEIGER

@<TRIPOS>ATOM
      1  C          8.3750   -0.8290   -1.9140 C.3     1  UNL1        0.1270
      2  C          8.3970   -1.9840   -2.8480 C.2     1  UNL1        0.3030
      3  O          7.3150   -2.4240   -3.3060 O.2     1  UNL1       -0.2520
      4  O          9.5810   -2.6040   -3.2410 O.3     1  UNL1       -0.4810
      5  H          9.7470   -2.8900   -4.2190 H       1  UNL1        0.2960
      6  C          7.7390   -1.2950   -0.6340 C.3     1  UNL1        0.0470
      7  C          6.7850   -0.2990   -0.0790 C.2     1  UNL1       -0.0470
      8  C          6.3350    0.7620   -0.8400 C.2     1  UNL1        0.0040
      9  C          6.3030   -0.3840    1.2140 C.2     1  UNL1        0.0040
     10  C          5.4480    1.6820   -0.3140 C.2     1  UNL1        0.0000
     11  C          5.4180    0.5310    1.7400 C.2     1  UNL1        0.0000
     12  C          4.9710    1.5910    0.9770 C.2     1  UNL1        0.0000
@<TRIPOS>BOND
     1     5     4    1
     2     3     2    2
     3     4     2    1
     4     2     1    1
     5     1     6    1
     6     8    10    1
     7     8     7    2
     8     6     7    1
     9    10    12    2
    10     7     9    1
    11    12    11    1
    12     9    11    2
