@<TRIPOS>MOLECULE
/home/cewinharhar/GITHUB/reincatalyze/data/processed/docking_pred/2023-Apr-25-2033_maxeplen5_maxtrainstep200_exh16_gamma099_lrac3e-4_lrcr1e-3/7076afde4386affa59e586c5ec9b2181426a643f_ligand_2.pdbqt
 12 12 0 0 0
SMALL
GASTEIGER

@<TRIPOS>ATOM
      1  C          8.4490   -0.6890   -2.0310 C.3     1  UNL1        0.1270
      2  C          8.4160   -1.9230   -2.8590 C.2     1  UNL1        0.3030
      3  O          7.3080   -2.3980   -3.2060 O.2     1  UNL1       -0.2520
      4  O          9.5740   -2.5770   -3.2710 O.3     1  UNL1       -0.4810
      5  H         10.4680   -2.0780   -3.3900 H       1  UNL1        0.2960
      6  C          7.0810   -0.0670   -2.0910 C.3     1  UNL1        0.0470
      7  C          6.4760    0.1060   -0.7440 C.2     1  UNL1       -0.0470
      8  C          6.5680   -0.8840    0.2140 C.2     1  UNL1        0.0040
      9  C          5.8000    1.2570   -0.3850 C.2     1  UNL1        0.0040
     10  C          6.0030   -0.7120    1.4630 C.2     1  UNL1        0.0000
     11  C          5.2350    1.4310    0.8590 C.2     1  UNL1        0.0000
     12  C          5.3280    0.4390    1.8150 C.2     1  UNL1        0.0000
@<TRIPOS>BOND
     1     5     4    1
     2     4     2    1
     3     3     2    2
     4     2     1    1
     5     6     1    1
     6     6     7    1
     7     7     9    2
     8     7     8    1
     9     9    11    1
    10     8    10    2
    11    11    12    2
    12    10    12    1
