@<TRIPOS>MOLECULE
/home/cewinharhar/GITHUB/reincatalyze/data/processed/docking_pred/2023-Apr-25-2033_maxeplen5_maxtrainstep200_exh16_gamma099_lrac3e-4_lrcr1e-3/7076afde4386affa59e586c5ec9b2181426a643f_ligand_2.pdbqt
 12 12 0 0 0
SMALL
GASTEIGER

@<TRIPOS>ATOM
      1  C          8.2190   -1.5480    1.1810 C.3     1  UNL1        0.1270
      2  C          8.4860   -2.7480    0.3470 C.2     1  UNL1        0.3030
      3  O          9.1130   -3.7140    0.8460 O.2     1  UNL1       -0.2520
      4  O          8.0650   -2.8470   -0.9770 O.3     1  UNL1       -0.4810
      5  H          7.4450   -2.1430   -1.4050 H       1  UNL1        0.2960
      6  C          6.7300   -1.4450    1.3620 C.3     1  UNL1        0.0470
      7  C          6.1760   -0.1830    0.8050 C.2     1  UNL1       -0.0470
      8  C          5.3980    0.6580    1.5760 C.2     1  UNL1        0.0040
      9  C          6.4110    0.2110   -0.4990 C.2     1  UNL1        0.0040
     10  C          4.8880    1.8300    1.0480 C.2     1  UNL1        0.0000
     11  C          5.9050    1.3770   -1.0270 C.2     1  UNL1        0.0000
     12  C          5.1270    2.2160   -0.2550 C.2     1  UNL1        0.0000
@<TRIPOS>BOND
     1     5     4    1
     2    11     9    1
     3    11    12    2
     4     4     2    1
     5     9     7    2
     6    12    10    1
     7     2     3    2
     8     2     1    1
     9     7     6    1
    10     7     8    1
    11    10     8    2
    12     1     6    1
