MODEL 1
REMARK VINA RESULT:      -7.3      0.000      0.000
REMARK SMILES O=C(O)CCc1ccccc1
REMARK SMILES IDX 4 1 2 2 1 3 3 4 5 6 6 7 7 8 11 9 8 10 10 11 9 12
REMARK H PARENT 3 5
REMARK Flexibility Score: inf
ROOT
ATOM      1  C   UNL     1       8.464  -0.597  -2.182  1.00  0.00     0.127 C 
ENDROOT
BRANCH   1   2
ATOM      2  C   UNL     1       8.473  -1.891  -2.913  1.00  0.00     0.303 C 
ATOM      3  O   UNL     1       9.562  -2.490  -3.084  1.00  0.00    -0.252 OA
BRANCH   2   4
ATOM      4  O   UNL     1       7.312  -2.471  -3.419  1.00  0.00    -0.481 OA
ATOM      5  H   UNL     1       6.757  -3.145  -2.871  1.00  0.00     0.296 HD
ENDBRANCH   2   4
ENDBRANCH   1   2
BRANCH   1   6
ATOM      6  C   UNL     1       7.049  -0.090  -2.176  1.00  0.00     0.047 C 
BRANCH   6   7
ATOM      7  C   UNL     1       6.502   0.050  -0.801  1.00  0.00    -0.047 A 
ATOM      8  C   UNL     1       5.850   1.202  -0.404  1.00  0.00     0.004 A 
ATOM      9  C   UNL     1       6.615  -0.955   0.141  1.00  0.00     0.004 A 
ATOM     10  C   UNL     1       5.345   1.322   0.877  1.00  0.00     0.000 A 
ATOM     11  C   UNL     1       6.112  -0.838   1.418  1.00  0.00     0.000 A 
ATOM     12  C   UNL     1       5.462   0.314   1.812  1.00  0.00     0.000 A 
ENDBRANCH   6   7
ENDBRANCH   1   6
TORSDOF 4
ENDMDL
MODEL 2
REMARK VINA RESULT:      -7.3      0.152      1.721
REMARK SMILES O=C(O)CCc1ccccc1
REMARK SMILES IDX 4 1 2 2 1 3 3 4 5 6 6 7 7 8 11 9 8 10 10 11 9 12
REMARK H PARENT 3 5
REMARK Flexibility Score: inf
ROOT
ATOM      1  C   UNL     1       8.449  -0.689  -2.031  1.00  0.00     0.127 C 
ENDROOT
BRANCH   1   2
ATOM      2  C   UNL     1       8.416  -1.923  -2.859  1.00  0.00     0.303 C 
ATOM      3  O   UNL     1       7.308  -2.398  -3.206  1.00  0.00    -0.252 OA
BRANCH   2   4
ATOM      4  O   UNL     1       9.574  -2.577  -3.271  1.00  0.00    -0.481 OA
ATOM      5  H   UNL     1      10.468  -2.078  -3.390  1.00  0.00     0.296 HD
ENDBRANCH   2   4
ENDBRANCH   1   2
BRANCH   1   6
ATOM      6  C   UNL     1       7.081  -0.067  -2.091  1.00  0.00     0.047 C 
BRANCH   6   7
ATOM      7  C   UNL     1       6.476   0.106  -0.744  1.00  0.00    -0.047 A 
ATOM      8  C   UNL     1       6.568  -0.884   0.214  1.00  0.00     0.004 A 
ATOM      9  C   UNL     1       5.800   1.257  -0.385  1.00  0.00     0.004 A 
ATOM     10  C   UNL     1       6.003  -0.712   1.463  1.00  0.00     0.000 A 
ATOM     11  C   UNL     1       5.235   1.431   0.859  1.00  0.00     0.000 A 
ATOM     12  C   UNL     1       5.328   0.439   1.815  1.00  0.00     0.000 A 
ENDBRANCH   6   7
ENDBRANCH   1   6
TORSDOF 4
ENDMDL
MODEL 3
REMARK VINA RESULT:      -7.0      0.645      1.485
REMARK SMILES O=C(O)CCc1ccccc1
REMARK SMILES IDX 4 1 2 2 1 3 3 4 5 6 6 7 7 8 11 9 8 10 10 11 9 12
REMARK H PARENT 3 5
REMARK Flexibility Score: inf
ROOT
ATOM      1  C   UNL     1       8.375  -0.829  -1.914  1.00  0.00     0.127 C 
ENDROOT
BRANCH   1   2
ATOM      2  C   UNL     1       8.397  -1.984  -2.848  1.00  0.00     0.303 C 
ATOM      3  O   UNL     1       7.315  -2.424  -3.306  1.00  0.00    -0.252 OA
BRANCH   2   4
ATOM      4  O   UNL     1       9.581  -2.604  -3.241  1.00  0.00    -0.481 OA
ATOM      5  H   UNL     1       9.747  -2.890  -4.219  1.00  0.00     0.296 HD
ENDBRANCH   2   4
ENDBRANCH   1   2
BRANCH   1   6
ATOM      6  C   UNL     1       7.739  -1.295  -0.634  1.00  0.00     0.047 C 
BRANCH   6   7
ATOM      7  C   UNL     1       6.785  -0.299  -0.079  1.00  0.00    -0.047 A 
ATOM      8  C   UNL     1       6.335   0.762  -0.840  1.00  0.00     0.004 A 
ATOM      9  C   UNL     1       6.303  -0.384   1.214  1.00  0.00     0.004 A 
ATOM     10  C   UNL     1       5.448   1.682  -0.314  1.00  0.00     0.000 A 
ATOM     11  C   UNL     1       5.418   0.531   1.740  1.00  0.00     0.000 A 
ATOM     12  C   UNL     1       4.971   1.591   0.977  1.00  0.00     0.000 A 
ENDBRANCH   6   7
ENDBRANCH   1   6
TORSDOF 4
ENDMDL
MODEL 4
REMARK VINA RESULT:      -6.8      3.386      5.103
REMARK SMILES O=C(O)CCc1ccccc1
REMARK SMILES IDX 4 1 2 2 1 3 3 4 5 6 6 7 7 8 11 9 8 10 10 11 9 12
REMARK H PARENT 3 5
REMARK Flexibility Score: inf
ROOT
ATOM      1  C   UNL     1       5.008   1.800   0.720  1.00  0.00     0.127 C 
ENDROOT
BRANCH   1   2
ATOM      2  C   UNL     1       4.462   1.124   1.926  1.00  0.00     0.303 C 
ATOM      3  O   UNL     1       5.132   0.217   2.476  1.00  0.00    -0.252 OA
BRANCH   2   4
ATOM      4  O   UNL     1       3.227   1.458   2.475  1.00  0.00    -0.481 OA
ATOM      5  H   UNL     1       3.146   1.895   3.406  1.00  0.00     0.296 HD
ENDBRANCH   2   4
ENDBRANCH   1   2
BRANCH   1   6
ATOM      6  C   UNL     1       6.508   1.757   0.818  1.00  0.00     0.047 C 
BRANCH   6   7
ATOM      7  C   UNL     1       7.130   1.017  -0.311  1.00  0.00    -0.047 A 
ATOM      8  C   UNL     1       6.402   0.115  -1.062  1.00  0.00     0.004 A 
ATOM      9  C   UNL     1       8.455   1.194  -0.665  1.00  0.00     0.004 A 
ATOM     10  C   UNL     1       6.990  -0.568  -2.110  1.00  0.00     0.000 A 
ATOM     11  C   UNL     1       9.043   0.515  -1.709  1.00  0.00     0.000 A 
ATOM     12  C   UNL     1       8.313  -0.387  -2.458  1.00  0.00     0.000 A 
ENDBRANCH   6   7
ENDBRANCH   1   6
TORSDOF 4
ENDMDL
MODEL 5
REMARK VINA RESULT:      -6.6      1.884      2.865
REMARK SMILES O=C(O)CCc1ccccc1
REMARK SMILES IDX 4 1 2 2 1 3 3 4 5 6 6 7 7 8 11 9 8 10 10 11 9 12
REMARK H PARENT 3 5
REMARK Flexibility Score: inf
ROOT
ATOM      1  C   UNL     1       8.219  -1.548   1.181  1.00  0.00     0.127 C 
ENDROOT
BRANCH   1   2
ATOM      2  C   UNL     1       8.486  -2.748   0.347  1.00  0.00     0.303 C 
ATOM      3  O   UNL     1       9.113  -3.714   0.846  1.00  0.00    -0.252 OA
BRANCH   2   4
ATOM      4  O   UNL     1       8.065  -2.847  -0.977  1.00  0.00    -0.481 OA
ATOM      5  H   UNL     1       7.445  -2.143  -1.405  1.00  0.00     0.296 HD
ENDBRANCH   2   4
ENDBRANCH   1   2
BRANCH   1   6
ATOM      6  C   UNL     1       6.730  -1.445   1.362  1.00  0.00     0.047 C 
BRANCH   6   7
ATOM      7  C   UNL     1       6.176  -0.183   0.805  1.00  0.00    -0.047 A 
ATOM      8  C   UNL     1       5.398   0.658   1.576  1.00  0.00     0.004 A 
ATOM      9  C   UNL     1       6.411   0.211  -0.499  1.00  0.00     0.004 A 
ATOM     10  C   UNL     1       4.888   1.830   1.048  1.00  0.00     0.000 A 
ATOM     11  C   UNL     1       5.905   1.377  -1.027  1.00  0.00     0.000 A 
ATOM     12  C   UNL     1       5.127   2.216  -0.255  1.00  0.00     0.000 A 
ENDBRANCH   6   7
ENDBRANCH   1   6
TORSDOF 4
ENDMDL
