@<TRIPOS>MOLECULE
/home/cewinharhar/GITHUB/reincatalyze/data/processed/docking_pred/2023-Apr-25-2033_maxeplen5_maxtrainstep200_exh16_gamma099_lrac3e-4_lrcr1e-3/7076afde4386affa59e586c5ec9b2181426a643f_ligand_2.pdbqt
 12 12 0 0 0
SMALL
GASTEIGER

@<TRIPOS>ATOM
      1  C          8.4640   -0.5970   -2.1820 C.3     1  UNL1        0.1270
      2  C          8.4730   -1.8910   -2.9130 C.2     1  UNL1        0.3030
      3  O          9.5620   -2.4900   -3.0840 O.2     1  UNL1       -0.2520
      4  O          7.3120   -2.4710   -3.4190 O.3     1  UNL1       -0.4810
      5  H          6.7570   -3.1450   -2.8710 H       1  UNL1        0.2960
      6  C          7.0490   -0.0900   -2.1760 C.3     1  UNL1        0.0470
      7  C          6.5020    0.0500   -0.8010 C.2     1  UNL1       -0.0470
      8  C          5.8500    1.2020   -0.4040 C.2     1  UNL1        0.0040
      9  C          6.6150   -0.9550    0.1410 C.2     1  UNL1        0.0040
     10  C          5.3450    1.3220    0.8770 C.2     1  UNL1        0.0000
     11  C          6.1120   -0.8380    1.4180 C.2     1  UNL1        0.0000
     12  C          5.4620    0.3140    1.8120 C.2     1  UNL1        0.0000
@<TRIPOS>BOND
     1     4     2    1
     2     4     5    1
     3     3     2    2
     4     2     1    1
     5     1     6    1
     6     6     7    1
     7     7     8    2
     8     7     9    1
     9     8    10    1
    10     9    11    2
    11    10    12    2
    12    11    12    1
