MODEL 1
REMARK VINA RESULT:      -7.3      0.000      0.000
REMARK SMILES O=C(O)CCc1ccccc1
REMARK SMILES IDX 4 1 2 2 1 3 3 4 5 6 6 7 7 8 11 9 8 10 10 11 9 12
REMARK H PARENT 3 5
REMARK Flexibility Score: inf
ROOT
ATOM      1  C   UNL     1       8.444  -0.596  -2.139  1.00  0.00     0.127 C 
ENDROOT
BRANCH   1   2
ATOM      2  C   UNL     1       8.461  -1.875  -2.894  1.00  0.00     0.303 C 
ATOM      3  O   UNL     1       9.556  -2.459  -3.085  1.00  0.00    -0.252 OA
BRANCH   2   4
ATOM      4  O   UNL     1       7.304  -2.459  -3.404  1.00  0.00    -0.481 OA
ATOM      5  H   UNL     1       6.990  -3.395  -3.106  1.00  0.00     0.296 HD
ENDBRANCH   2   4
ENDBRANCH   1   2
BRANCH   1   6
ATOM      6  C   UNL     1       7.028  -0.089  -2.140  1.00  0.00     0.047 C 
BRANCH   6   7
ATOM      7  C   UNL     1       6.475   0.053  -0.767  1.00  0.00    -0.047 A 
ATOM      8  C   UNL     1       5.828   1.208  -0.373  1.00  0.00     0.004 A 
ATOM      9  C   UNL     1       6.578  -0.953   0.175  1.00  0.00     0.004 A 
ATOM     10  C   UNL     1       5.317   1.330   0.905  1.00  0.00     0.000 A 
ATOM     11  C   UNL     1       6.070  -0.834   1.449  1.00  0.00     0.000 A 
ATOM     12  C   UNL     1       5.424   0.321   1.841  1.00  0.00     0.000 A 
ENDBRANCH   6   7
ENDBRANCH   1   6
TORSDOF 4
ENDMDL
MODEL 2
REMARK VINA RESULT:      -7.3      0.122      1.718
REMARK SMILES O=C(O)CCc1ccccc1
REMARK SMILES IDX 4 1 2 2 1 3 3 4 5 6 6 7 7 8 11 9 8 10 10 11 9 12
REMARK H PARENT 3 5
REMARK Flexibility Score: inf
ROOT
ATOM      1  C   UNL     1       8.454  -0.654  -2.083  1.00  0.00     0.127 C 
ENDROOT
BRANCH   1   2
ATOM      2  C   UNL     1       8.420  -1.911  -2.874  1.00  0.00     0.303 C 
ATOM      3  O   UNL     1       7.312  -2.400  -3.200  1.00  0.00    -0.252 OA
BRANCH   2   4
ATOM      4  O   UNL     1       9.578  -2.575  -3.272  1.00  0.00    -0.481 OA
ATOM      5  H   UNL     1       9.543  -3.458  -3.803  1.00  0.00     0.296 HD
ENDBRANCH   2   4
ENDBRANCH   1   2
BRANCH   1   6
ATOM      6  C   UNL     1       7.075  -0.054  -2.127  1.00  0.00     0.047 C 
BRANCH   6   7
ATOM      7  C   UNL     1       6.484   0.110  -0.774  1.00  0.00    -0.047 A 
ATOM      8  C   UNL     1       6.589  -0.885   0.179  1.00  0.00     0.004 A 
ATOM      9  C   UNL     1       5.806   1.256  -0.401  1.00  0.00     0.004 A 
ATOM     10  C   UNL     1       6.036  -0.722   1.434  1.00  0.00     0.000 A 
ATOM     11  C   UNL     1       5.254   1.421   0.849  1.00  0.00     0.000 A 
ATOM     12  C   UNL     1       5.360   0.425   1.799  1.00  0.00     0.000 A 
ENDBRANCH   6   7
ENDBRANCH   1   6
TORSDOF 4
ENDMDL
MODEL 3
REMARK VINA RESULT:      -7.1      0.675      1.620
REMARK SMILES O=C(O)CCc1ccccc1
REMARK SMILES IDX 4 1 2 2 1 3 3 4 5 6 6 7 7 8 11 9 8 10 10 11 9 12
REMARK H PARENT 3 5
REMARK Flexibility Score: inf
ROOT
ATOM      1  C   UNL     1       8.406  -1.072  -1.673  1.00  0.00     0.127 C 
ENDROOT
BRANCH   1   2
ATOM      2  C   UNL     1       8.456  -2.071  -2.772  1.00  0.00     0.303 C 
ATOM      3  O   UNL     1       9.567  -2.534  -3.128  1.00  0.00    -0.252 OA
BRANCH   2   4
ATOM      4  O   UNL     1       7.312  -2.519  -3.427  1.00  0.00    -0.481 OA
ATOM      5  H   UNL     1       7.151  -3.519  -3.619  1.00  0.00     0.296 HD
ENDBRANCH   2   4
ENDBRANCH   1   2
BRANCH   1   6
ATOM      6  C   UNL     1       7.390  -1.550  -0.673  1.00  0.00     0.047 C 
BRANCH   6   7
ATOM      7  C   UNL     1       6.576  -0.438  -0.115  1.00  0.00    -0.047 A 
ATOM      8  C   UNL     1       6.115  -0.472   1.187  1.00  0.00     0.004 A 
ATOM      9  C   UNL     1       6.245   0.678  -0.861  1.00  0.00     0.004 A 
ATOM     10  C   UNL     1       5.359   0.567   1.696  1.00  0.00     0.000 A 
ATOM     11  C   UNL     1       5.493   1.715  -0.356  1.00  0.00     0.000 A 
ATOM     12  C   UNL     1       5.032   1.677   0.944  1.00  0.00     0.000 A 
ENDBRANCH   6   7
ENDBRANCH   1   6
TORSDOF 4
ENDMDL
MODEL 4
REMARK VINA RESULT:      -6.8      3.382      5.113
REMARK SMILES O=C(O)CCc1ccccc1
REMARK SMILES IDX 4 1 2 2 1 3 3 4 5 6 6 7 7 8 11 9 8 10 10 11 9 12
REMARK H PARENT 3 5
REMARK Flexibility Score: inf
ROOT
ATOM      1  C   UNL     1       5.052   1.804   0.781  1.00  0.00     0.127 C 
ENDROOT
BRANCH   1   2
ATOM      2  C   UNL     1       4.451   1.114   1.951  1.00  0.00     0.303 C 
ATOM      3  O   UNL     1       5.076   0.172   2.494  1.00  0.00    -0.252 OA
BRANCH   2   4
ATOM      4  O   UNL     1       3.212   1.474   2.475  1.00  0.00    -0.481 OA
ATOM      5  H   UNL     1       2.399   0.839   2.435  1.00  0.00     0.296 HD
ENDBRANCH   2   4
ENDBRANCH   1   2
BRANCH   1   6
ATOM      6  C   UNL     1       6.546   1.665   0.891  1.00  0.00     0.047 C 
BRANCH   6   7
ATOM      7  C   UNL     1       7.135   0.941  -0.265  1.00  0.00    -0.047 A 
ATOM      8  C   UNL     1       6.425  -0.036  -0.935  1.00  0.00     0.004 A 
ATOM      9  C   UNL     1       8.411   1.206  -0.726  1.00  0.00     0.004 A 
ATOM     10  C   UNL     1       6.982  -0.703  -2.010  1.00  0.00     0.000 A 
ATOM     11  C   UNL     1       8.969   0.543  -1.797  1.00  0.00     0.000 A 
ATOM     12  C   UNL     1       8.257  -0.433  -2.464  1.00  0.00     0.000 A 
ENDBRANCH   6   7
ENDBRANCH   1   6
TORSDOF 4
ENDMDL
MODEL 5
REMARK VINA RESULT:      -6.6      1.929      2.661
REMARK SMILES O=C(O)CCc1ccccc1
REMARK SMILES IDX 4 1 2 2 1 3 3 4 5 6 6 7 7 8 11 9 8 10 10 11 9 12
REMARK H PARENT 3 5
REMARK Flexibility Score: inf
ROOT
ATOM      1  C   UNL     1       8.285   0.213  -2.208  1.00  0.00     0.127 C 
ENDROOT
BRANCH   1   2
ATOM      2  C   UNL     1       9.417   0.355  -1.256  1.00  0.00     0.303 C 
ATOM      3  O   UNL     1       9.461  -0.384  -0.243  1.00  0.00    -0.252 OA
BRANCH   2   4
ATOM      4  O   UNL     1      10.439   1.282  -1.443  1.00  0.00    -0.481 OA
ATOM      5  H   UNL     1      10.353   2.259  -1.124  1.00  0.00     0.296 HD
ENDBRANCH   2   4
ENDBRANCH   1   2
BRANCH   1   6
ATOM      6  C   UNL     1       7.210  -0.581  -1.518  1.00  0.00     0.047 C 
BRANCH   6   7
ATOM      7  C   UNL     1       6.391   0.252  -0.599  1.00  0.00    -0.047 A 
ATOM      8  C   UNL     1       6.131  -0.155   0.695  1.00  0.00     0.004 A 
ATOM      9  C   UNL     1       5.854   1.465  -0.987  1.00  0.00     0.004 A 
ATOM     10  C   UNL     1       5.368   0.627   1.541  1.00  0.00     0.000 A 
ATOM     11  C   UNL     1       5.094   2.246  -0.146  1.00  0.00     0.000 A 
ATOM     12  C   UNL     1       4.835   1.836   1.146  1.00  0.00     0.000 A 
ENDBRANCH   6   7
ENDBRANCH   1   6
TORSDOF 4
ENDMDL
