@<TRIPOS>MOLECULE
/home/cewinharhar/GITHUB/reincatalyze/data/processed/docking_pred/2023-Apr-25-2033_maxeplen5_maxtrainstep200_exh16_gamma099_lrac3e-4_lrcr1e-3/72c4800fcc396c08a923544a0defa9269110c5e0_ligand_2.pdbqt
 12 12 0 0 0
SMALL
GASTEIGER

@<TRIPOS>ATOM
      1  C          8.4060   -1.0720   -1.6730 C.3     1  UNL1        0.1270
      2  C          8.4560   -2.0710   -2.7720 C.2     1  UNL1        0.3030
      3  O          9.5670   -2.5340   -3.1280 O.2     1  UNL1       -0.2520
      4  O          7.3120   -2.5190   -3.4270 O.3     1  UNL1       -0.4810
      5  H          7.1510   -3.5190   -3.6190 H       1  UNL1        0.2960
      6  C          7.3900   -1.5500   -0.6730 C.3     1  UNL1        0.0470
      7  C          6.5760   -0.4380   -0.1150 C.2     1  UNL1       -0.0470
      8  C          6.1150   -0.4720    1.1870 C.2     1  UNL1        0.0040
      9  C          6.2450    0.6780   -0.8610 C.2     1  UNL1        0.0040
     10  C          5.3590    0.5670    1.6960 C.2     1  UNL1        0.0000
     11  C          5.4930    1.7150   -0.3560 C.2     1  UNL1        0.0000
     12  C          5.0320    1.6770    0.9440 C.2     1  UNL1        0.0000
@<TRIPOS>BOND
     1     5     4    1
     2     4     2    1
     3     3     2    2
     4     2     1    1
     5     1     6    1
     6     9    11    1
     7     9     7    2
     8     6     7    1
     9    11    12    2
    10     7     8    1
    11    12    10    1
    12     8    10    2
