@<TRIPOS>MOLECULE
/home/cewinharhar/GITHUB/reincatalyze/data/processed/docking_pred/2023-Apr-25-2033_maxeplen5_maxtrainstep200_exh16_gamma099_lrac3e-4_lrcr1e-3/72c4800fcc396c08a923544a0defa9269110c5e0_ligand_2.pdbqt
 12 12 0 0 0
SMALL
GASTEIGER

@<TRIPOS>ATOM
      1  C          8.2850    0.2130   -2.2080 C.3     1  UNL1        0.1270
      2  C          9.4170    0.3550   -1.2560 C.2     1  UNL1        0.3030
      3  O          9.4610   -0.3840   -0.2430 O.2     1  UNL1       -0.2520
      4  O         10.4390    1.2820   -1.4430 O.3     1  UNL1       -0.4810
      5  H         10.3530    2.2590   -1.1240 H       1  UNL1        0.2960
      6  C          7.2100   -0.5810   -1.5180 C.3     1  UNL1        0.0470
      7  C          6.3910    0.2520   -0.5990 C.2     1  UNL1       -0.0470
      8  C          6.1310   -0.1550    0.6950 C.2     1  UNL1        0.0040
      9  C          5.8540    1.4650   -0.9870 C.2     1  UNL1        0.0040
     10  C          5.3680    0.6270    1.5410 C.2     1  UNL1        0.0000
     11  C          5.0940    2.2460   -0.1460 C.2     1  UNL1        0.0000
     12  C          4.8350    1.8360    1.1460 C.2     1  UNL1        0.0000
@<TRIPOS>BOND
     1     1     6    1
     2     1     2    1
     3     6     7    1
     4     4     2    1
     5     4     5    1
     6     2     3    2
     7     9     7    2
     8     9    11    1
     9     7     8    1
    10    11    12    2
    11     8    10    2
    12    12    10    1
