@<TRIPOS>MOLECULE
/home/cewinharhar/GITHUB/reincatalyze/data/processed/docking_pred/2023-Apr-25-2033_maxeplen5_maxtrainstep200_exh16_gamma099_lrac3e-4_lrcr1e-3/72c4800fcc396c08a923544a0defa9269110c5e0_ligand_2.pdbqt
 12 12 0 0 0
SMALL
GASTEIGER

@<TRIPOS>ATOM
      1  C          5.0520    1.8040    0.7810 C.3     1  UNL1        0.1270
      2  C          4.4510    1.1140    1.9510 C.2     1  UNL1        0.3030
      3  O          5.0760    0.1720    2.4940 O.2     1  UNL1       -0.2520
      4  O          3.2120    1.4740    2.4750 O.3     1  UNL1       -0.4810
      5  H          2.3990    0.8390    2.4350 H       1  UNL1        0.2960
      6  C          6.5460    1.6650    0.8910 C.3     1  UNL1        0.0470
      7  C          7.1350    0.9410   -0.2650 C.2     1  UNL1       -0.0470
      8  C          6.4250   -0.0360   -0.9350 C.2     1  UNL1        0.0040
      9  C          8.4110    1.2060   -0.7260 C.2     1  UNL1        0.0040
     10  C          6.9820   -0.7030   -2.0100 C.2     1  UNL1        0.0000
     11  C          8.9690    0.5430   -1.7970 C.2     1  UNL1        0.0000
     12  C          8.2570   -0.4330   -2.4640 C.2     1  UNL1        0.0000
@<TRIPOS>BOND
     1    12    10    2
     2    12    11    1
     3    10     8    1
     4    11     9    2
     5     8     7    2
     6     9     7    1
     7     7     6    1
     8     1     6    1
     9     1     2    1
    10     2     4    1
    11     2     3    2
    12     5     4    1
