@<TRIPOS>MOLECULE
/home/cewinharhar/GITHUB/reincatalyze/data/processed/docking_pred/2023-Apr-25-2033_maxeplen5_maxtrainstep200_exh16_gamma099_lrac3e-4_lrcr1e-3/73f03501d88ed0f960f592fe5f6124e73644cb01_ligand_2.pdbqt
 12 12 0 0 0
SMALL
GASTEIGER

@<TRIPOS>ATOM
      1  C          4.9670    1.7940    0.7060 C.3     1  UNL1        0.1270
      2  C          4.4540    1.1100    1.9210 C.2     1  UNL1        0.3030
      3  O          5.1440    0.2080    2.4540 O.2     1  UNL1       -0.2520
      4  O          3.2280    1.4330    2.4990 O.3     1  UNL1       -0.4810
      5  H          2.6540    2.2160    2.1540 H       1  UNL1        0.2960
      6  C          6.4680    1.8060    0.7940 C.3     1  UNL1        0.0470
      7  C          7.1080    1.0470   -0.3120 C.2     1  UNL1       -0.0470
      8  C          8.4450    1.2160   -0.6170 C.2     1  UNL1        0.0040
      9  C          6.4050    0.1400   -1.0840 C.2     1  UNL1        0.0040
     10  C          9.0290    0.5040   -1.6470 C.2     1  UNL1        0.0000
     11  C          6.9860   -0.5700   -2.1110 C.2     1  UNL1        0.0000
     12  C          8.3220   -0.3990   -2.4140 C.2     1  UNL1        0.0000
@<TRIPOS>BOND
     1    12    11    2
     2    12    10    1
     3    11     9    1
     4    10     8    2
     5     9     7    2
     6     8     7    1
     7     7     6    1
     8     1     6    1
     9     1     2    1
    10     2     3    2
    11     2     4    1
    12     5     4    1
