@<TRIPOS>MOLECULE
/home/cewinharhar/GITHUB/reincatalyze/data/processed/docking_pred/2023-Apr-25-2033_maxeplen5_maxtrainstep200_exh16_gamma099_lrac3e-4_lrcr1e-3/73f03501d88ed0f960f592fe5f6124e73644cb01_ligand_2.pdbqt
 12 12 0 0 0
SMALL
GASTEIGER

@<TRIPOS>ATOM
      1  C          7.2970   -1.3340   -2.1340 C.3     1  UNL1        0.1270
      2  C          8.7350   -1.4030   -2.5050 C.2     1  UNL1        0.3030
      3  O          9.5210   -0.5250   -2.0750 O.2     1  UNL1       -0.2520
      4  O          9.2490   -2.4120   -3.3150 O.3     1  UNL1       -0.4810
      5  H          9.7360   -3.2320   -2.9200 H       1  UNL1        0.2960
      6  C          7.2140   -1.3950   -0.6330 C.3     1  UNL1        0.0470
      7  C          6.4210   -0.2740   -0.0630 C.2     1  UNL1       -0.0470
      8  C          5.9230   -0.3320    1.2240 C.2     1  UNL1        0.0040
      9  C          6.1440    0.8730   -0.7840 C.2     1  UNL1        0.0040
     10  C          5.1870    0.7160    1.7440 C.2     1  UNL1        0.0000
     11  C          5.4110    1.9180   -0.2680 C.2     1  UNL1        0.0000
     12  C          4.9150    1.8570    1.0180 C.2     1  UNL1        0.0000
@<TRIPOS>BOND
     1     4     5    1
     2     4     2    1
     3     2     1    1
     4     2     3    2
     5     1     6    1
     6     9    11    1
     7     9     7    2
     8     6     7    1
     9    11    12    2
    10     7     8    1
    11    12    10    1
    12     8    10    2
