MODEL 1
REMARK VINA RESULT:      -7.3      0.000      0.000
REMARK SMILES O=C(O)CCc1ccccc1
REMARK SMILES IDX 4 1 2 2 1 3 3 4 5 6 6 7 7 8 11 9 8 10 10 11 9 12
REMARK H PARENT 3 5
REMARK Flexibility Score: inf
ROOT
ATOM      1  C   UNL     1       8.450  -0.622  -2.125  1.00  0.00     0.127 C 
ENDROOT
BRANCH   1   2
ATOM      2  C   UNL     1       8.449  -1.891  -2.899  1.00  0.00     0.303 C 
ATOM      3  O   UNL     1       9.533  -2.495  -3.085  1.00  0.00    -0.252 OA
BRANCH   2   4
ATOM      4  O   UNL     1       7.285  -2.442  -3.429  1.00  0.00    -0.481 OA
ATOM      5  H   UNL     1       6.643  -1.892  -4.021  1.00  0.00     0.296 HD
ENDBRANCH   2   4
ENDBRANCH   1   2
BRANCH   1   6
ATOM      6  C   UNL     1       7.044  -0.090  -2.127  1.00  0.00     0.047 C 
BRANCH   6   7
ATOM      7  C   UNL     1       6.487   0.050  -0.756  1.00  0.00    -0.047 A 
ATOM      8  C   UNL     1       5.861   1.213  -0.353  1.00  0.00     0.004 A 
ATOM      9  C   UNL     1       6.566  -0.968   0.176  1.00  0.00     0.004 A 
ATOM     10  C   UNL     1       5.347   1.332   0.924  1.00  0.00     0.000 A 
ATOM     11  C   UNL     1       6.055  -0.852   1.450  1.00  0.00     0.000 A 
ATOM     12  C   UNL     1       5.430   0.312   1.850  1.00  0.00     0.000 A 
ENDBRANCH   6   7
ENDBRANCH   1   6
TORSDOF 4
ENDMDL
MODEL 2
REMARK VINA RESULT:      -7.3      0.117      1.718
REMARK SMILES O=C(O)CCc1ccccc1
REMARK SMILES IDX 4 1 2 2 1 3 3 4 5 6 6 7 7 8 11 9 8 10 10 11 9 12
REMARK H PARENT 3 5
REMARK Flexibility Score: inf
ROOT
ATOM      1  C   UNL     1       8.452  -0.644  -2.097  1.00  0.00     0.127 C 
ENDROOT
BRANCH   1   2
ATOM      2  C   UNL     1       8.424  -1.908  -2.878  1.00  0.00     0.303 C 
ATOM      3  O   UNL     1       7.318  -2.399  -3.209  1.00  0.00    -0.252 OA
BRANCH   2   4
ATOM      4  O   UNL     1       9.584  -2.576  -3.262  1.00  0.00    -0.481 OA
ATOM      5  H   UNL     1      10.418  -2.611  -2.656  1.00  0.00     0.296 HD
ENDBRANCH   2   4
ENDBRANCH   1   2
BRANCH   1   6
ATOM      6  C   UNL     1       7.068  -0.059  -2.133  1.00  0.00     0.047 C 
BRANCH   6   7
ATOM      7  C   UNL     1       6.484   0.100  -0.775  1.00  0.00    -0.047 A 
ATOM      8  C   UNL     1       6.588  -0.902   0.170  1.00  0.00     0.004 A 
ATOM      9  C   UNL     1       5.814   1.247  -0.393  1.00  0.00     0.004 A 
ATOM     10  C   UNL     1       6.042  -0.743   1.430  1.00  0.00     0.000 A 
ATOM     11  C   UNL     1       5.269   1.408   0.862  1.00  0.00     0.000 A 
ATOM     12  C   UNL     1       5.374   0.405   1.804  1.00  0.00     0.000 A 
ENDBRANCH   6   7
ENDBRANCH   1   6
TORSDOF 4
ENDMDL
MODEL 3
REMARK VINA RESULT:      -7.2      0.664      1.139
REMARK SMILES O=C(O)CCc1ccccc1
REMARK SMILES IDX 4 1 2 2 1 3 3 4 5 6 6 7 7 8 11 9 8 10 10 11 9 12
REMARK H PARENT 3 5
REMARK Flexibility Score: inf
ROOT
ATOM      1  C   UNL     1       8.256  -0.934  -1.851  1.00  0.00     0.127 C 
ENDROOT
BRANCH   1   2
ATOM      2  C   UNL     1       8.379  -2.022  -2.856  1.00  0.00     0.303 C 
ATOM      3  O   UNL     1       9.514  -2.488  -3.119  1.00  0.00    -0.252 OA
BRANCH   2   4
ATOM      4  O   UNL     1       7.277  -2.551  -3.523  1.00  0.00    -0.481 OA
ATOM      5  H   UNL     1       6.991  -3.535  -3.406  1.00  0.00     0.296 HD
ENDBRANCH   2   4
ENDBRANCH   1   2
BRANCH   1   6
ATOM      6  C   UNL     1       7.338  -1.422  -0.765  1.00  0.00     0.047 C 
BRANCH   6   7
ATOM      7  C   UNL     1       6.529  -0.326  -0.171  1.00  0.00    -0.047 A 
ATOM      8  C   UNL     1       6.199   0.798  -0.904  1.00  0.00     0.004 A 
ATOM      9  C   UNL     1       6.067  -0.375   1.131  1.00  0.00     0.004 A 
ATOM     10  C   UNL     1       5.446   1.811  -0.341  1.00  0.00     0.000 A 
ATOM     11  C   UNL     1       5.317   0.633   1.693  1.00  0.00     0.000 A 
ATOM     12  C   UNL     1       4.990   1.756   0.959  1.00  0.00     0.000 A 
ENDBRANCH   6   7
ENDBRANCH   1   6
TORSDOF 4
ENDMDL
MODEL 4
REMARK VINA RESULT:      -7.0      1.004      1.918
REMARK SMILES O=C(O)CCc1ccccc1
REMARK SMILES IDX 4 1 2 2 1 3 3 4 5 6 6 7 7 8 11 9 8 10 10 11 9 12
REMARK H PARENT 3 5
REMARK Flexibility Score: inf
ROOT
ATOM      1  C   UNL     1       7.297  -1.334  -2.134  1.00  0.00     0.127 C 
ENDROOT
BRANCH   1   2
ATOM      2  C   UNL     1       8.735  -1.403  -2.505  1.00  0.00     0.303 C 
ATOM      3  O   UNL     1       9.521  -0.525  -2.075  1.00  0.00    -0.252 OA
BRANCH   2   4
ATOM      4  O   UNL     1       9.249  -2.412  -3.315  1.00  0.00    -0.481 OA
ATOM      5  H   UNL     1       9.736  -3.232  -2.920  1.00  0.00     0.296 HD
ENDBRANCH   2   4
ENDBRANCH   1   2
BRANCH   1   6
ATOM      6  C   UNL     1       7.214  -1.395  -0.633  1.00  0.00     0.047 C 
BRANCH   6   7
ATOM      7  C   UNL     1       6.421  -0.274  -0.063  1.00  0.00    -0.047 A 
ATOM      8  C   UNL     1       5.923  -0.332   1.224  1.00  0.00     0.004 A 
ATOM      9  C   UNL     1       6.144   0.873  -0.784  1.00  0.00     0.004 A 
ATOM     10  C   UNL     1       5.187   0.716   1.744  1.00  0.00     0.000 A 
ATOM     11  C   UNL     1       5.411   1.918  -0.268  1.00  0.00     0.000 A 
ATOM     12  C   UNL     1       4.915   1.857   1.018  1.00  0.00     0.000 A 
ENDBRANCH   6   7
ENDBRANCH   1   6
TORSDOF 4
ENDMDL
MODEL 5
REMARK VINA RESULT:      -6.8      3.377      5.074
REMARK SMILES O=C(O)CCc1ccccc1
REMARK SMILES IDX 4 1 2 2 1 3 3 4 5 6 6 7 7 8 11 9 8 10 10 11 9 12
REMARK H PARENT 3 5
REMARK Flexibility Score: inf
ROOT
ATOM      1  C   UNL     1       4.967   1.794   0.706  1.00  0.00     0.127 C 
ENDROOT
BRANCH   1   2
ATOM      2  C   UNL     1       4.454   1.110   1.921  1.00  0.00     0.303 C 
ATOM      3  O   UNL     1       5.144   0.208   2.454  1.00  0.00    -0.252 OA
BRANCH   2   4
ATOM      4  O   UNL     1       3.228   1.433   2.499  1.00  0.00    -0.481 OA
ATOM      5  H   UNL     1       2.654   2.216   2.154  1.00  0.00     0.296 HD
ENDBRANCH   2   4
ENDBRANCH   1   2
BRANCH   1   6
ATOM      6  C   UNL     1       6.468   1.806   0.794  1.00  0.00     0.047 C 
BRANCH   6   7
ATOM      7  C   UNL     1       7.108   1.047  -0.312  1.00  0.00    -0.047 A 
ATOM      8  C   UNL     1       8.445   1.216  -0.617  1.00  0.00     0.004 A 
ATOM      9  C   UNL     1       6.405   0.140  -1.084  1.00  0.00     0.004 A 
ATOM     10  C   UNL     1       9.029   0.504  -1.647  1.00  0.00     0.000 A 
ATOM     11  C   UNL     1       6.986  -0.570  -2.111  1.00  0.00     0.000 A 
ATOM     12  C   UNL     1       8.322  -0.399  -2.414  1.00  0.00     0.000 A 
ENDBRANCH   6   7
ENDBRANCH   1   6
TORSDOF 4
ENDMDL
