@<TRIPOS>MOLECULE
/home/cewinharhar/GITHUB/reincatalyze/data/processed/docking_pred/2023-Apr-25-2033_maxeplen5_maxtrainstep200_exh16_gamma099_lrac3e-4_lrcr1e-3/73f03501d88ed0f960f592fe5f6124e73644cb01_ligand_2.pdbqt
 12 12 0 0 0
SMALL
GASTEIGER

@<TRIPOS>ATOM
      1  C          8.4520   -0.6440   -2.0970 C.3     1  UNL1        0.1270
      2  C          8.4240   -1.9080   -2.8780 C.2     1  UNL1        0.3030
      3  O          7.3180   -2.3990   -3.2090 O.2     1  UNL1       -0.2520
      4  O          9.5840   -2.5760   -3.2620 O.3     1  UNL1       -0.4810
      5  H         10.4180   -2.6110   -2.6560 H       1  UNL1        0.2960
      6  C          7.0680   -0.0590   -2.1330 C.3     1  UNL1        0.0470
      7  C          6.4840    0.1000   -0.7750 C.2     1  UNL1       -0.0470
      8  C          6.5880   -0.9020    0.1700 C.2     1  UNL1        0.0040
      9  C          5.8140    1.2470   -0.3930 C.2     1  UNL1        0.0040
     10  C          6.0420   -0.7430    1.4300 C.2     1  UNL1        0.0000
     11  C          5.2690    1.4080    0.8620 C.2     1  UNL1        0.0000
     12  C          5.3740    0.4050    1.8040 C.2     1  UNL1        0.0000
@<TRIPOS>BOND
     1     4     2    1
     2     4     5    1
     3     3     2    2
     4     2     1    1
     5     6     1    1
     6     6     7    1
     7     7     9    2
     8     7     8    1
     9     9    11    1
    10     8    10    2
    11    11    12    2
    12    10    12    1
