@<TRIPOS>MOLECULE
/home/cewinharhar/GITHUB/reincatalyze/data/processed/docking_pred/2023-Apr-25-2033_maxeplen5_maxtrainstep200_exh16_gamma099_lrac3e-4_lrcr1e-3/73f03501d88ed0f960f592fe5f6124e73644cb01_ligand_2.pdbqt
 12 12 0 0 0
SMALL
GASTEIGER

@<TRIPOS>ATOM
      1  C          8.2560   -0.9340   -1.8510 C.3     1  UNL1        0.1270
      2  C          8.3790   -2.0220   -2.8560 C.2     1  UNL1        0.3030
      3  O          9.5140   -2.4880   -3.1190 O.2     1  UNL1       -0.2520
      4  O          7.2770   -2.5510   -3.5230 O.3     1  UNL1       -0.4810
      5  H          6.9910   -3.5350   -3.4060 H       1  UNL1        0.2960
      6  C          7.3380   -1.4220   -0.7650 C.3     1  UNL1        0.0470
      7  C          6.5290   -0.3260   -0.1710 C.2     1  UNL1       -0.0470
      8  C          6.1990    0.7980   -0.9040 C.2     1  UNL1        0.0040
      9  C          6.0670   -0.3750    1.1310 C.2     1  UNL1        0.0040
     10  C          5.4460    1.8110   -0.3410 C.2     1  UNL1        0.0000
     11  C          5.3170    0.6330    1.6930 C.2     1  UNL1        0.0000
     12  C          4.9900    1.7560    0.9590 C.2     1  UNL1        0.0000
@<TRIPOS>BOND
     1     4     5    1
     2     4     2    1
     3     3     2    2
     4     2     1    1
     5     1     6    1
     6     8    10    1
     7     8     7    2
     8     6     7    1
     9    10    12    2
    10     7     9    1
    11    12    11    1
    12     9    11    2
