@<TRIPOS>MOLECULE
/home/cewinharhar/GITHUB/reincatalyze/data/processed/docking_pred/2023-Apr-25-2033_maxeplen5_maxtrainstep200_exh16_gamma099_lrac3e-4_lrcr1e-3/777751631f294be45381376aa4be6161cfc72981_ligand_2.pdbqt
 12 12 0 0 0
SMALL
GASTEIGER

@<TRIPOS>ATOM
      1  C          4.9850    1.7780    0.6860 C.3     1  UNL1        0.1270
      2  C          4.4650    1.1170    1.9110 C.2     1  UNL1        0.3030
      3  O          5.1530    0.2250    2.4640 O.2     1  UNL1       -0.2520
      4  O          3.2360    1.4490    2.4750 O.3     1  UNL1       -0.4810
      5  H          2.5730    0.7290    2.7980 H       1  UNL1        0.2960
      6  C          6.4860    1.7840    0.7770 C.3     1  UNL1        0.0470
      7  C          7.1250    1.0160   -0.3240 C.2     1  UNL1       -0.0470
      8  C          8.4500    1.2130   -0.6590 C.2     1  UNL1        0.0040
      9  C          6.4320    0.0730   -1.0600 C.2     1  UNL1        0.0040
     10  C          9.0340    0.4940   -1.6840 C.2     1  UNL1        0.0000
     11  C          7.0120   -0.6460   -2.0820 C.2     1  UNL1        0.0000
     12  C          8.3360   -0.4460   -2.4150 C.2     1  UNL1        0.0000
@<TRIPOS>BOND
     1    12    11    2
     2    12    10    1
     3    11     9    1
     4    10     8    2
     5     9     7    2
     6     8     7    1
     7     7     6    1
     8     1     6    1
     9     1     2    1
    10     2     3    2
    11     2     4    1
    12     4     5    1
