@<TRIPOS>MOLECULE
/home/cewinharhar/GITHUB/reincatalyze/data/processed/docking_pred/2023-Apr-25-2033_maxeplen5_maxtrainstep200_exh16_gamma099_lrac3e-4_lrcr1e-3/777751631f294be45381376aa4be6161cfc72981_ligand_2.pdbqt
 12 12 0 0 0
SMALL
GASTEIGER

@<TRIPOS>ATOM
      1  C          8.4200   -0.6280   -2.1330 C.3     1  UNL1        0.1270
      2  C          8.3960   -1.9140   -2.8770 C.2     1  UNL1        0.3030
      3  O          7.2920   -2.4010   -3.2230 O.2     1  UNL1       -0.2520
      4  O          9.5570   -2.6070   -3.2100 O.3     1  UNL1       -0.4810
      5  H          9.7050   -2.9990   -4.1530 H       1  UNL1        0.2960
      6  C          7.0190   -0.0800   -2.1310 C.3     1  UNL1        0.0470
      7  C          6.4680    0.0660   -0.7580 C.2     1  UNL1       -0.0470
      8  C          6.5870   -0.9480    0.1720 C.2     1  UNL1        0.0040
      9  C          5.8170    1.2140   -0.3460 C.2     1  UNL1        0.0040
     10  C          6.0710   -0.8020    1.4450 C.2     1  UNL1        0.0000
     11  C          5.3020    1.3620    0.9230 C.2     1  UNL1        0.0000
     12  C          5.4210    0.3460    1.8500 C.2     1  UNL1        0.0000
@<TRIPOS>BOND
     1     5     4    1
     2     3     2    2
     3     4     2    1
     4     2     1    1
     5     1     6    1
     6     6     7    1
     7     7     9    2
     8     7     8    1
     9     9    11    1
    10     8    10    2
    11    11    12    2
    12    10    12    1
