@<TRIPOS>MOLECULE
/home/cewinharhar/GITHUB/reincatalyze/data/processed/docking_pred/2023-Apr-25-2033_maxeplen5_maxtrainstep200_exh16_gamma099_lrac3e-4_lrcr1e-3/777751631f294be45381376aa4be6161cfc72981_ligand_2.pdbqt
 12 12 0 0 0
SMALL
GASTEIGER

@<TRIPOS>ATOM
      1  C          8.2730    0.0100   -2.1830 C.3     1  UNL1        0.1270
      2  C          9.3820    0.2720   -1.2290 C.2     1  UNL1        0.3030
      3  O          9.4620   -0.4150   -0.1810 O.2     1  UNL1       -0.2520
      4  O         10.3430    1.2550   -1.4510 O.3     1  UNL1       -0.4810
      5  H         11.3330    1.0190   -1.6180 H       1  UNL1        0.2960
      6  C          7.2050   -0.7430   -1.4410 C.3     1  UNL1        0.0470
      7  C          6.3950    0.1390   -0.5600 C.2     1  UNL1       -0.0470
      8  C          6.1300   -0.2060    0.7500 C.2     1  UNL1        0.0040
      9  C          5.8730    1.3400   -1.0030 C.2     1  UNL1        0.0040
     10  C          5.3760    0.6220    1.5600 C.2     1  UNL1        0.0000
     11  C          5.1220    2.1670   -0.1980 C.2     1  UNL1        0.0000
     12  C          4.8580    1.8190    1.1110 C.2     1  UNL1        0.0000
@<TRIPOS>BOND
     1     1     6    1
     2     1     2    1
     3     5     4    1
     4     4     2    1
     5     6     7    1
     6     2     3    2
     7     9     7    2
     8     9    11    1
     9     7     8    1
    10    11    12    2
    11     8    10    2
    12    12    10    1
