@<TRIPOS>MOLECULE
/home/cewinharhar/GITHUB/reincatalyze/data/processed/docking_pred/2023-Apr-25-2033_maxeplen5_maxtrainstep200_exh16_gamma099_lrac3e-4_lrcr1e-3/7ac8f9624e71b352d93dccd4dc48cb56e96c53c0_ligand_2.pdbqt
 12 12 0 0 0
SMALL
GASTEIGER

@<TRIPOS>ATOM
      1  C          5.3200    2.9620    0.0540 C.3     1  UNL1        0.1270
      2  C          6.2090    3.8540    0.8430 C.2     1  UNL1        0.3030
      3  O          6.8600    4.7480    0.2520 O.2     1  UNL1       -0.2520
      4  O          6.3490    3.7370    2.2240 O.3     1  UNL1       -0.4810
      5  H          7.0460    3.1060    2.6490 H       1  UNL1        0.2960
      6  C          5.1910    1.6680    0.8090 C.3     1  UNL1        0.0470
      7  C          5.9970    0.5750    0.2030 C.2     1  UNL1       -0.0470
      8  C          6.3490    0.6010   -1.1320 C.2     1  UNL1        0.0040
      9  C          6.4320   -0.5120    0.9380 C.2     1  UNL1        0.0040
     10  C          7.0980   -0.4200   -1.6850 C.2     1  UNL1        0.0000
     11  C          7.1790   -1.5310    0.3900 C.2     1  UNL1        0.0000
     12  C          7.5280   -1.5020   -0.9450 C.2     1  UNL1        0.0000
@<TRIPOS>BOND
     1    10     8    1
     2    10    12    2
     3     8     7    2
     4    12    11    1
     5     1     6    1
     6     1     2    1
     7     7     6    1
     8     7     9    1
     9     3     2    2
    10    11     9    2
    11     2     4    1
    12     4     5    1
