@<TRIPOS>MOLECULE
/home/cewinharhar/GITHUB/reincatalyze/data/processed/docking_pred/2023-Apr-25-2033_maxeplen5_maxtrainstep200_exh16_gamma099_lrac3e-4_lrcr1e-3/7ac8f9624e71b352d93dccd4dc48cb56e96c53c0_ligand_2.pdbqt
 12 12 0 0 0
SMALL
GASTEIGER

@<TRIPOS>ATOM
      1  C          8.4350   -0.6510   -2.0900 C.3     1  UNL1        0.1270
      2  C          8.4100   -1.9160   -2.8700 C.2     1  UNL1        0.3030
      3  O          7.3060   -2.4060   -3.2070 O.2     1  UNL1       -0.2520
      4  O          9.5720   -2.5850   -3.2450 O.3     1  UNL1       -0.4810
      5  H          9.8020   -3.5220   -2.8810 H       1  UNL1        0.2960
      6  C          7.0440   -0.0780   -2.1130 C.3     1  UNL1        0.0470
      7  C          6.4720    0.0770   -0.7510 C.2     1  UNL1       -0.0470
      8  C          6.5690   -0.9330    0.1860 C.2     1  UNL1        0.0040
      9  C          5.8200    1.2300   -0.3540 C.2     1  UNL1        0.0040
     10  C          6.0330   -0.7780    1.4500 C.2     1  UNL1        0.0000
     11  C          5.2850    1.3870    0.9050 C.2     1  UNL1        0.0000
     12  C          5.3830    0.3750    1.8390 C.2     1  UNL1        0.0000
@<TRIPOS>BOND
     1     4     5    1
     2     4     2    1
     3     3     2    2
     4     2     1    1
     5     6     1    1
     6     6     7    1
     7     7     9    2
     8     7     8    1
     9     9    11    1
    10     8    10    2
    11    11    12    2
    12    10    12    1
