@<TRIPOS>MOLECULE
/home/cewinharhar/GITHUB/reincatalyze/data/processed/docking_pred/2023-Apr-25-2033_maxeplen5_maxtrainstep200_exh16_gamma099_lrac3e-4_lrcr1e-3/7ac8f9624e71b352d93dccd4dc48cb56e96c53c0_ligand_2.pdbqt
 12 12 0 0 0
SMALL
GASTEIGER

@<TRIPOS>ATOM
      1  C          8.4360   -0.6120   -2.1430 C.3     1  UNL1        0.1270
      2  C          8.4130   -1.8960   -2.8910 C.2     1  UNL1        0.3030
      3  O          7.3080   -2.3970   -3.2140 O.2     1  UNL1       -0.2520
      4  O          9.5760   -2.5720   -3.2510 O.3     1  UNL1       -0.4810
      5  H         10.5000   -2.2960   -2.8870 H       1  UNL1        0.2960
      6  C          7.0350   -0.0660   -2.1380 C.3     1  UNL1        0.0470
      7  C          6.4800    0.0610   -0.7640 C.2     1  UNL1       -0.0470
      8  C          5.8290    1.2100   -0.3590 C.2     1  UNL1        0.0040
      9  C          6.5850   -0.9550    0.1680 C.2     1  UNL1        0.0040
     10  C          5.3170    1.3170    0.9200 C.2     1  UNL1        0.0000
     11  C          6.0750   -0.8510    1.4430 C.2     1  UNL1        0.0000
     12  C          5.4260    0.2990    1.8450 C.2     1  UNL1        0.0000
@<TRIPOS>BOND
     1     4     2    1
     2     4     5    1
     3     3     2    2
     4     2     1    1
     5     1     6    1
     6     6     7    1
     7     7     8    2
     8     7     9    1
     9     8    10    1
    10     9    11    2
    11    10    12    2
    12    11    12    1
