@<TRIPOS>MOLECULE
/home/cewinharhar/GITHUB/reincatalyze/data/processed/docking_pred/2023-Apr-25-2033_maxeplen5_maxtrainstep200_exh16_gamma099_lrac3e-4_lrcr1e-3/7ac8f9624e71b352d93dccd4dc48cb56e96c53c0_ligand_2.pdbqt
 12 12 0 0 0
SMALL
GASTEIGER

@<TRIPOS>ATOM
      1  C          5.0260    1.7180    0.7040 C.3     1  UNL1        0.1270
      2  C          4.5390    1.0380    1.9330 C.2     1  UNL1        0.3030
      3  O          5.2560    0.1620    2.4730 O.2     1  UNL1       -0.2520
      4  O          3.3090    1.3370    2.5150 O.3     1  UNL1       -0.4810
      5  H          2.4950    0.7110    2.4180 H       1  UNL1        0.2960
      6  C          6.5270    1.7530    0.7710 C.3     1  UNL1        0.0470
      7  C          7.1630    0.9880   -0.3330 C.2     1  UNL1       -0.0470
      8  C          8.4840    1.1970   -0.6810 C.2     1  UNL1        0.0040
      9  C          6.4730    0.0370   -1.0610 C.2     1  UNL1        0.0040
     10  C          9.0650    0.4800   -1.7100 C.2     1  UNL1        0.0000
     11  C          7.0500   -0.6780   -2.0870 C.2     1  UNL1        0.0000
     12  C          8.3690   -0.4670   -2.4320 C.2     1  UNL1        0.0000
@<TRIPOS>BOND
     1    12    11    2
     2    12    10    1
     3    11     9    1
     4    10     8    2
     5     9     7    2
     6     8     7    1
     7     7     6    1
     8     1     6    1
     9     1     2    1
    10     2     3    2
    11     2     4    1
    12     5     4    1
