@<TRIPOS>MOLECULE
/home/cewinharhar/GITHUB/reincatalyze/data/processed/docking_pred/2023-Apr-25-2033_maxeplen5_maxtrainstep200_exh16_gamma099_lrac3e-4_lrcr1e-3/7ac8f9624e71b352d93dccd4dc48cb56e96c53c0_ligand_2.pdbqt
 12 12 0 0 0
SMALL
GASTEIGER

@<TRIPOS>ATOM
      1  C          7.9560   -2.0930    0.8420 C.3     1  UNL1        0.1270
      2  C          8.7050   -3.2740    0.3380 C.2     1  UNL1        0.3030
      3  O          9.5300   -3.8430    1.0920 O.2     1  UNL1       -0.2520
      4  O          8.5280   -3.7780   -0.9480 O.3     1  UNL1       -0.4810
      5  H          7.7320   -4.3900   -1.1870 H       1  UNL1        0.2960
      6  C          7.3800   -1.3800   -0.3500 C.3     1  UNL1        0.0470
      7  C          6.5210   -0.2310    0.0370 C.2     1  UNL1       -0.0470
      8  C          6.2450    0.7880   -0.8540 C.2     1  UNL1        0.0040
      9  C          5.9580   -0.1240    1.2950 C.2     1  UNL1        0.0040
     10  C          5.4450    1.8520   -0.4840 C.2     1  UNL1        0.0000
     11  C          5.1600    0.9350    1.6660 C.2     1  UNL1        0.0000
     12  C          4.8870    1.9520    0.7740 C.2     1  UNL1        0.0000
@<TRIPOS>BOND
     1     5     4    1
     2     4     2    1
     3     8    10    1
     4     8     7    2
     5    10    12    2
     6     6     7    1
     7     6     1    1
     8     7     9    1
     9     2     1    1
    10     2     3    2
    11    12    11    1
    12     9    11    2
