MODEL 1
REMARK VINA RESULT:      -7.3      0.000      0.000
REMARK SMILES O=C(O)CCc1ccccc1
REMARK SMILES IDX 4 1 2 2 1 3 3 4 5 6 6 7 7 8 11 9 8 10 10 11 9 12
REMARK H PARENT 3 5
REMARK Flexibility Score: inf
ROOT
ATOM      1  C   UNL     1       8.435  -0.651  -2.090  1.00  0.00     0.127 C 
ENDROOT
BRANCH   1   2
ATOM      2  C   UNL     1       8.410  -1.916  -2.870  1.00  0.00     0.303 C 
ATOM      3  O   UNL     1       7.306  -2.406  -3.207  1.00  0.00    -0.252 OA
BRANCH   2   4
ATOM      4  O   UNL     1       9.572  -2.585  -3.245  1.00  0.00    -0.481 OA
ATOM      5  H   UNL     1       9.802  -3.522  -2.881  1.00  0.00     0.296 HD
ENDBRANCH   2   4
ENDBRANCH   1   2
BRANCH   1   6
ATOM      6  C   UNL     1       7.044  -0.078  -2.113  1.00  0.00     0.047 C 
BRANCH   6   7
ATOM      7  C   UNL     1       6.472   0.077  -0.751  1.00  0.00    -0.047 A 
ATOM      8  C   UNL     1       6.569  -0.933   0.186  1.00  0.00     0.004 A 
ATOM      9  C   UNL     1       5.820   1.230  -0.354  1.00  0.00     0.004 A 
ATOM     10  C   UNL     1       6.033  -0.778   1.450  1.00  0.00     0.000 A 
ATOM     11  C   UNL     1       5.285   1.387   0.905  1.00  0.00     0.000 A 
ATOM     12  C   UNL     1       5.383   0.375   1.839  1.00  0.00     0.000 A 
ENDBRANCH   6   7
ENDBRANCH   1   6
TORSDOF 4
ENDMDL
MODEL 2
REMARK VINA RESULT:      -7.3      0.052      1.420
REMARK SMILES O=C(O)CCc1ccccc1
REMARK SMILES IDX 4 1 2 2 1 3 3 4 5 6 6 7 7 8 11 9 8 10 10 11 9 12
REMARK H PARENT 3 5
REMARK Flexibility Score: inf
ROOT
ATOM      1  C   UNL     1       8.436  -0.612  -2.143  1.00  0.00     0.127 C 
ENDROOT
BRANCH   1   2
ATOM      2  C   UNL     1       8.413  -1.896  -2.891  1.00  0.00     0.303 C 
ATOM      3  O   UNL     1       7.308  -2.397  -3.214  1.00  0.00    -0.252 OA
BRANCH   2   4
ATOM      4  O   UNL     1       9.576  -2.572  -3.251  1.00  0.00    -0.481 OA
ATOM      5  H   UNL     1      10.500  -2.296  -2.887  1.00  0.00     0.296 HD
ENDBRANCH   2   4
ENDBRANCH   1   2
BRANCH   1   6
ATOM      6  C   UNL     1       7.035  -0.066  -2.138  1.00  0.00     0.047 C 
BRANCH   6   7
ATOM      7  C   UNL     1       6.480   0.061  -0.764  1.00  0.00    -0.047 A 
ATOM      8  C   UNL     1       5.829   1.210  -0.359  1.00  0.00     0.004 A 
ATOM      9  C   UNL     1       6.585  -0.955   0.168  1.00  0.00     0.004 A 
ATOM     10  C   UNL     1       5.317   1.317   0.920  1.00  0.00     0.000 A 
ATOM     11  C   UNL     1       6.075  -0.851   1.443  1.00  0.00     0.000 A 
ATOM     12  C   UNL     1       5.426   0.299   1.845  1.00  0.00     0.000 A 
ENDBRANCH   6   7
ENDBRANCH   1   6
TORSDOF 4
ENDMDL
MODEL 3
REMARK VINA RESULT:      -6.8      3.276      5.155
REMARK SMILES O=C(O)CCc1ccccc1
REMARK SMILES IDX 4 1 2 2 1 3 3 4 5 6 6 7 7 8 11 9 8 10 10 11 9 12
REMARK H PARENT 3 5
REMARK Flexibility Score: inf
ROOT
ATOM      1  C   UNL     1       5.026   1.718   0.704  1.00  0.00     0.127 C 
ENDROOT
BRANCH   1   2
ATOM      2  C   UNL     1       4.539   1.038   1.933  1.00  0.00     0.303 C 
ATOM      3  O   UNL     1       5.256   0.162   2.473  1.00  0.00    -0.252 OA
BRANCH   2   4
ATOM      4  O   UNL     1       3.309   1.337   2.515  1.00  0.00    -0.481 OA
ATOM      5  H   UNL     1       2.495   0.711   2.418  1.00  0.00     0.296 HD
ENDBRANCH   2   4
ENDBRANCH   1   2
BRANCH   1   6
ATOM      6  C   UNL     1       6.527   1.753   0.771  1.00  0.00     0.047 C 
BRANCH   6   7
ATOM      7  C   UNL     1       7.163   0.988  -0.333  1.00  0.00    -0.047 A 
ATOM      8  C   UNL     1       8.484   1.197  -0.681  1.00  0.00     0.004 A 
ATOM      9  C   UNL     1       6.473   0.037  -1.061  1.00  0.00     0.004 A 
ATOM     10  C   UNL     1       9.065   0.480  -1.710  1.00  0.00     0.000 A 
ATOM     11  C   UNL     1       7.050  -0.678  -2.087  1.00  0.00     0.000 A 
ATOM     12  C   UNL     1       8.369  -0.467  -2.432  1.00  0.00     0.000 A 
ENDBRANCH   6   7
ENDBRANCH   1   6
TORSDOF 4
ENDMDL
MODEL 4
REMARK VINA RESULT:      -6.6      2.047      2.803
REMARK SMILES O=C(O)CCc1ccccc1
REMARK SMILES IDX 4 1 2 2 1 3 3 4 5 6 6 7 7 8 11 9 8 10 10 11 9 12
REMARK H PARENT 3 5
REMARK Flexibility Score: inf
ROOT
ATOM      1  C   UNL     1       7.956  -2.093   0.842  1.00  0.00     0.127 C 
ENDROOT
BRANCH   1   2
ATOM      2  C   UNL     1       8.705  -3.274   0.338  1.00  0.00     0.303 C 
ATOM      3  O   UNL     1       9.530  -3.843   1.092  1.00  0.00    -0.252 OA
BRANCH   2   4
ATOM      4  O   UNL     1       8.528  -3.778  -0.948  1.00  0.00    -0.481 OA
ATOM      5  H   UNL     1       7.732  -4.390  -1.187  1.00  0.00     0.296 HD
ENDBRANCH   2   4
ENDBRANCH   1   2
BRANCH   1   6
ATOM      6  C   UNL     1       7.380  -1.380  -0.350  1.00  0.00     0.047 C 
BRANCH   6   7
ATOM      7  C   UNL     1       6.521  -0.231   0.037  1.00  0.00    -0.047 A 
ATOM      8  C   UNL     1       6.245   0.788  -0.854  1.00  0.00     0.004 A 
ATOM      9  C   UNL     1       5.958  -0.124   1.295  1.00  0.00     0.004 A 
ATOM     10  C   UNL     1       5.445   1.852  -0.484  1.00  0.00     0.000 A 
ATOM     11  C   UNL     1       5.160   0.935   1.666  1.00  0.00     0.000 A 
ATOM     12  C   UNL     1       4.887   1.952   0.774  1.00  0.00     0.000 A 
ENDBRANCH   6   7
ENDBRANCH   1   6
TORSDOF 4
ENDMDL
MODEL 5
REMARK VINA RESULT:      -6.6      3.679      5.115
REMARK SMILES O=C(O)CCc1ccccc1
REMARK SMILES IDX 4 1 2 2 1 3 3 4 5 6 6 7 7 8 11 9 8 10 10 11 9 12
REMARK H PARENT 3 5
REMARK Flexibility Score: inf
ROOT
ATOM      1  C   UNL     1       5.320   2.962   0.054  1.00  0.00     0.127 C 
ENDROOT
BRANCH   1   2
ATOM      2  C   UNL     1       6.209   3.854   0.843  1.00  0.00     0.303 C 
ATOM      3  O   UNL     1       6.860   4.748   0.252  1.00  0.00    -0.252 OA
BRANCH   2   4
ATOM      4  O   UNL     1       6.349   3.737   2.224  1.00  0.00    -0.481 OA
ATOM      5  H   UNL     1       7.046   3.106   2.649  1.00  0.00     0.296 HD
ENDBRANCH   2   4
ENDBRANCH   1   2
BRANCH   1   6
ATOM      6  C   UNL     1       5.191   1.668   0.809  1.00  0.00     0.047 C 
BRANCH   6   7
ATOM      7  C   UNL     1       5.997   0.575   0.203  1.00  0.00    -0.047 A 
ATOM      8  C   UNL     1       6.349   0.601  -1.132  1.00  0.00     0.004 A 
ATOM      9  C   UNL     1       6.432  -0.512   0.938  1.00  0.00     0.004 A 
ATOM     10  C   UNL     1       7.098  -0.420  -1.685  1.00  0.00     0.000 A 
ATOM     11  C   UNL     1       7.179  -1.531   0.390  1.00  0.00     0.000 A 
ATOM     12  C   UNL     1       7.528  -1.502  -0.945  1.00  0.00     0.000 A 
ENDBRANCH   6   7
ENDBRANCH   1   6
TORSDOF 4
ENDMDL
