@<TRIPOS>MOLECULE
/home/cewinharhar/GITHUB/reincatalyze/data/processed/docking_pred/2023-Apr-25-2033_maxeplen5_maxtrainstep200_exh16_gamma099_lrac3e-4_lrcr1e-3/7c86502248d8ce059d377094dc2c2500eee92fd7_ligand_2.pdbqt
 12 12 0 0 0
SMALL
GASTEIGER

@<TRIPOS>ATOM
      1  C          7.2850   -1.3870   -2.1590 C.3     1  UNL1        0.1270
      2  C          8.7260   -1.4090   -2.5200 C.2     1  UNL1        0.3030
      3  O          9.4850   -0.5190   -2.0650 O.2     1  UNL1       -0.2520
      4  O          9.2740   -2.3850   -3.3480 O.3     1  UNL1       -0.4810
      5  H          9.9050   -3.1150   -2.9840 H       1  UNL1        0.2960
      6  C          7.1940   -1.3970   -0.6580 C.3     1  UNL1        0.0470
      7  C          6.4210   -0.2430   -0.1280 C.2     1  UNL1       -0.0470
      8  C          5.9350   -0.2400    1.1650 C.2     1  UNL1        0.0040
      9  C          6.1520    0.8760   -0.8940 C.2     1  UNL1        0.0040
     10  C          5.2180    0.8380    1.6470 C.2     1  UNL1        0.0000
     11  C          5.4370    1.9510   -0.4160 C.2     1  UNL1        0.0000
     12  C          4.9530    1.9510    0.8760 C.2     1  UNL1        0.0000
@<TRIPOS>BOND
     1     4     5    1
     2     4     2    1
     3     2     1    1
     4     2     3    2
     5     1     6    1
     6     9    11    1
     7     9     7    2
     8     6     7    1
     9    11    12    2
    10     7     8    1
    11    12    10    1
    12     8    10    2
