@<TRIPOS>MOLECULE
/home/cewinharhar/GITHUB/reincatalyze/data/processed/docking_pred/2023-Apr-25-2033_maxeplen5_maxtrainstep200_exh16_gamma099_lrac3e-4_lrcr1e-3/7c86502248d8ce059d377094dc2c2500eee92fd7_ligand_2.pdbqt
 12 12 0 0 0
SMALL
GASTEIGER

@<TRIPOS>ATOM
      1  C          5.0370    1.7690    0.7390 C.3     1  UNL1        0.1270
      2  C          4.4670    1.1020    1.9380 C.2     1  UNL1        0.3030
      3  O          5.1160    0.1830    2.4940 O.2     1  UNL1       -0.2520
      4  O          3.2320    1.4570    2.4760 O.3     1  UNL1       -0.4810
      5  H          3.0620    2.3920    2.8770 H       1  UNL1        0.2960
      6  C          6.5340    1.6890    0.8450 C.3     1  UNL1        0.0470
      7  C          7.1440    0.9440   -0.2870 C.2     1  UNL1       -0.0470
      8  C          8.4360    1.2030   -0.7010 C.2     1  UNL1        0.0040
      9  C          6.4570   -0.0380   -0.9760 C.2     1  UNL1        0.0040
     10  C          8.9940    0.5040   -1.7550 C.2     1  UNL1        0.0000
     11  C          7.0110   -0.7360   -2.0270 C.2     1  UNL1        0.0000
     12  C          8.3020   -0.4740   -2.4390 C.2     1  UNL1        0.0000
@<TRIPOS>BOND
     1    12    11    2
     2    12    10    1
     3    11     9    1
     4    10     8    2
     5     9     7    2
     6     8     7    1
     7     7     6    1
     8     1     6    1
     9     1     2    1
    10     2     4    1
    11     2     3    2
    12     4     5    1
