@<TRIPOS>MOLECULE
/home/cewinharhar/GITHUB/reincatalyze/data/processed/docking_pred/2023-Apr-25-2033_maxeplen5_maxtrainstep200_exh16_gamma099_lrac3e-4_lrcr1e-3/7c86502248d8ce059d377094dc2c2500eee92fd7_ligand_2.pdbqt
 12 12 0 0 0
SMALL
GASTEIGER

@<TRIPOS>ATOM
      1  C          8.4520   -0.6440   -2.0990 C.3     1  UNL1        0.1270
      2  C          8.4260   -1.9100   -2.8770 C.2     1  UNL1        0.3030
      3  O          7.3210   -2.4000   -3.2120 O.2     1  UNL1       -0.2520
      4  O          9.5870   -2.5790   -3.2540 O.3     1  UNL1       -0.4810
      5  H          9.8030   -2.7820   -4.2420 H       1  UNL1        0.2960
      6  C          7.0620   -0.0700   -2.1230 C.3     1  UNL1        0.0470
      7  C          6.4880    0.0830   -0.7610 C.2     1  UNL1       -0.0470
      8  C          6.6020   -0.9210    0.1810 C.2     1  UNL1        0.0040
      9  C          5.8170    1.2270   -0.3690 C.2     1  UNL1        0.0040
     10  C          6.0640   -0.7690    1.4450 C.2     1  UNL1        0.0000
     11  C          5.2810    1.3810    0.8890 C.2     1  UNL1        0.0000
     12  C          5.3960    0.3760    1.8280 C.2     1  UNL1        0.0000
@<TRIPOS>BOND
     1     5     4    1
     2     4     2    1
     3     3     2    2
     4     2     1    1
     5     6     1    1
     6     6     7    1
     7     7     9    2
     8     7     8    1
     9     9    11    1
    10     8    10    2
    11    11    12    2
    12    10    12    1
