@<TRIPOS>MOLECULE
/home/cewinharhar/GITHUB/reincatalyze/data/processed/docking_pred/2023-Apr-25-2033_maxeplen5_maxtrainstep200_exh16_gamma099_lrac3e-4_lrcr1e-3/7c86502248d8ce059d377094dc2c2500eee92fd7_ligand_2.pdbqt
 12 12 0 0 0
SMALL
GASTEIGER

@<TRIPOS>ATOM
      1  C          8.4460   -0.7280   -1.9880 C.3     1  UNL1        0.1270
      2  C          8.4190   -1.9390   -2.8480 C.2     1  UNL1        0.3030
      3  O          7.3130   -2.4140   -3.2020 O.2     1  UNL1       -0.2520
      4  O          9.5800   -2.5750   -3.2800 O.3     1  UNL1       -0.4810
      5  H          9.5590   -3.3220   -3.9920 H       1  UNL1        0.2960
      6  C          7.0850   -0.0920   -2.0590 C.3     1  UNL1        0.0470
      7  C          6.4740    0.0910   -0.7160 C.2     1  UNL1       -0.0470
      8  C          5.8010    1.2520   -0.3890 C.2     1  UNL1        0.0040
      9  C          6.5450   -0.8820    0.2630 C.2     1  UNL1        0.0040
     10  C          5.2360    1.4120    0.8620 C.2     1  UNL1        0.0000
     11  C          5.9820   -0.7260    1.5100 C.2     1  UNL1        0.0000
     12  C          5.3110    0.4360    1.8350 C.2     1  UNL1        0.0000
@<TRIPOS>BOND
     1     5     4    1
     2     4     2    1
     3     3     2    2
     4     2     1    1
     5     6     1    1
     6     6     7    1
     7     7     8    2
     8     7     9    1
     9     8    10    1
    10     9    11    2
    11    10    12    2
    12    11    12    1
