@<TRIPOS>MOLECULE
/home/cewinharhar/GITHUB/reincatalyze/data/processed/docking_pred/2023-Apr-25-2033_maxeplen5_maxtrainstep200_exh16_gamma099_lrac3e-4_lrcr1e-3/7c86502248d8ce059d377094dc2c2500eee92fd7_ligand_2.pdbqt
 12 12 0 0 0
SMALL
GASTEIGER

@<TRIPOS>ATOM
      1  C          8.2430   -1.5590    1.0770 C.3     1  UNL1        0.1270
      2  C          8.4980   -2.7840    0.2750 C.2     1  UNL1        0.3030
      3  O          9.1140   -3.7430    0.8010 O.2     1  UNL1       -0.2520
      4  O          8.0770   -2.9140   -1.0460 O.3     1  UNL1       -0.4810
      5  H          8.7430   -2.8900   -1.8330 H       1  UNL1        0.2960
      6  C          6.7590   -1.4630    1.2970 C.3     1  UNL1        0.0470
      7  C          6.1890   -0.1920    0.7770 C.2     1  UNL1       -0.0470
      8  C          5.4120    0.6240    1.5770 C.2     1  UNL1        0.0040
      9  C          6.4060    0.2350   -0.5190 C.2     1  UNL1        0.0040
     10  C          4.8880    1.8030    1.0830 C.2     1  UNL1        0.0000
     11  C          5.8850    1.4100   -1.0130 C.2     1  UNL1        0.0000
     12  C          5.1080    2.2230   -0.2120 C.2     1  UNL1        0.0000
@<TRIPOS>BOND
     1     5     4    1
     2     4     2    1
     3    11     9    1
     4    11    12    2
     5     9     7    2
     6    12    10    1
     7     2     3    2
     8     2     1    1
     9     7     6    1
    10     7     8    1
    11     1     6    1
    12    10     8    2
