MODEL 1
REMARK VINA RESULT:      -7.3      0.000      0.000
REMARK SMILES O=C(O)CCc1ccccc1
REMARK SMILES IDX 4 1 2 2 1 3 3 4 5 6 6 7 7 8 11 9 8 10 10 11 9 12
REMARK H PARENT 3 5
REMARK Flexibility Score: inf
ROOT
ATOM      1  C   UNL     1       8.452  -0.644  -2.099  1.00  0.00     0.127 C 
ENDROOT
BRANCH   1   2
ATOM      2  C   UNL     1       8.426  -1.910  -2.877  1.00  0.00     0.303 C 
ATOM      3  O   UNL     1       7.321  -2.400  -3.212  1.00  0.00    -0.252 OA
BRANCH   2   4
ATOM      4  O   UNL     1       9.587  -2.579  -3.254  1.00  0.00    -0.481 OA
ATOM      5  H   UNL     1       9.803  -2.782  -4.242  1.00  0.00     0.296 HD
ENDBRANCH   2   4
ENDBRANCH   1   2
BRANCH   1   6
ATOM      6  C   UNL     1       7.062  -0.070  -2.123  1.00  0.00     0.047 C 
BRANCH   6   7
ATOM      7  C   UNL     1       6.488   0.083  -0.761  1.00  0.00    -0.047 A 
ATOM      8  C   UNL     1       6.602  -0.921   0.181  1.00  0.00     0.004 A 
ATOM      9  C   UNL     1       5.817   1.227  -0.369  1.00  0.00     0.004 A 
ATOM     10  C   UNL     1       6.064  -0.769   1.445  1.00  0.00     0.000 A 
ATOM     11  C   UNL     1       5.281   1.381   0.889  1.00  0.00     0.000 A 
ATOM     12  C   UNL     1       5.396   0.376   1.828  1.00  0.00     0.000 A 
ENDBRANCH   6   7
ENDBRANCH   1   6
TORSDOF 4
ENDMDL
MODEL 2
REMARK VINA RESULT:      -7.3      0.080      1.421
REMARK SMILES O=C(O)CCc1ccccc1
REMARK SMILES IDX 4 1 2 2 1 3 3 4 5 6 6 7 7 8 11 9 8 10 10 11 9 12
REMARK H PARENT 3 5
REMARK Flexibility Score: inf
ROOT
ATOM      1  C   UNL     1       8.446  -0.728  -1.988  1.00  0.00     0.127 C 
ENDROOT
BRANCH   1   2
ATOM      2  C   UNL     1       8.419  -1.939  -2.848  1.00  0.00     0.303 C 
ATOM      3  O   UNL     1       7.313  -2.414  -3.202  1.00  0.00    -0.252 OA
BRANCH   2   4
ATOM      4  O   UNL     1       9.580  -2.575  -3.280  1.00  0.00    -0.481 OA
ATOM      5  H   UNL     1       9.559  -3.322  -3.992  1.00  0.00     0.296 HD
ENDBRANCH   2   4
ENDBRANCH   1   2
BRANCH   1   6
ATOM      6  C   UNL     1       7.085  -0.092  -2.059  1.00  0.00     0.047 C 
BRANCH   6   7
ATOM      7  C   UNL     1       6.474   0.091  -0.716  1.00  0.00    -0.047 A 
ATOM      8  C   UNL     1       5.801   1.252  -0.389  1.00  0.00     0.004 A 
ATOM      9  C   UNL     1       6.545  -0.882   0.263  1.00  0.00     0.004 A 
ATOM     10  C   UNL     1       5.236   1.412   0.862  1.00  0.00     0.000 A 
ATOM     11  C   UNL     1       5.982  -0.726   1.510  1.00  0.00     0.000 A 
ATOM     12  C   UNL     1       5.311   0.436   1.835  1.00  0.00     0.000 A 
ENDBRANCH   6   7
ENDBRANCH   1   6
TORSDOF 4
ENDMDL
MODEL 3
REMARK VINA RESULT:      -7.0      1.050      1.592
REMARK SMILES O=C(O)CCc1ccccc1
REMARK SMILES IDX 4 1 2 2 1 3 3 4 5 6 6 7 7 8 11 9 8 10 10 11 9 12
REMARK H PARENT 3 5
REMARK Flexibility Score: inf
ROOT
ATOM      1  C   UNL     1       7.285  -1.387  -2.159  1.00  0.00     0.127 C 
ENDROOT
BRANCH   1   2
ATOM      2  C   UNL     1       8.726  -1.409  -2.520  1.00  0.00     0.303 C 
ATOM      3  O   UNL     1       9.485  -0.519  -2.065  1.00  0.00    -0.252 OA
BRANCH   2   4
ATOM      4  O   UNL     1       9.274  -2.385  -3.348  1.00  0.00    -0.481 OA
ATOM      5  H   UNL     1       9.905  -3.115  -2.984  1.00  0.00     0.296 HD
ENDBRANCH   2   4
ENDBRANCH   1   2
BRANCH   1   6
ATOM      6  C   UNL     1       7.194  -1.397  -0.658  1.00  0.00     0.047 C 
BRANCH   6   7
ATOM      7  C   UNL     1       6.421  -0.243  -0.128  1.00  0.00    -0.047 A 
ATOM      8  C   UNL     1       5.935  -0.240   1.165  1.00  0.00     0.004 A 
ATOM      9  C   UNL     1       6.152   0.876  -0.894  1.00  0.00     0.004 A 
ATOM     10  C   UNL     1       5.218   0.838   1.647  1.00  0.00     0.000 A 
ATOM     11  C   UNL     1       5.437   1.951  -0.416  1.00  0.00     0.000 A 
ATOM     12  C   UNL     1       4.953   1.951   0.876  1.00  0.00     0.000 A 
ENDBRANCH   6   7
ENDBRANCH   1   6
TORSDOF 4
ENDMDL
MODEL 4
REMARK VINA RESULT:      -6.8      3.306      5.183
REMARK SMILES O=C(O)CCc1ccccc1
REMARK SMILES IDX 4 1 2 2 1 3 3 4 5 6 6 7 7 8 11 9 8 10 10 11 9 12
REMARK H PARENT 3 5
REMARK Flexibility Score: inf
ROOT
ATOM      1  C   UNL     1       5.037   1.769   0.739  1.00  0.00     0.127 C 
ENDROOT
BRANCH   1   2
ATOM      2  C   UNL     1       4.467   1.102   1.938  1.00  0.00     0.303 C 
ATOM      3  O   UNL     1       5.116   0.183   2.494  1.00  0.00    -0.252 OA
BRANCH   2   4
ATOM      4  O   UNL     1       3.232   1.457   2.476  1.00  0.00    -0.481 OA
ATOM      5  H   UNL     1       3.062   2.392   2.877  1.00  0.00     0.296 HD
ENDBRANCH   2   4
ENDBRANCH   1   2
BRANCH   1   6
ATOM      6  C   UNL     1       6.534   1.689   0.845  1.00  0.00     0.047 C 
BRANCH   6   7
ATOM      7  C   UNL     1       7.144   0.944  -0.287  1.00  0.00    -0.047 A 
ATOM      8  C   UNL     1       8.436   1.203  -0.701  1.00  0.00     0.004 A 
ATOM      9  C   UNL     1       6.457  -0.038  -0.976  1.00  0.00     0.004 A 
ATOM     10  C   UNL     1       8.994   0.504  -1.755  1.00  0.00     0.000 A 
ATOM     11  C   UNL     1       7.011  -0.736  -2.027  1.00  0.00     0.000 A 
ATOM     12  C   UNL     1       8.302  -0.474  -2.439  1.00  0.00     0.000 A 
ENDBRANCH   6   7
ENDBRANCH   1   6
TORSDOF 4
ENDMDL
MODEL 5
REMARK VINA RESULT:      -6.6      1.879      2.911
REMARK SMILES O=C(O)CCc1ccccc1
REMARK SMILES IDX 4 1 2 2 1 3 3 4 5 6 6 7 7 8 11 9 8 10 10 11 9 12
REMARK H PARENT 3 5
REMARK Flexibility Score: inf
ROOT
ATOM      1  C   UNL     1       8.243  -1.559   1.077  1.00  0.00     0.127 C 
ENDROOT
BRANCH   1   2
ATOM      2  C   UNL     1       8.498  -2.784   0.275  1.00  0.00     0.303 C 
ATOM      3  O   UNL     1       9.114  -3.743   0.801  1.00  0.00    -0.252 OA
BRANCH   2   4
ATOM      4  O   UNL     1       8.077  -2.914  -1.046  1.00  0.00    -0.481 OA
ATOM      5  H   UNL     1       8.743  -2.890  -1.833  1.00  0.00     0.296 HD
ENDBRANCH   2   4
ENDBRANCH   1   2
BRANCH   1   6
ATOM      6  C   UNL     1       6.759  -1.463   1.297  1.00  0.00     0.047 C 
BRANCH   6   7
ATOM      7  C   UNL     1       6.189  -0.192   0.777  1.00  0.00    -0.047 A 
ATOM      8  C   UNL     1       5.412   0.624   1.577  1.00  0.00     0.004 A 
ATOM      9  C   UNL     1       6.406   0.235  -0.519  1.00  0.00     0.004 A 
ATOM     10  C   UNL     1       4.888   1.803   1.083  1.00  0.00     0.000 A 
ATOM     11  C   UNL     1       5.885   1.410  -1.013  1.00  0.00     0.000 A 
ATOM     12  C   UNL     1       5.108   2.223  -0.212  1.00  0.00     0.000 A 
ENDBRANCH   6   7
ENDBRANCH   1   6
TORSDOF 4
ENDMDL
