@<TRIPOS>MOLECULE
/home/cewinharhar/GITHUB/reincatalyze/data/processed/docking_pred/2023-Apr-25-2033_maxeplen5_maxtrainstep200_exh16_gamma099_lrac3e-4_lrcr1e-3/7d60c2a66717a3f4b6d307e9593656cfb0aaeeb8_ligand_2.pdbqt
 12 12 0 0 0
SMALL
GASTEIGER

@<TRIPOS>ATOM
      1  C          8.1960   -1.5570    1.1310 C.3     1  UNL1        0.1270
      2  C          8.4840   -2.7670    0.3180 C.2     1  UNL1        0.3030
      3  O          9.1180   -3.7170    0.8370 O.2     1  UNL1       -0.2520
      4  O          8.0750   -2.8910   -1.0070 O.3     1  UNL1       -0.4810
      5  H          7.5630   -3.7210   -1.3430 H       1  UNL1        0.2960
      6  C          6.7040   -1.4640    1.2930 C.3     1  UNL1        0.0470
      7  C          6.1550   -0.1840    0.7740 C.2     1  UNL1       -0.0470
      8  C          6.3930    0.2210   -0.5250 C.2     1  UNL1        0.0040
      9  C          5.3850    0.6570    1.5550 C.2     1  UNL1        0.0040
     10  C          5.8780    1.4130   -0.9980 C.2     1  UNL1        0.0000
     11  C          4.8710    1.8450    1.0860 C.2     1  UNL1        0.0000
     12  C          5.1110    2.2480   -0.2120 C.2     1  UNL1        0.0000
@<TRIPOS>BOND
     1     5     4    1
     2     4     2    1
     3    10     8    1
     4    10    12    2
     5     8     7    2
     6    12    11    1
     7     2     3    2
     8     2     1    1
     9     7     6    1
    10     7     9    1
    11    11     9    2
    12     1     6    1
