@<TRIPOS>MOLECULE
/home/cewinharhar/GITHUB/reincatalyze/data/processed/docking_pred/2023-Apr-25-2033_maxeplen5_maxtrainstep200_exh16_gamma099_lrac3e-4_lrcr1e-3/7d60c2a66717a3f4b6d307e9593656cfb0aaeeb8_ligand_2.pdbqt
 12 12 0 0 0
SMALL
GASTEIGER

@<TRIPOS>ATOM
      1  C          5.3500    2.9400    0.1270 C.3     1  UNL1        0.1270
      2  C          6.2320    3.8610    0.8900 C.2     1  UNL1        0.3030
      3  O          6.8650    4.7530    0.2750 O.2     1  UNL1       -0.2520
      4  O          6.3860    3.7750    2.2720 O.3     1  UNL1       -0.4810
      5  H          6.8420    2.9650    2.7190 H       1  UNL1        0.2960
      6  C          5.2850    1.6440    0.8860 C.3     1  UNL1        0.0470
      7  C          6.0530    0.5580    0.2210 C.2     1  UNL1       -0.0470
      8  C          6.4990   -0.5400    0.9310 C.2     1  UNL1        0.0040
      9  C          6.3570    0.5910   -1.1270 C.2     1  UNL1        0.0040
     10  C          7.2120   -1.5440    0.3030 C.2     1  UNL1        0.0000
     11  C          7.0670   -0.4080   -1.7550 C.2     1  UNL1        0.0000
     12  C          7.5120   -1.5040   -1.0430 C.2     1  UNL1        0.0000
@<TRIPOS>BOND
     1    11     9    1
     2    11    12    2
     3     9     7    2
     4    12    10    1
     5     1     6    1
     6     1     2    1
     7     7     6    1
     8     7     8    1
     9     3     2    2
    10    10     8    2
    11     2     4    1
    12     4     5    1
