@<TRIPOS>MOLECULE
/home/cewinharhar/GITHUB/reincatalyze/data/processed/docking_pred/2023-Apr-25-2033_maxeplen5_maxtrainstep200_exh16_gamma099_lrac3e-4_lrcr1e-3/7d60c2a66717a3f4b6d307e9593656cfb0aaeeb8_ligand_2.pdbqt
 12 12 0 0 0
SMALL
GASTEIGER

@<TRIPOS>ATOM
      1  C          8.4160   -0.6140   -2.1650 C.3     1  UNL1        0.1270
      2  C          8.4020   -1.9080   -2.8960 C.2     1  UNL1        0.3030
      3  O          7.3020   -2.4080   -3.2330 O.2     1  UNL1       -0.2520
      4  O          9.5680   -2.5920   -3.2260 O.3     1  UNL1       -0.4810
      5  H          9.8250   -2.7910   -4.2050 H       1  UNL1        0.2960
      6  C          7.0090   -0.0840   -2.1550 C.3     1  UNL1        0.0470
      7  C          6.4670    0.0610   -0.7790 C.2     1  UNL1       -0.0470
      8  C          5.8080    1.2100   -0.3870 C.2     1  UNL1        0.0040
      9  C          6.5910   -0.9370    0.1690 C.2     1  UNL1        0.0040
     10  C          5.3080    1.3350    0.8950 C.2     1  UNL1        0.0000
     11  C          6.0930   -0.8150    1.4470 C.2     1  UNL1        0.0000
     12  C          5.4360    0.3350    1.8370 C.2     1  UNL1        0.0000
@<TRIPOS>BOND
     1     5     4    1
     2     3     2    2
     3     4     2    1
     4     2     1    1
     5     1     6    1
     6     6     7    1
     7     7     8    2
     8     7     9    1
     9     8    10    1
    10     9    11    2
    11    10    12    2
    12    11    12    1
