MODEL 1
REMARK VINA RESULT:      -7.3      0.000      0.000
REMARK SMILES O=C(O)CCc1ccccc1
REMARK SMILES IDX 4 1 2 2 1 3 3 4 5 6 6 7 7 8 11 9 8 10 10 11 9 12
REMARK H PARENT 3 5
REMARK Flexibility Score: inf
ROOT
ATOM      1  C   UNL     1       8.467  -0.591  -2.185  1.00  0.00     0.127 C 
ENDROOT
BRANCH   1   2
ATOM      2  C   UNL     1       8.475  -1.882  -2.921  1.00  0.00     0.303 C 
ATOM      3  O   UNL     1       9.563  -2.485  -3.087  1.00  0.00    -0.252 OA
BRANCH   2   4
ATOM      4  O   UNL     1       7.316  -2.456  -3.437  1.00  0.00    -0.481 OA
ATOM      5  H   UNL     1       6.460  -1.904  -3.597  1.00  0.00     0.296 HD
ENDBRANCH   2   4
ENDBRANCH   1   2
BRANCH   1   6
ATOM      6  C   UNL     1       7.053  -0.079  -2.187  1.00  0.00     0.047 C 
BRANCH   6   7
ATOM      7  C   UNL     1       6.501   0.067  -0.814  1.00  0.00    -0.047 A 
ATOM      8  C   UNL     1       6.624  -0.945   0.118  1.00  0.00     0.004 A 
ATOM      9  C   UNL     1       5.844   1.213  -0.404  1.00  0.00     0.004 A 
ATOM     10  C   UNL     1       6.107  -0.798   1.391  1.00  0.00     0.000 A 
ATOM     11  C   UNL     1       5.328   1.361   0.864  1.00  0.00     0.000 A 
ATOM     12  C   UNL     1       5.452   0.348   1.793  1.00  0.00     0.000 A 
ENDBRANCH   6   7
ENDBRANCH   1   6
TORSDOF 4
ENDMDL
MODEL 2
REMARK VINA RESULT:      -7.2      0.097      1.718
REMARK SMILES O=C(O)CCc1ccccc1
REMARK SMILES IDX 4 1 2 2 1 3 3 4 5 6 6 7 7 8 11 9 8 10 10 11 9 12
REMARK H PARENT 3 5
REMARK Flexibility Score: inf
ROOT
ATOM      1  C   UNL     1       8.416  -0.614  -2.165  1.00  0.00     0.127 C 
ENDROOT
BRANCH   1   2
ATOM      2  C   UNL     1       8.402  -1.908  -2.896  1.00  0.00     0.303 C 
ATOM      3  O   UNL     1       7.302  -2.408  -3.233  1.00  0.00    -0.252 OA
BRANCH   2   4
ATOM      4  O   UNL     1       9.568  -2.592  -3.226  1.00  0.00    -0.481 OA
ATOM      5  H   UNL     1       9.825  -2.791  -4.205  1.00  0.00     0.296 HD
ENDBRANCH   2   4
ENDBRANCH   1   2
BRANCH   1   6
ATOM      6  C   UNL     1       7.009  -0.084  -2.155  1.00  0.00     0.047 C 
BRANCH   6   7
ATOM      7  C   UNL     1       6.467   0.061  -0.779  1.00  0.00    -0.047 A 
ATOM      8  C   UNL     1       5.808   1.210  -0.387  1.00  0.00     0.004 A 
ATOM      9  C   UNL     1       6.591  -0.937   0.169  1.00  0.00     0.004 A 
ATOM     10  C   UNL     1       5.308   1.335   0.895  1.00  0.00     0.000 A 
ATOM     11  C   UNL     1       6.093  -0.815   1.447  1.00  0.00     0.000 A 
ATOM     12  C   UNL     1       5.436   0.335   1.837  1.00  0.00     0.000 A 
ENDBRANCH   6   7
ENDBRANCH   1   6
TORSDOF 4
ENDMDL
MODEL 3
REMARK VINA RESULT:      -6.8      3.382      5.093
REMARK SMILES O=C(O)CCc1ccccc1
REMARK SMILES IDX 4 1 2 2 1 3 3 4 5 6 6 7 7 8 11 9 8 10 10 11 9 12
REMARK H PARENT 3 5
REMARK Flexibility Score: inf
ROOT
ATOM      1  C   UNL     1       4.988   1.791   0.689  1.00  0.00     0.127 C 
ENDROOT
BRANCH   1   2
ATOM      2  C   UNL     1       4.474   1.122   1.912  1.00  0.00     0.303 C 
ATOM      3  O   UNL     1       5.168   0.233   2.461  1.00  0.00    -0.252 OA
BRANCH   2   4
ATOM      4  O   UNL     1       3.243   1.443   2.479  1.00  0.00    -0.481 OA
ATOM      5  H   UNL     1       2.576   0.716   2.779  1.00  0.00     0.296 HD
ENDBRANCH   2   4
ENDBRANCH   1   2
BRANCH   1   6
ATOM      6  C   UNL     1       6.489   1.800   0.775  1.00  0.00     0.047 C 
BRANCH   6   7
ATOM      7  C   UNL     1       7.126   1.032  -0.326  1.00  0.00    -0.047 A 
ATOM      8  C   UNL     1       8.455   1.218  -0.654  1.00  0.00     0.004 A 
ATOM      9  C   UNL     1       6.428   0.099  -1.071  1.00  0.00     0.004 A 
ATOM     10  C   UNL     1       9.036   0.498  -1.680  1.00  0.00     0.000 A 
ATOM     11  C   UNL     1       7.005  -0.619  -2.094  1.00  0.00     0.000 A 
ATOM     12  C   UNL     1       8.334  -0.431  -2.419  1.00  0.00     0.000 A 
ENDBRANCH   6   7
ENDBRANCH   1   6
TORSDOF 4
ENDMDL
MODEL 4
REMARK VINA RESULT:      -6.6      1.879      2.844
REMARK SMILES O=C(O)CCc1ccccc1
REMARK SMILES IDX 4 1 2 2 1 3 3 4 5 6 6 7 7 8 11 9 8 10 10 11 9 12
REMARK H PARENT 3 5
REMARK Flexibility Score: inf
ROOT
ATOM      1  C   UNL     1       8.196  -1.557   1.131  1.00  0.00     0.127 C 
ENDROOT
BRANCH   1   2
ATOM      2  C   UNL     1       8.484  -2.767   0.318  1.00  0.00     0.303 C 
ATOM      3  O   UNL     1       9.118  -3.717   0.837  1.00  0.00    -0.252 OA
BRANCH   2   4
ATOM      4  O   UNL     1       8.075  -2.891  -1.007  1.00  0.00    -0.481 OA
ATOM      5  H   UNL     1       7.563  -3.721  -1.343  1.00  0.00     0.296 HD
ENDBRANCH   2   4
ENDBRANCH   1   2
BRANCH   1   6
ATOM      6  C   UNL     1       6.704  -1.464   1.293  1.00  0.00     0.047 C 
BRANCH   6   7
ATOM      7  C   UNL     1       6.155  -0.184   0.774  1.00  0.00    -0.047 A 
ATOM      8  C   UNL     1       6.393   0.221  -0.525  1.00  0.00     0.004 A 
ATOM      9  C   UNL     1       5.385   0.657   1.555  1.00  0.00     0.004 A 
ATOM     10  C   UNL     1       5.878   1.413  -0.998  1.00  0.00     0.000 A 
ATOM     11  C   UNL     1       4.871   1.845   1.086  1.00  0.00     0.000 A 
ATOM     12  C   UNL     1       5.111   2.248  -0.212  1.00  0.00     0.000 A 
ENDBRANCH   6   7
ENDBRANCH   1   6
TORSDOF 4
ENDMDL
MODEL 5
REMARK VINA RESULT:      -6.5      3.737      4.992
REMARK SMILES O=C(O)CCc1ccccc1
REMARK SMILES IDX 4 1 2 2 1 3 3 4 5 6 6 7 7 8 11 9 8 10 10 11 9 12
REMARK H PARENT 3 5
REMARK Flexibility Score: inf
ROOT
ATOM      1  C   UNL     1       5.350   2.940   0.127  1.00  0.00     0.127 C 
ENDROOT
BRANCH   1   2
ATOM      2  C   UNL     1       6.232   3.861   0.890  1.00  0.00     0.303 C 
ATOM      3  O   UNL     1       6.865   4.753   0.275  1.00  0.00    -0.252 OA
BRANCH   2   4
ATOM      4  O   UNL     1       6.386   3.775   2.272  1.00  0.00    -0.481 OA
ATOM      5  H   UNL     1       6.842   2.965   2.719  1.00  0.00     0.296 HD
ENDBRANCH   2   4
ENDBRANCH   1   2
BRANCH   1   6
ATOM      6  C   UNL     1       5.285   1.644   0.886  1.00  0.00     0.047 C 
BRANCH   6   7
ATOM      7  C   UNL     1       6.053   0.558   0.221  1.00  0.00    -0.047 A 
ATOM      8  C   UNL     1       6.499  -0.540   0.931  1.00  0.00     0.004 A 
ATOM      9  C   UNL     1       6.357   0.591  -1.127  1.00  0.00     0.004 A 
ATOM     10  C   UNL     1       7.212  -1.544   0.303  1.00  0.00     0.000 A 
ATOM     11  C   UNL     1       7.067  -0.408  -1.755  1.00  0.00     0.000 A 
ATOM     12  C   UNL     1       7.512  -1.504  -1.043  1.00  0.00     0.000 A 
ENDBRANCH   6   7
ENDBRANCH   1   6
TORSDOF 4
ENDMDL
