@<TRIPOS>MOLECULE
/home/cewinharhar/GITHUB/reincatalyze/data/processed/docking_pred/2023-Apr-25-2033_maxeplen5_maxtrainstep200_exh16_gamma099_lrac3e-4_lrcr1e-3/7d60c2a66717a3f4b6d307e9593656cfb0aaeeb8_ligand_2.pdbqt
 12 12 0 0 0
SMALL
GASTEIGER

@<TRIPOS>ATOM
      1  C          4.9880    1.7910    0.6890 C.3     1  UNL1        0.1270
      2  C          4.4740    1.1220    1.9120 C.2     1  UNL1        0.3030
      3  O          5.1680    0.2330    2.4610 O.2     1  UNL1       -0.2520
      4  O          3.2430    1.4430    2.4790 O.3     1  UNL1       -0.4810
      5  H          2.5760    0.7160    2.7790 H       1  UNL1        0.2960
      6  C          6.4890    1.8000    0.7750 C.3     1  UNL1        0.0470
      7  C          7.1260    1.0320   -0.3260 C.2     1  UNL1       -0.0470
      8  C          8.4550    1.2180   -0.6540 C.2     1  UNL1        0.0040
      9  C          6.4280    0.0990   -1.0710 C.2     1  UNL1        0.0040
     10  C          9.0360    0.4980   -1.6800 C.2     1  UNL1        0.0000
     11  C          7.0050   -0.6190   -2.0940 C.2     1  UNL1        0.0000
     12  C          8.3340   -0.4310   -2.4190 C.2     1  UNL1        0.0000
@<TRIPOS>BOND
     1    12    11    2
     2    12    10    1
     3    11     9    1
     4    10     8    2
     5     9     7    2
     6     8     7    1
     7     7     6    1
     8     1     6    1
     9     1     2    1
    10     2     3    2
    11     2     4    1
    12     4     5    1
