@<TRIPOS>MOLECULE
/home/cewinharhar/GITHUB/reincatalyze/data/processed/docking_pred/2023-Apr-25-2033_maxeplen5_maxtrainstep200_exh16_gamma099_lrac3e-4_lrcr1e-3/7e2b2812a39c1bf8d23d6aab3a18bb39f1acac0e_ligand_2.pdbqt
 12 12 0 0 0
SMALL
GASTEIGER

@<TRIPOS>ATOM
      1  C          5.8670   -0.9090    1.7330 C.3     1  UNL1        0.1270
      2  C          5.3290    0.4450    2.0250 C.2     1  UNL1        0.3030
      3  O          4.1610    0.5560    2.4710 O.2     1  UNL1       -0.2520
      4  O          6.0720    1.6040    1.8220 O.3     1  UNL1       -0.4810
      5  H          5.8800    2.4720    2.3460 H       1  UNL1        0.2960
      6  C          7.3450   -0.7670    1.4930 C.3     1  UNL1        0.0470
      7  C          7.6790   -0.6800    0.0470 C.2     1  UNL1       -0.0470
      8  C          8.8110   -0.0170   -0.3870 C.2     1  UNL1        0.0040
      9  C          6.8830   -1.2540   -0.9270 C.2     1  UNL1        0.0040
     10  C          9.1120    0.0570   -1.7340 C.2     1  UNL1        0.0000
     11  C          7.1820   -1.1810   -2.2700 C.2     1  UNL1        0.0000
     12  C          8.3130   -0.5180   -2.7010 C.2     1  UNL1        0.0000
@<TRIPOS>BOND
     1    12    11    2
     2    12    10    1
     3    11     9    1
     4    10     8    2
     5     9     7    2
     6     8     7    1
     7     7     6    1
     8     6     1    1
     9     1     2    1
    10     4     2    1
    11     4     5    1
    12     2     3    2
