@<TRIPOS>MOLECULE
/home/cewinharhar/GITHUB/reincatalyze/data/processed/docking_pred/2023-Apr-25-2033_maxeplen5_maxtrainstep200_exh16_gamma099_lrac3e-4_lrcr1e-3/7e2b2812a39c1bf8d23d6aab3a18bb39f1acac0e_ligand_2.pdbqt
 12 12 0 0 0
SMALL
GASTEIGER

@<TRIPOS>ATOM
      1  C          8.3460   -0.7470   -2.1250 C.3     1  UNL1        0.1270
      2  C          8.4370   -1.9900   -2.9350 C.2     1  UNL1        0.3030
      3  O          9.5590   -2.5230   -3.1150 O.2     1  UNL1       -0.2520
      4  O          7.3200   -2.5920   -3.5070 O.3     1  UNL1       -0.4810
      5  H          6.6260   -3.1020   -2.9400 H       1  UNL1        0.2960
      6  C          6.9010   -0.5490   -1.7610 C.3     1  UNL1        0.0470
      7  C          6.6620   -0.6730   -0.2990 C.2     1  UNL1       -0.0470
      8  C          7.2410   -1.6890    0.4370 C.2     1  UNL1        0.0040
      9  C          5.8570    0.2130    0.3920 C.2     1  UNL1        0.0040
     10  C          7.0110   -1.7950    1.7950 C.2     1  UNL1        0.0000
     11  C          5.6270    0.1090    1.7460 C.2     1  UNL1        0.0000
     12  C          6.2060   -0.9070    2.4790 C.2     1  UNL1        0.0000
@<TRIPOS>BOND
     1     4     5    1
     2     4     2    1
     3     3     2    2
     4     2     1    1
     5     1     6    1
     6     6     7    1
     7     7     9    2
     8     7     8    1
     9     9    11    1
    10     8    10    2
    11    11    12    2
    12    10    12    1
