@<TRIPOS>MOLECULE
/home/cewinharhar/GITHUB/reincatalyze/data/processed/docking_pred/2023-Apr-25-2033_maxeplen5_maxtrainstep200_exh16_gamma099_lrac3e-4_lrcr1e-3/7e2b2812a39c1bf8d23d6aab3a18bb39f1acac0e_ligand_2.pdbqt
 12 12 0 0 0
SMALL
GASTEIGER

@<TRIPOS>ATOM
      1  C          8.2900   -1.2860   -2.0260 C.3     1  UNL1        0.1270
      2  C          8.9340    0.0540   -2.0310 C.2     1  UNL1        0.3030
      3  O          8.3930    0.9900   -2.6680 O.2     1  UNL1       -0.2520
      4  O         10.1210    0.3150   -1.3520 O.3     1  UNL1       -0.4810
      5  H         10.2220    0.1310   -0.3420 H       1  UNL1        0.2960
      6  C          6.8350   -1.0880   -1.7020 C.3     1  UNL1        0.0470
      7  C          6.5960   -0.9210   -0.2440 C.2     1  UNL1       -0.0470
      8  C          5.8720    0.1500    0.2440 C.2     1  UNL1        0.0040
      9  C          7.0800   -1.8200    0.6880 C.2     1  UNL1        0.0040
     10  C          5.6560    0.2950    1.6010 C.2     1  UNL1        0.0000
     11  C          6.8660   -1.6770    2.0410 C.2     1  UNL1        0.0000
     12  C          6.1420   -0.6060    2.5260 C.2     1  UNL1        0.0000
@<TRIPOS>BOND
     1     3     2    2
     2     2     1    1
     3     2     4    1
     4     1     6    1
     5     6     7    1
     6     4     5    1
     7     7     8    2
     8     7     9    1
     9     8    10    1
    10     9    11    2
    11    10    12    2
    12    11    12    1
