@<TRIPOS>MOLECULE
/home/cewinharhar/GITHUB/reincatalyze/data/processed/docking_pred/2023-Apr-25-2033_maxeplen5_maxtrainstep200_exh16_gamma099_lrac3e-4_lrcr1e-3/7e2b2812a39c1bf8d23d6aab3a18bb39f1acac0e_ligand_2.pdbqt
 12 12 0 0 0
SMALL
GASTEIGER

@<TRIPOS>ATOM
      1  C          5.9860   -0.9140    1.8460 C.3     1  UNL1        0.1270
      2  C          5.4170    0.4410    2.0660 C.2     1  UNL1        0.3030
      3  O          4.2270    0.5500    2.4500 O.2     1  UNL1       -0.2520
      4  O          6.1550    1.6040    1.8620 O.3     1  UNL1       -0.4810
      5  H          6.0430    2.4320    2.4660 H       1  UNL1        0.2960
      6  C          7.4480   -0.7460    1.5370 C.3     1  UNL1        0.0470
      7  C          7.7140   -0.6610    0.0770 C.2     1  UNL1       -0.0470
      8  C          6.8560   -1.2350   -0.8410 C.2     1  UNL1        0.0040
      9  C          8.8220   -0.0090   -0.4320 C.2     1  UNL1        0.0040
     10  C          7.1130   -1.1500   -2.1960 C.2     1  UNL1        0.0000
     11  C          9.0800    0.0770   -1.7820 C.2     1  UNL1        0.0000
     12  C          8.2210   -0.4980   -2.6970 C.2     1  UNL1        0.0000
@<TRIPOS>BOND
     1    12    10    2
     2    12    11    1
     3    10     8    1
     4    11     9    2
     5     8     7    2
     6     9     7    1
     7     7     6    1
     8     6     1    1
     9     1     2    1
    10     4     2    1
    11     4     5    1
    12     2     3    2
