@<TRIPOS>MOLECULE
/home/cewinharhar/GITHUB/reincatalyze/data/processed/docking_pred/2023-Apr-25-2033_maxeplen5_maxtrainstep200_exh16_gamma099_lrac3e-4_lrcr1e-3/7e2b2812a39c1bf8d23d6aab3a18bb39f1acac0e_ligand_2.pdbqt
 12 12 0 0 0
SMALL
GASTEIGER

@<TRIPOS>ATOM
      1  C          8.3320   -0.6770   -2.1730 C.3     1  UNL1        0.1270
      2  C          8.4250   -1.9480   -2.9370 C.2     1  UNL1        0.3030
      3  O          9.5470   -2.4890   -3.0910 O.2     1  UNL1       -0.2520
      4  O          7.3100   -2.5700   -3.4920 O.3     1  UNL1       -0.4810
      5  H          7.3740   -3.4860   -3.9600 H       1  UNL1        0.2960
      6  C          6.8920   -0.4860   -1.7860 C.3     1  UNL1        0.0470
      7  C          6.6700   -0.6500   -0.3250 C.2     1  UNL1       -0.0470
      8  C          5.8610    0.2220    0.3780 C.2     1  UNL1        0.0040
      9  C          7.2550   -1.6730    0.3970 C.2     1  UNL1        0.0040
     10  C          5.6620    0.0600    1.7360 C.2     1  UNL1        0.0000
     11  C          7.0580   -1.8370    1.7500 C.2     1  UNL1        0.0000
     12  C          6.2500   -0.9640    2.4510 C.2     1  UNL1        0.0000
@<TRIPOS>BOND
     1     5     4    1
     2     4     2    1
     3     3     2    2
     4     2     1    1
     5     1     6    1
     6     6     7    1
     7     7     8    2
     8     7     9    1
     9     8    10    1
    10     9    11    2
    11    10    12    2
    12    11    12    1
