MODEL 1
REMARK VINA RESULT:      -6.4      0.000      0.000
REMARK SMILES O=C(O)CCc1ccccc1
REMARK SMILES IDX 4 1 2 2 1 3 3 4 5 6 6 7 7 8 11 9 8 10 10 11 9 12
REMARK H PARENT 3 5
REMARK Flexibility Score: inf
ROOT
ATOM      1  C   UNL     1       8.346  -0.747  -2.125  1.00  0.00     0.127 C 
ENDROOT
BRANCH   1   2
ATOM      2  C   UNL     1       8.437  -1.990  -2.935  1.00  0.00     0.303 C 
ATOM      3  O   UNL     1       9.559  -2.523  -3.115  1.00  0.00    -0.252 OA
BRANCH   2   4
ATOM      4  O   UNL     1       7.320  -2.592  -3.507  1.00  0.00    -0.481 OA
ATOM      5  H   UNL     1       6.626  -3.102  -2.940  1.00  0.00     0.296 HD
ENDBRANCH   2   4
ENDBRANCH   1   2
BRANCH   1   6
ATOM      6  C   UNL     1       6.901  -0.549  -1.761  1.00  0.00     0.047 C 
BRANCH   6   7
ATOM      7  C   UNL     1       6.662  -0.673  -0.299  1.00  0.00    -0.047 A 
ATOM      8  C   UNL     1       7.241  -1.689   0.437  1.00  0.00     0.004 A 
ATOM      9  C   UNL     1       5.857   0.213   0.392  1.00  0.00     0.004 A 
ATOM     10  C   UNL     1       7.011  -1.795   1.795  1.00  0.00     0.000 A 
ATOM     11  C   UNL     1       5.627   0.109   1.746  1.00  0.00     0.000 A 
ATOM     12  C   UNL     1       6.206  -0.907   2.479  1.00  0.00     0.000 A 
ENDBRANCH   6   7
ENDBRANCH   1   6
TORSDOF 4
ENDMDL
MODEL 2
REMARK VINA RESULT:      -6.4      0.057      1.420
REMARK SMILES O=C(O)CCc1ccccc1
REMARK SMILES IDX 4 1 2 2 1 3 3 4 5 6 6 7 7 8 11 9 8 10 10 11 9 12
REMARK H PARENT 3 5
REMARK Flexibility Score: inf
ROOT
ATOM      1  C   UNL     1       8.332  -0.677  -2.173  1.00  0.00     0.127 C 
ENDROOT
BRANCH   1   2
ATOM      2  C   UNL     1       8.425  -1.948  -2.937  1.00  0.00     0.303 C 
ATOM      3  O   UNL     1       9.547  -2.489  -3.091  1.00  0.00    -0.252 OA
BRANCH   2   4
ATOM      4  O   UNL     1       7.310  -2.570  -3.492  1.00  0.00    -0.481 OA
ATOM      5  H   UNL     1       7.374  -3.486  -3.960  1.00  0.00     0.296 HD
ENDBRANCH   2   4
ENDBRANCH   1   2
BRANCH   1   6
ATOM      6  C   UNL     1       6.892  -0.486  -1.786  1.00  0.00     0.047 C 
BRANCH   6   7
ATOM      7  C   UNL     1       6.670  -0.650  -0.325  1.00  0.00    -0.047 A 
ATOM      8  C   UNL     1       5.861   0.222   0.378  1.00  0.00     0.004 A 
ATOM      9  C   UNL     1       7.255  -1.673   0.397  1.00  0.00     0.004 A 
ATOM     10  C   UNL     1       5.662   0.060   1.736  1.00  0.00     0.000 A 
ATOM     11  C   UNL     1       7.058  -1.837   1.750  1.00  0.00     0.000 A 
ATOM     12  C   UNL     1       6.250  -0.964   2.451  1.00  0.00     0.000 A 
ENDBRANCH   6   7
ENDBRANCH   1   6
TORSDOF 4
ENDMDL
MODEL 3
REMARK VINA RESULT:      -6.3      3.214      4.986
REMARK SMILES O=C(O)CCc1ccccc1
REMARK SMILES IDX 4 1 2 2 1 3 3 4 5 6 6 7 7 8 11 9 8 10 10 11 9 12
REMARK H PARENT 3 5
REMARK Flexibility Score: inf
ROOT
ATOM      1  C   UNL     1       5.867  -0.909   1.733  1.00  0.00     0.127 C 
ENDROOT
BRANCH   1   2
ATOM      2  C   UNL     1       5.329   0.445   2.025  1.00  0.00     0.303 C 
ATOM      3  O   UNL     1       4.161   0.556   2.471  1.00  0.00    -0.252 OA
BRANCH   2   4
ATOM      4  O   UNL     1       6.072   1.604   1.822  1.00  0.00    -0.481 OA
ATOM      5  H   UNL     1       5.880   2.472   2.346  1.00  0.00     0.296 HD
ENDBRANCH   2   4
ENDBRANCH   1   2
BRANCH   1   6
ATOM      6  C   UNL     1       7.345  -0.767   1.493  1.00  0.00     0.047 C 
BRANCH   6   7
ATOM      7  C   UNL     1       7.679  -0.680   0.047  1.00  0.00    -0.047 A 
ATOM      8  C   UNL     1       8.811  -0.017  -0.387  1.00  0.00     0.004 A 
ATOM      9  C   UNL     1       6.883  -1.254  -0.927  1.00  0.00     0.004 A 
ATOM     10  C   UNL     1       9.112   0.057  -1.734  1.00  0.00     0.000 A 
ATOM     11  C   UNL     1       7.182  -1.181  -2.270  1.00  0.00     0.000 A 
ATOM     12  C   UNL     1       8.313  -0.518  -2.701  1.00  0.00     0.000 A 
ENDBRANCH   6   7
ENDBRANCH   1   6
TORSDOF 4
ENDMDL
MODEL 4
REMARK VINA RESULT:      -6.3      3.200      4.989
REMARK SMILES O=C(O)CCc1ccccc1
REMARK SMILES IDX 4 1 2 2 1 3 3 4 5 6 6 7 7 8 11 9 8 10 10 11 9 12
REMARK H PARENT 3 5
REMARK Flexibility Score: inf
ROOT
ATOM      1  C   UNL     1       5.986  -0.914   1.846  1.00  0.00     0.127 C 
ENDROOT
BRANCH   1   2
ATOM      2  C   UNL     1       5.417   0.441   2.066  1.00  0.00     0.303 C 
ATOM      3  O   UNL     1       4.227   0.550   2.450  1.00  0.00    -0.252 OA
BRANCH   2   4
ATOM      4  O   UNL     1       6.155   1.604   1.862  1.00  0.00    -0.481 OA
ATOM      5  H   UNL     1       6.043   2.432   2.466  1.00  0.00     0.296 HD
ENDBRANCH   2   4
ENDBRANCH   1   2
BRANCH   1   6
ATOM      6  C   UNL     1       7.448  -0.746   1.537  1.00  0.00     0.047 C 
BRANCH   6   7
ATOM      7  C   UNL     1       7.714  -0.661   0.077  1.00  0.00    -0.047 A 
ATOM      8  C   UNL     1       6.856  -1.235  -0.841  1.00  0.00     0.004 A 
ATOM      9  C   UNL     1       8.822  -0.009  -0.432  1.00  0.00     0.004 A 
ATOM     10  C   UNL     1       7.113  -1.150  -2.196  1.00  0.00     0.000 A 
ATOM     11  C   UNL     1       9.080   0.077  -1.782  1.00  0.00     0.000 A 
ATOM     12  C   UNL     1       8.221  -0.498  -2.697  1.00  0.00     0.000 A 
ENDBRANCH   6   7
ENDBRANCH   1   6
TORSDOF 4
ENDMDL
MODEL 5
REMARK VINA RESULT:      -5.9      1.611      2.391
REMARK SMILES O=C(O)CCc1ccccc1
REMARK SMILES IDX 4 1 2 2 1 3 3 4 5 6 6 7 7 8 11 9 8 10 10 11 9 12
REMARK H PARENT 3 5
REMARK Flexibility Score: inf
ROOT
ATOM      1  C   UNL     1       8.290  -1.286  -2.026  1.00  0.00     0.127 C 
ENDROOT
BRANCH   1   2
ATOM      2  C   UNL     1       8.934   0.054  -2.031  1.00  0.00     0.303 C 
ATOM      3  O   UNL     1       8.393   0.990  -2.668  1.00  0.00    -0.252 OA
BRANCH   2   4
ATOM      4  O   UNL     1      10.121   0.315  -1.352  1.00  0.00    -0.481 OA
ATOM      5  H   UNL     1      10.222   0.131  -0.342  1.00  0.00     0.296 HD
ENDBRANCH   2   4
ENDBRANCH   1   2
BRANCH   1   6
ATOM      6  C   UNL     1       6.835  -1.088  -1.702  1.00  0.00     0.047 C 
BRANCH   6   7
ATOM      7  C   UNL     1       6.596  -0.921  -0.244  1.00  0.00    -0.047 A 
ATOM      8  C   UNL     1       5.872   0.150   0.244  1.00  0.00     0.004 A 
ATOM      9  C   UNL     1       7.080  -1.820   0.688  1.00  0.00     0.004 A 
ATOM     10  C   UNL     1       5.656   0.295   1.601  1.00  0.00     0.000 A 
ATOM     11  C   UNL     1       6.866  -1.677   2.041  1.00  0.00     0.000 A 
ATOM     12  C   UNL     1       6.142  -0.606   2.526  1.00  0.00     0.000 A 
ENDBRANCH   6   7
ENDBRANCH   1   6
TORSDOF 4
ENDMDL
