@<TRIPOS>MOLECULE
/home/cewinharhar/GITHUB/reincatalyze/data/processed/docking_pred/2023-Apr-25-2033_maxeplen5_maxtrainstep200_exh16_gamma099_lrac3e-4_lrcr1e-3/87c24324279ed01ab1d4888e5c128f335f215516_ligand_2.pdbqt
 12 12 0 0 0
SMALL
GASTEIGER

@<TRIPOS>ATOM
      1  C          8.2950   -0.9510   -1.7990 C.3     1  UNL1        0.1270
      2  C          8.3530   -2.0220   -2.8260 C.2     1  UNL1        0.3030
      3  O          7.2840   -2.4450   -3.3310 O.2     1  UNL1       -0.2520
      4  O          9.5530   -2.5820   -3.2570 O.3     1  UNL1       -0.4810
      5  H         10.0930   -2.1770   -4.0370 H       1  UNL1        0.2960
      6  C          7.3840   -1.4250   -0.7010 C.3     1  UNL1        0.0470
      7  C          6.5550   -0.3270   -0.1380 C.2     1  UNL1       -0.0470
      8  C          6.2150    0.7750   -0.8990 C.2     1  UNL1        0.0040
      9  C          6.0840   -0.3520    1.1620 C.2     1  UNL1        0.0040
     10  C          5.4430    1.7900   -0.3660 C.2     1  UNL1        0.0000
     11  C          5.3150    0.6580    1.6950 C.2     1  UNL1        0.0000
     12  C          4.9780    1.7580    0.9330 C.2     1  UNL1        0.0000
@<TRIPOS>BOND
     1     5     4    1
     2     3     2    2
     3     4     2    1
     4     2     1    1
     5     1     6    1
     6     8    10    1
     7     8     7    2
     8     6     7    1
     9    10    12    2
    10     7     9    1
    11    12    11    1
    12     9    11    2
