@<TRIPOS>MOLECULE
/home/cewinharhar/GITHUB/reincatalyze/data/processed/docking_pred/2023-Apr-25-2033_maxeplen5_maxtrainstep200_exh16_gamma099_lrac3e-4_lrcr1e-3/87c24324279ed01ab1d4888e5c128f335f215516_ligand_2.pdbqt
 12 12 0 0 0
SMALL
GASTEIGER

@<TRIPOS>ATOM
      1  C          8.4480   -0.6450   -2.1020 C.3     1  UNL1        0.1270
      2  C          8.4210   -1.9110   -2.8790 C.2     1  UNL1        0.3030
      3  O          7.3140   -2.4060   -3.2060 O.2     1  UNL1       -0.2520
      4  O          9.5810   -2.5770   -3.2650 O.3     1  UNL1       -0.4810
      5  H          9.9630   -3.3650   -2.7190 H       1  UNL1        0.2960
      6  C          7.0600   -0.0680   -2.1270 C.3     1  UNL1        0.0470
      7  C          6.4840    0.0840   -0.7650 C.2     1  UNL1       -0.0470
      8  C          6.5930   -0.9230    0.1740 C.2     1  UNL1        0.0040
      9  C          5.8180    1.2290   -0.3720 C.2     1  UNL1        0.0040
     10  C          6.0530   -0.7710    1.4370 C.2     1  UNL1        0.0000
     11  C          5.2800    1.3830    0.8860 C.2     1  UNL1        0.0000
     12  C          5.3890    0.3750    1.8220 C.2     1  UNL1        0.0000
@<TRIPOS>BOND
     1     4     2    1
     2     4     5    1
     3     3     2    2
     4     2     1    1
     5     6     1    1
     6     6     7    1
     7     7     9    2
     8     7     8    1
     9     9    11    1
    10     8    10    2
    11    11    12    2
    12    10    12    1
