@<TRIPOS>MOLECULE
/home/cewinharhar/GITHUB/reincatalyze/data/processed/docking_pred/2023-Apr-25-2033_maxeplen5_maxtrainstep200_exh16_gamma099_lrac3e-4_lrcr1e-3/87c24324279ed01ab1d4888e5c128f335f215516_ligand_2.pdbqt
 12 12 0 0 0
SMALL
GASTEIGER

@<TRIPOS>ATOM
      1  C          7.2680   -1.2390   -2.3850 C.3     1  UNL1        0.1270
      2  C          8.7330   -1.3790   -2.5840 C.2     1  UNL1        0.3030
      3  O          9.5020   -0.5050   -2.1160 O.2     1  UNL1       -0.2520
      4  O          9.2940   -2.4510   -3.2740 O.3     1  UNL1       -0.4810
      5  H          8.8590   -3.3850   -3.2760 H       1  UNL1        0.2960
      6  C          7.0010    0.1820   -1.9720 C.3     1  UNL1        0.0470
      7  C          6.3800    0.2750   -0.6240 C.2     1  UNL1       -0.0470
      8  C          6.4840   -0.7610    0.2840 C.2     1  UNL1        0.0040
      9  C          5.6760    1.3910   -0.2140 C.2     1  UNL1        0.0040
     10  C          5.9030   -0.6650    1.5340 C.2     1  UNL1        0.0000
     11  C          5.0960    1.4900    1.0310 C.2     1  UNL1        0.0000
     12  C          5.2010    0.4530    1.9360 C.2     1  UNL1        0.0000
@<TRIPOS>BOND
     1     5     4    1
     2     4     2    1
     3     2     1    1
     4     2     3    2
     5     1     6    1
     6     6     7    1
     7     7     9    2
     8     7     8    1
     9     9    11    1
    10     8    10    2
    11    11    12    2
    12    10    12    1
