@<TRIPOS>MOLECULE
/home/cewinharhar/GITHUB/reincatalyze/data/processed/docking_pred/2023-Apr-25-2033_maxeplen5_maxtrainstep200_exh16_gamma099_lrac3e-4_lrcr1e-3/87c24324279ed01ab1d4888e5c128f335f215516_ligand_2.pdbqt
 12 12 0 0 0
SMALL
GASTEIGER

@<TRIPOS>ATOM
      1  C          5.0010    1.7900    0.7020 C.3     1  UNL1        0.1270
      2  C          4.4720    1.1170    1.9170 C.2     1  UNL1        0.3030
      3  O          5.1540    0.2180    2.4650 O.2     1  UNL1       -0.2520
      4  O          3.2400    1.4460    2.4770 O.3     1  UNL1       -0.4810
      5  H          2.3920    0.8910    2.2910 H       1  UNL1        0.2960
      6  C          6.5020    1.7750    0.7940 C.3     1  UNL1        0.0470
      7  C          7.1310    1.0160   -0.3180 C.2     1  UNL1       -0.0470
      8  C          8.4550    1.2110   -0.6590 C.2     1  UNL1        0.0040
      9  C          6.4300    0.0830   -1.0610 C.2     1  UNL1        0.0040
     10  C          9.0300    0.5000   -1.6950 C.2     1  UNL1        0.0000
     11  C          7.0010   -0.6270   -2.0930 C.2     1  UNL1        0.0000
     12  C          8.3250   -0.4290   -2.4320 C.2     1  UNL1        0.0000
@<TRIPOS>BOND
     1    12    11    2
     2    12    10    1
     3    11     9    1
     4    10     8    2
     5     9     7    2
     6     8     7    1
     7     7     6    1
     8     1     6    1
     9     1     2    1
    10     2     3    2
    11     2     4    1
    12     5     4    1
