MODEL 1
REMARK VINA RESULT:      -7.3      0.000      0.000
REMARK SMILES O=C(O)CCc1ccccc1
REMARK SMILES IDX 4 1 2 2 1 3 3 4 5 6 6 7 7 8 11 9 8 10 10 11 9 12
REMARK H PARENT 3 5
REMARK Flexibility Score: inf
ROOT
ATOM      1  C   UNL     1       8.450  -0.645  -2.105  1.00  0.00     0.127 C 
ENDROOT
BRANCH   1   2
ATOM      2  C   UNL     1       8.413  -1.915  -2.875  1.00  0.00     0.303 C 
ATOM      3  O   UNL     1       7.303  -2.390  -3.219  1.00  0.00    -0.252 OA
BRANCH   2   4
ATOM      4  O   UNL     1       9.567  -2.605  -3.235  1.00  0.00    -0.481 OA
ATOM      5  H   UNL     1      10.470  -2.124  -3.366  1.00  0.00     0.296 HD
ENDBRANCH   2   4
ENDBRANCH   1   2
BRANCH   1   6
ATOM      6  C   UNL     1       7.064  -0.062  -2.125  1.00  0.00     0.047 C 
BRANCH   6   7
ATOM      7  C   UNL     1       6.490   0.085  -0.762  1.00  0.00    -0.047 A 
ATOM      8  C   UNL     1       5.837   1.241  -0.382  1.00  0.00     0.004 A 
ATOM      9  C   UNL     1       6.579  -0.918   0.185  1.00  0.00     0.004 A 
ATOM     10  C   UNL     1       5.307   1.367   0.888  1.00  0.00     0.000 A 
ATOM     11  C   UNL     1       6.052  -0.795   1.451  1.00  0.00     0.000 A 
ATOM     12  C   UNL     1       5.400   0.361   1.829  1.00  0.00     0.000 A 
ENDBRANCH   6   7
ENDBRANCH   1   6
TORSDOF 4
ENDMDL
MODEL 2
REMARK VINA RESULT:      -7.3      0.023      1.419
REMARK SMILES O=C(O)CCc1ccccc1
REMARK SMILES IDX 4 1 2 2 1 3 3 4 5 6 6 7 7 8 11 9 8 10 10 11 9 12
REMARK H PARENT 3 5
REMARK Flexibility Score: inf
ROOT
ATOM      1  C   UNL     1       8.448  -0.645  -2.102  1.00  0.00     0.127 C 
ENDROOT
BRANCH   1   2
ATOM      2  C   UNL     1       8.421  -1.911  -2.879  1.00  0.00     0.303 C 
ATOM      3  O   UNL     1       7.314  -2.406  -3.206  1.00  0.00    -0.252 OA
BRANCH   2   4
ATOM      4  O   UNL     1       9.581  -2.577  -3.265  1.00  0.00    -0.481 OA
ATOM      5  H   UNL     1       9.963  -3.365  -2.719  1.00  0.00     0.296 HD
ENDBRANCH   2   4
ENDBRANCH   1   2
BRANCH   1   6
ATOM      6  C   UNL     1       7.060  -0.068  -2.127  1.00  0.00     0.047 C 
BRANCH   6   7
ATOM      7  C   UNL     1       6.484   0.084  -0.765  1.00  0.00    -0.047 A 
ATOM      8  C   UNL     1       6.593  -0.923   0.174  1.00  0.00     0.004 A 
ATOM      9  C   UNL     1       5.818   1.229  -0.372  1.00  0.00     0.004 A 
ATOM     10  C   UNL     1       6.053  -0.771   1.437  1.00  0.00     0.000 A 
ATOM     11  C   UNL     1       5.280   1.383   0.886  1.00  0.00     0.000 A 
ATOM     12  C   UNL     1       5.389   0.375   1.822  1.00  0.00     0.000 A 
ENDBRANCH   6   7
ENDBRANCH   1   6
TORSDOF 4
ENDMDL
MODEL 3
REMARK VINA RESULT:      -7.1      0.660      1.143
REMARK SMILES O=C(O)CCc1ccccc1
REMARK SMILES IDX 4 1 2 2 1 3 3 4 5 6 6 7 7 8 11 9 8 10 10 11 9 12
REMARK H PARENT 3 5
REMARK Flexibility Score: inf
ROOT
ATOM      1  C   UNL     1       8.295  -0.951  -1.799  1.00  0.00     0.127 C 
ENDROOT
BRANCH   1   2
ATOM      2  C   UNL     1       8.353  -2.022  -2.826  1.00  0.00     0.303 C 
ATOM      3  O   UNL     1       7.284  -2.445  -3.331  1.00  0.00    -0.252 OA
BRANCH   2   4
ATOM      4  O   UNL     1       9.553  -2.582  -3.257  1.00  0.00    -0.481 OA
ATOM      5  H   UNL     1      10.093  -2.177  -4.037  1.00  0.00     0.296 HD
ENDBRANCH   2   4
ENDBRANCH   1   2
BRANCH   1   6
ATOM      6  C   UNL     1       7.384  -1.425  -0.701  1.00  0.00     0.047 C 
BRANCH   6   7
ATOM      7  C   UNL     1       6.555  -0.327  -0.138  1.00  0.00    -0.047 A 
ATOM      8  C   UNL     1       6.215   0.775  -0.899  1.00  0.00     0.004 A 
ATOM      9  C   UNL     1       6.084  -0.352   1.162  1.00  0.00     0.004 A 
ATOM     10  C   UNL     1       5.443   1.790  -0.366  1.00  0.00     0.000 A 
ATOM     11  C   UNL     1       5.315   0.658   1.695  1.00  0.00     0.000 A 
ATOM     12  C   UNL     1       4.978   1.758   0.933  1.00  0.00     0.000 A 
ENDBRANCH   6   7
ENDBRANCH   1   6
TORSDOF 4
ENDMDL
MODEL 4
REMARK VINA RESULT:      -7.1      0.863      1.774
REMARK SMILES O=C(O)CCc1ccccc1
REMARK SMILES IDX 4 1 2 2 1 3 3 4 5 6 6 7 7 8 11 9 8 10 10 11 9 12
REMARK H PARENT 3 5
REMARK Flexibility Score: inf
ROOT
ATOM      1  C   UNL     1       7.268  -1.239  -2.385  1.00  0.00     0.127 C 
ENDROOT
BRANCH   1   2
ATOM      2  C   UNL     1       8.733  -1.379  -2.584  1.00  0.00     0.303 C 
ATOM      3  O   UNL     1       9.502  -0.505  -2.116  1.00  0.00    -0.252 OA
BRANCH   2   4
ATOM      4  O   UNL     1       9.294  -2.451  -3.274  1.00  0.00    -0.481 OA
ATOM      5  H   UNL     1       8.859  -3.385  -3.276  1.00  0.00     0.296 HD
ENDBRANCH   2   4
ENDBRANCH   1   2
BRANCH   1   6
ATOM      6  C   UNL     1       7.001   0.182  -1.972  1.00  0.00     0.047 C 
BRANCH   6   7
ATOM      7  C   UNL     1       6.380   0.275  -0.624  1.00  0.00    -0.047 A 
ATOM      8  C   UNL     1       6.484  -0.761   0.284  1.00  0.00     0.004 A 
ATOM      9  C   UNL     1       5.676   1.391  -0.214  1.00  0.00     0.004 A 
ATOM     10  C   UNL     1       5.903  -0.665   1.534  1.00  0.00     0.000 A 
ATOM     11  C   UNL     1       5.096   1.490   1.031  1.00  0.00     0.000 A 
ATOM     12  C   UNL     1       5.201   0.453   1.936  1.00  0.00     0.000 A 
ENDBRANCH   6   7
ENDBRANCH   1   6
TORSDOF 4
ENDMDL
MODEL 5
REMARK VINA RESULT:      -6.8      3.300      5.148
REMARK SMILES O=C(O)CCc1ccccc1
REMARK SMILES IDX 4 1 2 2 1 3 3 4 5 6 6 7 7 8 11 9 8 10 10 11 9 12
REMARK H PARENT 3 5
REMARK Flexibility Score: inf
ROOT
ATOM      1  C   UNL     1       5.001   1.790   0.702  1.00  0.00     0.127 C 
ENDROOT
BRANCH   1   2
ATOM      2  C   UNL     1       4.472   1.117   1.917  1.00  0.00     0.303 C 
ATOM      3  O   UNL     1       5.154   0.218   2.465  1.00  0.00    -0.252 OA
BRANCH   2   4
ATOM      4  O   UNL     1       3.240   1.446   2.477  1.00  0.00    -0.481 OA
ATOM      5  H   UNL     1       2.392   0.891   2.291  1.00  0.00     0.296 HD
ENDBRANCH   2   4
ENDBRANCH   1   2
BRANCH   1   6
ATOM      6  C   UNL     1       6.502   1.775   0.794  1.00  0.00     0.047 C 
BRANCH   6   7
ATOM      7  C   UNL     1       7.131   1.016  -0.318  1.00  0.00    -0.047 A 
ATOM      8  C   UNL     1       8.455   1.211  -0.659  1.00  0.00     0.004 A 
ATOM      9  C   UNL     1       6.430   0.083  -1.061  1.00  0.00     0.004 A 
ATOM     10  C   UNL     1       9.030   0.500  -1.695  1.00  0.00     0.000 A 
ATOM     11  C   UNL     1       7.001  -0.627  -2.093  1.00  0.00     0.000 A 
ATOM     12  C   UNL     1       8.325  -0.429  -2.432  1.00  0.00     0.000 A 
ENDBRANCH   6   7
ENDBRANCH   1   6
TORSDOF 4
ENDMDL
