@<TRIPOS>MOLECULE
/home/cewinharhar/GITHUB/reincatalyze/data/processed/docking_pred/2023-Apr-25-2033_maxeplen5_maxtrainstep200_exh16_gamma099_lrac3e-4_lrcr1e-3/88c4e0f8a026884e113c16f062f94e0c253125d7_ligand_2.pdbqt
 12 12 0 0 0
SMALL
GASTEIGER

@<TRIPOS>ATOM
      1  C          5.0030    1.7820    0.7230 C.3     1  UNL1        0.1270
      2  C          4.4720    1.1080    1.9370 C.2     1  UNL1        0.3030
      3  O          5.1530    0.2080    2.4850 O.2     1  UNL1       -0.2520
      4  O          3.2390    1.4370    2.4960 O.3     1  UNL1       -0.4810
      5  H          2.8570    2.3940    2.4460 H       1  UNL1        0.2960
      6  C          6.5030    1.7550    0.8110 C.3     1  UNL1        0.0470
      7  C          7.1240    0.9970   -0.3070 C.2     1  UNL1       -0.0470
      8  C          8.4350    1.2180   -0.6800 C.2     1  UNL1        0.0040
      9  C          6.4280    0.0400   -1.0220 C.2     1  UNL1        0.0040
     10  C          9.0020    0.5070   -1.7210 C.2     1  UNL1        0.0000
     11  C          6.9900   -0.6700   -2.0590 C.2     1  UNL1        0.0000
     12  C          8.3010   -0.4460   -2.4310 C.2     1  UNL1        0.0000
@<TRIPOS>BOND
     1    12    11    2
     2    12    10    1
     3    11     9    1
     4    10     8    2
     5     9     7    2
     6     8     7    1
     7     7     6    1
     8     1     6    1
     9     1     2    1
    10     2     3    2
    11     2     4    1
    12     5     4    1
