@<TRIPOS>MOLECULE
/home/cewinharhar/GITHUB/reincatalyze/data/processed/docking_pred/2023-Apr-25-2033_maxeplen5_maxtrainstep200_exh16_gamma099_lrac3e-4_lrcr1e-3/88c4e0f8a026884e113c16f062f94e0c253125d7_ligand_2.pdbqt
 12 12 0 0 0
SMALL
GASTEIGER

@<TRIPOS>ATOM
      1  C          5.3410    2.9710    0.0170 C.3     1  UNL1        0.1270
      2  C          6.1960    3.8960    0.8050 C.2     1  UNL1        0.3030
      3  O          6.8630    4.7730    0.2050 O.2     1  UNL1       -0.2520
      4  O          6.2870    3.8290    2.1930 O.3     1  UNL1       -0.4810
      5  H          7.0540    3.3270    2.6640 H       1  UNL1        0.2960
      6  C          5.2230    1.6890    0.7940 C.3     1  UNL1        0.0470
      7  C          6.0390    0.5930    0.2090 C.2     1  UNL1       -0.0470
      8  C          6.5030   -0.4490    0.9890 C.2     1  UNL1        0.0040
      9  C          6.3700    0.5590   -1.1330 C.2     1  UNL1        0.0040
     10  C          7.2600   -1.4630    0.4340 C.2     1  UNL1        0.0000
     11  C          7.1250   -0.4500   -1.6880 C.2     1  UNL1        0.0000
     12  C          7.5870   -1.4900   -0.9060 C.2     1  UNL1        0.0000
@<TRIPOS>BOND
     1    11     9    1
     2    11    12    2
     3     9     7    2
     4    12    10    1
     5     1     6    1
     6     1     2    1
     7     3     2    2
     8     7     6    1
     9     7     8    1
    10    10     8    2
    11     2     4    1
    12     4     5    1
