@<TRIPOS>MOLECULE
/home/cewinharhar/GITHUB/reincatalyze/data/processed/docking_pred/2023-Apr-25-2033_maxeplen5_maxtrainstep200_exh16_gamma099_lrac3e-4_lrcr1e-3/88c4e0f8a026884e113c16f062f94e0c253125d7_ligand_2.pdbqt
 12 12 0 0 0
SMALL
GASTEIGER

@<TRIPOS>ATOM
      1  C          8.4470   -0.6680   -2.0640 C.3     1  UNL1        0.1270
      2  C          8.4160   -1.9170   -2.8690 C.2     1  UNL1        0.3030
      3  O          7.3090   -2.4030   -3.2030 O.2     1  UNL1       -0.2520
      4  O          9.5760   -2.5740   -3.2730 O.3     1  UNL1       -0.4810
      5  H         10.4490   -2.0630   -3.4750 H       1  UNL1        0.2960
      6  C          7.0690   -0.0680   -2.1070 C.3     1  UNL1        0.0470
      7  C          6.4790    0.0970   -0.7530 C.2     1  UNL1       -0.0470
      8  C          5.8160    1.2560   -0.3970 C.2     1  UNL1        0.0040
      9  C          6.5610   -0.8910    0.2100 C.2     1  UNL1        0.0040
     10  C          5.2710    1.3980    0.8650 C.2     1  UNL1        0.0000
     11  C          6.0180   -0.7520    1.4680 C.2     1  UNL1        0.0000
     12  C          5.3570    0.4080    1.8210 C.2     1  UNL1        0.0000
@<TRIPOS>BOND
     1     5     4    1
     2     4     2    1
     3     3     2    2
     4     2     1    1
     5     6     1    1
     6     6     7    1
     7     7     8    2
     8     7     9    1
     9     8    10    1
    10     9    11    2
    11    10    12    2
    12    11    12    1
