MODEL 1
REMARK VINA RESULT:      -7.3      0.000      0.000
REMARK SMILES O=C(O)CCc1ccccc1
REMARK SMILES IDX 4 1 2 2 1 3 3 4 5 6 6 7 7 8 11 9 8 10 10 11 9 12
REMARK H PARENT 3 5
REMARK Flexibility Score: inf
ROOT
ATOM      1  C   UNL     1       8.472  -0.659  -2.097  1.00  0.00     0.127 C 
ENDROOT
BRANCH   1   2
ATOM      2  C   UNL     1       8.457  -1.911  -2.898  1.00  0.00     0.303 C 
ATOM      3  O   UNL     1       9.532  -2.531  -3.083  1.00  0.00    -0.252 OA
BRANCH   2   4
ATOM      4  O   UNL     1       7.291  -2.428  -3.455  1.00  0.00    -0.481 OA
ATOM      5  H   UNL     1       6.539  -2.826  -2.871  1.00  0.00     0.296 HD
ENDBRANCH   2   4
ENDBRANCH   1   2
BRANCH   1   6
ATOM      6  C   UNL     1       7.082  -0.086  -2.128  1.00  0.00     0.047 C 
BRANCH   6   7
ATOM      7  C   UNL     1       6.496   0.057  -0.770  1.00  0.00    -0.047 A 
ATOM      8  C   UNL     1       6.594  -0.958   0.162  1.00  0.00     0.004 A 
ATOM      9  C   UNL     1       5.830   1.202  -0.373  1.00  0.00     0.004 A 
ATOM     10  C   UNL     1       6.046  -0.814   1.422  1.00  0.00     0.000 A 
ATOM     11  C   UNL     1       5.283   1.347   0.883  1.00  0.00     0.000 A 
ATOM     12  C   UNL     1       5.382   0.331   1.812  1.00  0.00     0.000 A 
ENDBRANCH   6   7
ENDBRANCH   1   6
TORSDOF 4
ENDMDL
MODEL 2
REMARK VINA RESULT:      -7.3      0.113      1.717
REMARK SMILES O=C(O)CCc1ccccc1
REMARK SMILES IDX 4 1 2 2 1 3 3 4 5 6 6 7 7 8 11 9 8 10 10 11 9 12
REMARK H PARENT 3 5
REMARK Flexibility Score: inf
ROOT
ATOM      1  C   UNL     1       8.447  -0.668  -2.064  1.00  0.00     0.127 C 
ENDROOT
BRANCH   1   2
ATOM      2  C   UNL     1       8.416  -1.917  -2.869  1.00  0.00     0.303 C 
ATOM      3  O   UNL     1       7.309  -2.403  -3.203  1.00  0.00    -0.252 OA
BRANCH   2   4
ATOM      4  O   UNL     1       9.576  -2.574  -3.273  1.00  0.00    -0.481 OA
ATOM      5  H   UNL     1      10.449  -2.063  -3.475  1.00  0.00     0.296 HD
ENDBRANCH   2   4
ENDBRANCH   1   2
BRANCH   1   6
ATOM      6  C   UNL     1       7.069  -0.068  -2.107  1.00  0.00     0.047 C 
BRANCH   6   7
ATOM      7  C   UNL     1       6.479   0.097  -0.753  1.00  0.00    -0.047 A 
ATOM      8  C   UNL     1       5.816   1.256  -0.397  1.00  0.00     0.004 A 
ATOM      9  C   UNL     1       6.561  -0.891   0.210  1.00  0.00     0.004 A 
ATOM     10  C   UNL     1       5.271   1.398   0.865  1.00  0.00     0.000 A 
ATOM     11  C   UNL     1       6.018  -0.752   1.468  1.00  0.00     0.000 A 
ATOM     12  C   UNL     1       5.357   0.408   1.821  1.00  0.00     0.000 A 
ENDBRANCH   6   7
ENDBRANCH   1   6
TORSDOF 4
ENDMDL
MODEL 3
REMARK VINA RESULT:      -6.8      3.384      5.105
REMARK SMILES O=C(O)CCc1ccccc1
REMARK SMILES IDX 4 1 2 2 1 3 3 4 5 6 6 7 7 8 11 9 8 10 10 11 9 12
REMARK H PARENT 3 5
REMARK Flexibility Score: inf
ROOT
ATOM      1  C   UNL     1       5.003   1.782   0.723  1.00  0.00     0.127 C 
ENDROOT
BRANCH   1   2
ATOM      2  C   UNL     1       4.472   1.108   1.937  1.00  0.00     0.303 C 
ATOM      3  O   UNL     1       5.153   0.208   2.485  1.00  0.00    -0.252 OA
BRANCH   2   4
ATOM      4  O   UNL     1       3.239   1.437   2.496  1.00  0.00    -0.481 OA
ATOM      5  H   UNL     1       2.857   2.394   2.446  1.00  0.00     0.296 HD
ENDBRANCH   2   4
ENDBRANCH   1   2
BRANCH   1   6
ATOM      6  C   UNL     1       6.503   1.755   0.811  1.00  0.00     0.047 C 
BRANCH   6   7
ATOM      7  C   UNL     1       7.124   0.997  -0.307  1.00  0.00    -0.047 A 
ATOM      8  C   UNL     1       8.435   1.218  -0.680  1.00  0.00     0.004 A 
ATOM      9  C   UNL     1       6.428   0.040  -1.022  1.00  0.00     0.004 A 
ATOM     10  C   UNL     1       9.002   0.507  -1.721  1.00  0.00     0.000 A 
ATOM     11  C   UNL     1       6.990  -0.670  -2.059  1.00  0.00     0.000 A 
ATOM     12  C   UNL     1       8.301  -0.446  -2.431  1.00  0.00     0.000 A 
ENDBRANCH   6   7
ENDBRANCH   1   6
TORSDOF 4
ENDMDL
MODEL 4
REMARK VINA RESULT:      -6.6      1.867      2.842
REMARK SMILES O=C(O)CCc1ccccc1
REMARK SMILES IDX 4 1 2 2 1 3 3 4 5 6 6 7 7 8 11 9 8 10 10 11 9 12
REMARK H PARENT 3 5
REMARK Flexibility Score: inf
ROOT
ATOM      1  C   UNL     1       8.229  -1.547   1.080  1.00  0.00     0.127 C 
ENDROOT
BRANCH   1   2
ATOM      2  C   UNL     1       8.474  -2.770   0.272  1.00  0.00     0.303 C 
ATOM      3  O   UNL     1       9.091  -3.732   0.788  1.00  0.00    -0.252 OA
BRANCH   2   4
ATOM      4  O   UNL     1       8.041  -2.893  -1.046  1.00  0.00    -0.481 OA
ATOM      5  H   UNL     1       8.414  -2.294  -1.799  1.00  0.00     0.296 HD
ENDBRANCH   2   4
ENDBRANCH   1   2
BRANCH   1   6
ATOM      6  C   UNL     1       6.746  -1.441   1.303  1.00  0.00     0.047 C 
BRANCH   6   7
ATOM      7  C   UNL     1       6.181  -0.173   0.772  1.00  0.00    -0.047 A 
ATOM      8  C   UNL     1       5.392   0.644   1.559  1.00  0.00     0.004 A 
ATOM      9  C   UNL     1       6.415   0.250  -0.523  1.00  0.00     0.004 A 
ATOM     10  C   UNL     1       4.872   1.821   1.055  1.00  0.00     0.000 A 
ATOM     11  C   UNL     1       5.898   1.423  -1.027  1.00  0.00     0.000 A 
ATOM     12  C   UNL     1       5.109   2.237  -0.239  1.00  0.00     0.000 A 
ENDBRANCH   6   7
ENDBRANCH   1   6
TORSDOF 4
ENDMDL
MODEL 5
REMARK VINA RESULT:      -6.5      3.736      4.989
REMARK SMILES O=C(O)CCc1ccccc1
REMARK SMILES IDX 4 1 2 2 1 3 3 4 5 6 6 7 7 8 11 9 8 10 10 11 9 12
REMARK H PARENT 3 5
REMARK Flexibility Score: inf
ROOT
ATOM      1  C   UNL     1       5.341   2.971   0.017  1.00  0.00     0.127 C 
ENDROOT
BRANCH   1   2
ATOM      2  C   UNL     1       6.196   3.896   0.805  1.00  0.00     0.303 C 
ATOM      3  O   UNL     1       6.863   4.773   0.205  1.00  0.00    -0.252 OA
BRANCH   2   4
ATOM      4  O   UNL     1       6.287   3.829   2.193  1.00  0.00    -0.481 OA
ATOM      5  H   UNL     1       7.054   3.327   2.664  1.00  0.00     0.296 HD
ENDBRANCH   2   4
ENDBRANCH   1   2
BRANCH   1   6
ATOM      6  C   UNL     1       5.223   1.689   0.794  1.00  0.00     0.047 C 
BRANCH   6   7
ATOM      7  C   UNL     1       6.039   0.593   0.209  1.00  0.00    -0.047 A 
ATOM      8  C   UNL     1       6.503  -0.449   0.989  1.00  0.00     0.004 A 
ATOM      9  C   UNL     1       6.370   0.559  -1.133  1.00  0.00     0.004 A 
ATOM     10  C   UNL     1       7.260  -1.463   0.434  1.00  0.00     0.000 A 
ATOM     11  C   UNL     1       7.125  -0.450  -1.688  1.00  0.00     0.000 A 
ATOM     12  C   UNL     1       7.587  -1.490  -0.906  1.00  0.00     0.000 A 
ENDBRANCH   6   7
ENDBRANCH   1   6
TORSDOF 4
ENDMDL
