@<TRIPOS>MOLECULE
/home/cewinharhar/GITHUB/reincatalyze/data/processed/docking_pred/2023-Apr-25-2033_maxeplen5_maxtrainstep200_exh16_gamma099_lrac3e-4_lrcr1e-3/88c4e0f8a026884e113c16f062f94e0c253125d7_ligand_2.pdbqt
 12 12 0 0 0
SMALL
GASTEIGER

@<TRIPOS>ATOM
      1  C          8.2290   -1.5470    1.0800 C.3     1  UNL1        0.1270
      2  C          8.4740   -2.7700    0.2720 C.2     1  UNL1        0.3030
      3  O          9.0910   -3.7320    0.7880 O.2     1  UNL1       -0.2520
      4  O          8.0410   -2.8930   -1.0460 O.3     1  UNL1       -0.4810
      5  H          8.4140   -2.2940   -1.7990 H       1  UNL1        0.2960
      6  C          6.7460   -1.4410    1.3030 C.3     1  UNL1        0.0470
      7  C          6.1810   -0.1730    0.7720 C.2     1  UNL1       -0.0470
      8  C          5.3920    0.6440    1.5590 C.2     1  UNL1        0.0040
      9  C          6.4150    0.2500   -0.5230 C.2     1  UNL1        0.0040
     10  C          4.8720    1.8210    1.0550 C.2     1  UNL1        0.0000
     11  C          5.8980    1.4230   -1.0270 C.2     1  UNL1        0.0000
     12  C          5.1090    2.2370   -0.2390 C.2     1  UNL1        0.0000
@<TRIPOS>BOND
     1     5     4    1
     2     4     2    1
     3    11     9    1
     4    11    12    2
     5     9     7    2
     6    12    10    1
     7     2     3    2
     8     2     1    1
     9     7     6    1
    10     7     8    1
    11    10     8    2
    12     1     6    1
