@<TRIPOS>MOLECULE
/home/cewinharhar/GITHUB/reincatalyze/data/processed/docking_pred/2023-Apr-25-2033_maxeplen5_maxtrainstep200_exh16_gamma099_lrac3e-4_lrcr1e-3/88c4e0f8a026884e113c16f062f94e0c253125d7_ligand_2.pdbqt
 12 12 0 0 0
SMALL
GASTEIGER

@<TRIPOS>ATOM
      1  C          8.4720   -0.6590   -2.0970 C.3     1  UNL1        0.1270
      2  C          8.4570   -1.9110   -2.8980 C.2     1  UNL1        0.3030
      3  O          9.5320   -2.5310   -3.0830 O.2     1  UNL1       -0.2520
      4  O          7.2910   -2.4280   -3.4550 O.3     1  UNL1       -0.4810
      5  H          6.5390   -2.8260   -2.8710 H       1  UNL1        0.2960
      6  C          7.0820   -0.0860   -2.1280 C.3     1  UNL1        0.0470
      7  C          6.4960    0.0570   -0.7700 C.2     1  UNL1       -0.0470
      8  C          6.5940   -0.9580    0.1620 C.2     1  UNL1        0.0040
      9  C          5.8300    1.2020   -0.3730 C.2     1  UNL1        0.0040
     10  C          6.0460   -0.8140    1.4220 C.2     1  UNL1        0.0000
     11  C          5.2830    1.3470    0.8830 C.2     1  UNL1        0.0000
     12  C          5.3820    0.3310    1.8120 C.2     1  UNL1        0.0000
@<TRIPOS>BOND
     1     4     2    1
     2     4     5    1
     3     3     2    2
     4     2     1    1
     5     6     1    1
     6     6     7    1
     7     7     9    2
     8     7     8    1
     9     9    11    1
    10     8    10    2
    11    11    12    2
    12    10    12    1
