@<TRIPOS>MOLECULE
/home/cewinharhar/GITHUB/reincatalyze/data/processed/docking_pred/2023-Apr-25-2033_maxeplen5_maxtrainstep200_exh16_gamma099_lrac3e-4_lrcr1e-3/895ea28dab147140afd805a2e235fc395d2e1c3a_ligand_2.pdbqt
 12 12 0 0 0
SMALL
GASTEIGER

@<TRIPOS>ATOM
      1  C          8.4510   -0.5820   -2.1910 C.3     1  UNL1        0.1270
      2  C          8.4630   -1.8840   -2.9060 C.2     1  UNL1        0.3030
      3  O          9.5530   -2.4840   -3.0680 O.2     1  UNL1       -0.2520
      4  O          7.3050   -2.4730   -3.4070 O.3     1  UNL1       -0.4810
      5  H          7.0650   -2.4350   -4.4100 H       1  UNL1        0.2960
      6  C          7.0280   -0.0960   -2.1600 C.3     1  UNL1        0.0470
      7  C          6.4950    0.0090   -0.7760 C.2     1  UNL1       -0.0470
      8  C          6.6200   -1.0360    0.1190 C.2     1  UNL1        0.0040
      9  C          5.8530    1.1450   -0.3190 C.2     1  UNL1        0.0040
     10  C          6.1200   -0.9280    1.4030 C.2     1  UNL1        0.0000
     11  C          5.3540    1.2540    0.9590 C.2     1  UNL1        0.0000
     12  C          5.4800    0.2090    1.8520 C.2     1  UNL1        0.0000
@<TRIPOS>BOND
     1     5     4    1
     2     4     2    1
     3     3     2    2
     4     2     1    1
     5     1     6    1
     6     6     7    1
     7     7     9    2
     8     7     8    1
     9     9    11    1
    10     8    10    2
    11    11    12    2
    12    10    12    1
