@<TRIPOS>MOLECULE
/home/cewinharhar/GITHUB/reincatalyze/data/processed/docking_pred/2023-Apr-25-2033_maxeplen5_maxtrainstep200_exh16_gamma099_lrac3e-4_lrcr1e-3/895ea28dab147140afd805a2e235fc395d2e1c3a_ligand_2.pdbqt
 12 12 0 0 0
SMALL
GASTEIGER

@<TRIPOS>ATOM
      1  C          8.3300   -0.6110   -2.2210 C.3     1  UNL1        0.1270
      2  C          8.4050   -1.9050   -2.9460 C.2     1  UNL1        0.3030
      3  O          9.5190   -2.4660   -3.0840 O.2     1  UNL1       -0.2520
      4  O          7.2810   -2.5260   -3.4840 O.3     1  UNL1       -0.4810
      5  H          6.4990   -2.8450   -2.8910 H       1  UNL1        0.2960
      6  C          8.1260   -0.9200   -0.7630 C.3     1  UNL1        0.0470
      7  C          7.0510   -0.0940   -0.1530 C.2     1  UNL1       -0.0470
      8  C          6.6170   -0.3250    1.1380 C.2     1  UNL1        0.0040
      9  C          6.4380    0.9380   -0.8380 C.2     1  UNL1        0.0040
     10  C          5.6170    0.4490    1.6960 C.2     1  UNL1        0.0000
     11  C          5.4420    1.7110   -0.2850 C.2     1  UNL1        0.0000
     12  C          5.0090    1.4770    1.0050 C.2     1  UNL1        0.0000
@<TRIPOS>BOND
     1     4     2    1
     2     4     5    1
     3     3     2    2
     4     2     1    1
     5     1     6    1
     6     9    11    1
     7     9     7    2
     8     6     7    1
     9    11    12    2
    10     7     8    1
    11    12    10    1
    12     8    10    2
