@<TRIPOS>MOLECULE
/home/cewinharhar/GITHUB/reincatalyze/data/processed/docking_pred/2023-Apr-25-2033_maxeplen5_maxtrainstep200_exh16_gamma099_lrac3e-4_lrcr1e-3/895ea28dab147140afd805a2e235fc395d2e1c3a_ligand_2.pdbqt
 12 12 0 0 0
SMALL
GASTEIGER

@<TRIPOS>ATOM
      1  C          8.4180   -0.5900   -2.1720 C.3     1  UNL1        0.1270
      2  C          8.4050   -1.8880   -2.8950 C.2     1  UNL1        0.3030
      3  O          7.3040   -2.4030   -3.2070 O.2     1  UNL1       -0.2520
      4  O          9.5720   -2.5620   -3.2430 O.3     1  UNL1       -0.4810
      5  H          9.6350   -3.1350   -4.0980 H       1  UNL1        0.2960
      6  C          7.0080   -0.0700   -2.1480 C.3     1  UNL1        0.0470
      7  C          6.4700    0.0530   -0.7680 C.2     1  UNL1       -0.0470
      8  C          5.8330    1.2040   -0.3480 C.2     1  UNL1        0.0040
      9  C          6.5790   -0.9690    0.1570 C.2     1  UNL1        0.0040
     10  C          5.3370    1.3070    0.9380 C.2     1  UNL1        0.0000
     11  C          6.0860   -0.8680    1.4390 C.2     1  UNL1        0.0000
     12  C          5.4490    0.2830    1.8560 C.2     1  UNL1        0.0000
@<TRIPOS>BOND
     1     5     4    1
     2     4     2    1
     3     3     2    2
     4     2     1    1
     5     1     6    1
     6     6     7    1
     7     7     8    2
     8     7     9    1
     9     8    10    1
    10     9    11    2
    11    10    12    2
    12    11    12    1
