@<TRIPOS>MOLECULE
/home/cewinharhar/GITHUB/reincatalyze/data/processed/docking_pred/2023-Apr-25-2033_maxeplen5_maxtrainstep200_exh16_gamma099_lrac3e-4_lrcr1e-3/895ea28dab147140afd805a2e235fc395d2e1c3a_ligand_2.pdbqt
 12 12 0 0 0
SMALL
GASTEIGER

@<TRIPOS>ATOM
      1  C          4.9760    1.7920    0.7080 C.3     1  UNL1        0.1270
      2  C          4.4590    1.1130    1.9240 C.2     1  UNL1        0.3030
      3  O          5.1490    0.2160    2.4650 O.2     1  UNL1       -0.2520
      4  O          3.2300    1.4350    2.4940 O.3     1  UNL1       -0.4810
      5  H          2.6820    2.2510    2.1800 H       1  UNL1        0.2960
      6  C          6.4770    1.7940    0.7940 C.3     1  UNL1        0.0470
      7  C          7.1110    1.0330   -0.3140 C.2     1  UNL1       -0.0470
      8  C          8.4470    1.2000   -0.6240 C.2     1  UNL1        0.0040
      9  C          6.4040    0.1270   -1.0830 C.2     1  UNL1        0.0040
     10  C          9.0260    0.4870   -1.6570 C.2     1  UNL1        0.0000
     11  C          6.9790   -0.5850   -2.1120 C.2     1  UNL1        0.0000
     12  C          8.3140   -0.4150   -2.4200 C.2     1  UNL1        0.0000
@<TRIPOS>BOND
     1    12    11    2
     2    12    10    1
     3    11     9    1
     4    10     8    2
     5     9     7    2
     6     8     7    1
     7     7     6    1
     8     1     6    1
     9     1     2    1
    10     2     3    2
    11     2     4    1
    12     5     4    1
