MODEL 1
REMARK VINA RESULT:      -7.3      0.000      0.000
REMARK SMILES O=C(O)CCc1ccccc1
REMARK SMILES IDX 4 1 2 2 1 3 3 4 5 6 6 7 7 8 11 9 8 10 10 11 9 12
REMARK H PARENT 3 5
REMARK Flexibility Score: inf
ROOT
ATOM      1  C   UNL     1       8.451  -0.582  -2.191  1.00  0.00     0.127 C 
ENDROOT
BRANCH   1   2
ATOM      2  C   UNL     1       8.463  -1.884  -2.906  1.00  0.00     0.303 C 
ATOM      3  O   UNL     1       9.553  -2.484  -3.068  1.00  0.00    -0.252 OA
BRANCH   2   4
ATOM      4  O   UNL     1       7.305  -2.473  -3.407  1.00  0.00    -0.481 OA
ATOM      5  H   UNL     1       7.065  -2.435  -4.410  1.00  0.00     0.296 HD
ENDBRANCH   2   4
ENDBRANCH   1   2
BRANCH   1   6
ATOM      6  C   UNL     1       7.028  -0.096  -2.160  1.00  0.00     0.047 C 
BRANCH   6   7
ATOM      7  C   UNL     1       6.495   0.009  -0.776  1.00  0.00    -0.047 A 
ATOM      8  C   UNL     1       6.620  -1.036   0.119  1.00  0.00     0.004 A 
ATOM      9  C   UNL     1       5.853   1.145  -0.319  1.00  0.00     0.004 A 
ATOM     10  C   UNL     1       6.120  -0.928   1.403  1.00  0.00     0.000 A 
ATOM     11  C   UNL     1       5.354   1.254   0.959  1.00  0.00     0.000 A 
ATOM     12  C   UNL     1       5.480   0.209   1.852  1.00  0.00     0.000 A 
ENDBRANCH   6   7
ENDBRANCH   1   6
TORSDOF 4
ENDMDL
MODEL 2
REMARK VINA RESULT:      -7.3      0.104      1.718
REMARK SMILES O=C(O)CCc1ccccc1
REMARK SMILES IDX 4 1 2 2 1 3 3 4 5 6 6 7 7 8 11 9 8 10 10 11 9 12
REMARK H PARENT 3 5
REMARK Flexibility Score: inf
ROOT
ATOM      1  C   UNL     1       8.418  -0.590  -2.172  1.00  0.00     0.127 C 
ENDROOT
BRANCH   1   2
ATOM      2  C   UNL     1       8.405  -1.888  -2.895  1.00  0.00     0.303 C 
ATOM      3  O   UNL     1       7.304  -2.403  -3.207  1.00  0.00    -0.252 OA
BRANCH   2   4
ATOM      4  O   UNL     1       9.572  -2.562  -3.243  1.00  0.00    -0.481 OA
ATOM      5  H   UNL     1       9.635  -3.135  -4.098  1.00  0.00     0.296 HD
ENDBRANCH   2   4
ENDBRANCH   1   2
BRANCH   1   6
ATOM      6  C   UNL     1       7.008  -0.070  -2.148  1.00  0.00     0.047 C 
BRANCH   6   7
ATOM      7  C   UNL     1       6.470   0.053  -0.768  1.00  0.00    -0.047 A 
ATOM      8  C   UNL     1       5.833   1.204  -0.348  1.00  0.00     0.004 A 
ATOM      9  C   UNL     1       6.579  -0.969   0.157  1.00  0.00     0.004 A 
ATOM     10  C   UNL     1       5.337   1.307   0.938  1.00  0.00     0.000 A 
ATOM     11  C   UNL     1       6.086  -0.868   1.439  1.00  0.00     0.000 A 
ATOM     12  C   UNL     1       5.449   0.283   1.856  1.00  0.00     0.000 A 
ENDBRANCH   6   7
ENDBRANCH   1   6
TORSDOF 4
ENDMDL
MODEL 3
REMARK VINA RESULT:      -7.0      0.694      1.100
REMARK SMILES O=C(O)CCc1ccccc1
REMARK SMILES IDX 4 1 2 2 1 3 3 4 5 6 6 7 7 8 11 9 8 10 10 11 9 12
REMARK H PARENT 3 5
REMARK Flexibility Score: inf
ROOT
ATOM      1  C   UNL     1       8.330  -0.611  -2.221  1.00  0.00     0.127 C 
ENDROOT
BRANCH   1   2
ATOM      2  C   UNL     1       8.405  -1.905  -2.946  1.00  0.00     0.303 C 
ATOM      3  O   UNL     1       9.519  -2.466  -3.084  1.00  0.00    -0.252 OA
BRANCH   2   4
ATOM      4  O   UNL     1       7.281  -2.526  -3.484  1.00  0.00    -0.481 OA
ATOM      5  H   UNL     1       6.499  -2.845  -2.891  1.00  0.00     0.296 HD
ENDBRANCH   2   4
ENDBRANCH   1   2
BRANCH   1   6
ATOM      6  C   UNL     1       8.126  -0.920  -0.763  1.00  0.00     0.047 C 
BRANCH   6   7
ATOM      7  C   UNL     1       7.051  -0.094  -0.153  1.00  0.00    -0.047 A 
ATOM      8  C   UNL     1       6.617  -0.325   1.138  1.00  0.00     0.004 A 
ATOM      9  C   UNL     1       6.438   0.938  -0.838  1.00  0.00     0.004 A 
ATOM     10  C   UNL     1       5.617   0.449   1.696  1.00  0.00     0.000 A 
ATOM     11  C   UNL     1       5.442   1.711  -0.285  1.00  0.00     0.000 A 
ATOM     12  C   UNL     1       5.009   1.477   1.005  1.00  0.00     0.000 A 
ENDBRANCH   6   7
ENDBRANCH   1   6
TORSDOF 4
ENDMDL
MODEL 4
REMARK VINA RESULT:      -6.9      0.719      1.887
REMARK SMILES O=C(O)CCc1ccccc1
REMARK SMILES IDX 4 1 2 2 1 3 3 4 5 6 6 7 7 8 11 9 8 10 10 11 9 12
REMARK H PARENT 3 5
REMARK Flexibility Score: inf
ROOT
ATOM      1  C   UNL     1       8.423  -0.619  -2.067  1.00  0.00     0.127 C 
ENDROOT
BRANCH   1   2
ATOM      2  C   UNL     1       8.383  -1.863  -2.878  1.00  0.00     0.303 C 
ATOM      3  O   UNL     1       7.272  -2.350  -3.199  1.00  0.00    -0.252 OA
BRANCH   2   4
ATOM      4  O   UNL     1       9.538  -2.517  -3.301  1.00  0.00    -0.481 OA
ATOM      5  H   UNL     1      10.477  -2.122  -3.139  1.00  0.00     0.296 HD
ENDBRANCH   2   4
ENDBRANCH   1   2
BRANCH   1   6
ATOM      6  C   UNL     1       8.035  -0.982  -0.661  1.00  0.00     0.047 C 
BRANCH   6   7
ATOM      7  C   UNL     1       6.969  -0.099  -0.120  1.00  0.00    -0.047 A 
ATOM      8  C   UNL     1       6.449   0.938  -0.870  1.00  0.00     0.004 A 
ATOM      9  C   UNL     1       6.447  -0.270   1.149  1.00  0.00     0.004 A 
ATOM     10  C   UNL     1       5.458   1.752  -0.357  1.00  0.00     0.000 A 
ATOM     11  C   UNL     1       5.459   0.541   1.662  1.00  0.00     0.000 A 
ATOM     12  C   UNL     1       4.942   1.577   0.911  1.00  0.00     0.000 A 
ENDBRANCH   6   7
ENDBRANCH   1   6
TORSDOF 4
ENDMDL
MODEL 5
REMARK VINA RESULT:      -6.8      3.384      5.094
REMARK SMILES O=C(O)CCc1ccccc1
REMARK SMILES IDX 4 1 2 2 1 3 3 4 5 6 6 7 7 8 11 9 8 10 10 11 9 12
REMARK H PARENT 3 5
REMARK Flexibility Score: inf
ROOT
ATOM      1  C   UNL     1       4.976   1.792   0.708  1.00  0.00     0.127 C 
ENDROOT
BRANCH   1   2
ATOM      2  C   UNL     1       4.459   1.113   1.924  1.00  0.00     0.303 C 
ATOM      3  O   UNL     1       5.149   0.216   2.465  1.00  0.00    -0.252 OA
BRANCH   2   4
ATOM      4  O   UNL     1       3.230   1.435   2.494  1.00  0.00    -0.481 OA
ATOM      5  H   UNL     1       2.682   2.251   2.180  1.00  0.00     0.296 HD
ENDBRANCH   2   4
ENDBRANCH   1   2
BRANCH   1   6
ATOM      6  C   UNL     1       6.477   1.794   0.794  1.00  0.00     0.047 C 
BRANCH   6   7
ATOM      7  C   UNL     1       7.111   1.033  -0.314  1.00  0.00    -0.047 A 
ATOM      8  C   UNL     1       8.447   1.200  -0.624  1.00  0.00     0.004 A 
ATOM      9  C   UNL     1       6.404   0.127  -1.083  1.00  0.00     0.004 A 
ATOM     10  C   UNL     1       9.026   0.487  -1.657  1.00  0.00     0.000 A 
ATOM     11  C   UNL     1       6.979  -0.585  -2.112  1.00  0.00     0.000 A 
ATOM     12  C   UNL     1       8.314  -0.415  -2.420  1.00  0.00     0.000 A 
ENDBRANCH   6   7
ENDBRANCH   1   6
TORSDOF 4
ENDMDL
