@<TRIPOS>MOLECULE
/home/cewinharhar/GITHUB/reincatalyze/data/processed/docking_pred/2023-Apr-25-2033_maxeplen5_maxtrainstep200_exh16_gamma099_lrac3e-4_lrcr1e-3/895ea28dab147140afd805a2e235fc395d2e1c3a_ligand_2.pdbqt
 12 12 0 0 0
SMALL
GASTEIGER

@<TRIPOS>ATOM
      1  C          8.4230   -0.6190   -2.0670 C.3     1  UNL1        0.1270
      2  C          8.3830   -1.8630   -2.8780 C.2     1  UNL1        0.3030
      3  O          7.2720   -2.3500   -3.1990 O.2     1  UNL1       -0.2520
      4  O          9.5380   -2.5170   -3.3010 O.3     1  UNL1       -0.4810
      5  H         10.4770   -2.1220   -3.1390 H       1  UNL1        0.2960
      6  C          8.0350   -0.9820   -0.6610 C.3     1  UNL1        0.0470
      7  C          6.9690   -0.0990   -0.1200 C.2     1  UNL1       -0.0470
      8  C          6.4490    0.9380   -0.8700 C.2     1  UNL1        0.0040
      9  C          6.4470   -0.2700    1.1490 C.2     1  UNL1        0.0040
     10  C          5.4580    1.7520   -0.3570 C.2     1  UNL1        0.0000
     11  C          5.4590    0.5410    1.6620 C.2     1  UNL1        0.0000
     12  C          4.9420    1.5770    0.9110 C.2     1  UNL1        0.0000
@<TRIPOS>BOND
     1     4     5    1
     2     4     2    1
     3     3     2    2
     4     2     1    1
     5     1     6    1
     6     8    10    1
     7     8     7    2
     8     6     7    1
     9    10    12    2
    10     7     9    1
    11    12    11    1
    12     9    11    2
