@<TRIPOS>MOLECULE
/home/cewinharhar/GITHUB/reincatalyze/data/processed/docking_pred/2023-Apr-25-2033_maxeplen5_maxtrainstep200_exh16_gamma099_lrac3e-4_lrcr1e-3/8a11bcf53d23875e79cb17a52aa7b3de0dc85e7d_ligand_2.pdbqt
 12 12 0 0 0
SMALL
GASTEIGER

@<TRIPOS>ATOM
      1  C          5.2600    2.8090    0.1390 C.3     1  UNL1        0.1270
      2  C          6.1350    3.7780    0.8480 C.2     1  UNL1        0.3030
      3  O          6.2460    3.7030    2.0960 O.2     1  UNL1       -0.2520
      4  O          6.8420    4.7750    0.1800 O.3     1  UNL1       -0.4810
      5  H          7.8670    4.7340    0.0710 H       1  UNL1        0.2960
      6  C          5.3260    1.5070    0.8890 C.3     1  UNL1        0.0470
      7  C          6.0990    0.4690    0.1570 C.2     1  UNL1       -0.0470
      8  C          6.5860   -0.6490    0.8050 C.2     1  UNL1        0.0040
      9  C          6.3650    0.5670   -1.1960 C.2     1  UNL1        0.0040
     10  C          7.3030   -1.6080    0.1150 C.2     1  UNL1        0.0000
     11  C          7.0790   -0.3870   -1.8860 C.2     1  UNL1        0.0000
     12  C          7.5660   -1.5030   -1.2350 C.2     1  UNL1        0.0000
@<TRIPOS>BOND
     1    11    12    2
     2    11     9    1
     3    12    10    1
     4     9     7    2
     5     5     4    1
     6    10     8    2
     7     1     2    1
     8     1     6    1
     9     7     8    1
    10     7     6    1
    11     4     2    1
    12     2     3    2
