MODEL 1
REMARK VINA RESULT:      -7.2      0.000      0.000
REMARK SMILES O=C(O)CCc1ccccc1
REMARK SMILES IDX 4 1 2 2 1 3 3 4 5 6 6 7 7 8 11 9 8 10 10 11 9 12
REMARK H PARENT 3 5
REMARK Flexibility Score: inf
ROOT
ATOM      1  C   UNL     1       8.436  -0.605  -2.180  1.00  0.00     0.127 C 
ENDROOT
BRANCH   1   2
ATOM      2  C   UNL     1       8.410  -1.905  -2.900  1.00  0.00     0.303 C 
ATOM      3  O   UNL     1       7.306  -2.398  -3.235  1.00  0.00    -0.252 OA
BRANCH   2   4
ATOM      4  O   UNL     1       9.571  -2.604  -3.221  1.00  0.00    -0.481 OA
ATOM      5  H   UNL     1      10.148  -3.062  -2.499  1.00  0.00     0.296 HD
ENDBRANCH   2   4
ENDBRANCH   1   2
BRANCH   1   6
ATOM      6  C   UNL     1       7.032  -0.066  -2.169  1.00  0.00     0.047 C 
BRANCH   6   7
ATOM      7  C   UNL     1       6.486   0.067  -0.793  1.00  0.00    -0.047 A 
ATOM      8  C   UNL     1       5.811   1.206  -0.398  1.00  0.00     0.004 A 
ATOM      9  C   UNL     1       6.624  -0.932   0.153  1.00  0.00     0.004 A 
ATOM     10  C   UNL     1       5.308   1.319   0.884  1.00  0.00     0.000 A 
ATOM     11  C   UNL     1       6.123  -0.821   1.431  1.00  0.00     0.000 A 
ATOM     12  C   UNL     1       5.449   0.318   1.823  1.00  0.00     0.000 A 
ENDBRANCH   6   7
ENDBRANCH   1   6
TORSDOF 4
ENDMDL
MODEL 2
REMARK VINA RESULT:      -7.2      0.044      1.420
REMARK SMILES O=C(O)CCc1ccccc1
REMARK SMILES IDX 4 1 2 2 1 3 3 4 5 6 6 7 7 8 11 9 8 10 10 11 9 12
REMARK H PARENT 3 5
REMARK Flexibility Score: inf
ROOT
ATOM      1  C   UNL     1       8.436  -0.621  -2.132  1.00  0.00     0.127 C 
ENDROOT
BRANCH   1   2
ATOM      2  C   UNL     1       8.418  -1.900  -2.887  1.00  0.00     0.303 C 
ATOM      3  O   UNL     1       7.316  -2.408  -3.205  1.00  0.00    -0.252 OA
BRANCH   2   4
ATOM      4  O   UNL     1       9.584  -2.564  -3.261  1.00  0.00    -0.481 OA
ATOM      5  H   UNL     1      10.257  -2.916  -2.563  1.00  0.00     0.296 HD
ENDBRANCH   2   4
ENDBRANCH   1   2
BRANCH   1   6
ATOM      6  C   UNL     1       7.034  -0.076  -2.131  1.00  0.00     0.047 C 
BRANCH   6   7
ATOM      7  C   UNL     1       6.478   0.057  -0.759  1.00  0.00    -0.047 A 
ATOM      8  C   UNL     1       6.597  -0.964   0.164  1.00  0.00     0.004 A 
ATOM      9  C   UNL     1       5.821   1.199  -0.339  1.00  0.00     0.004 A 
ATOM     10  C   UNL     1       6.076  -0.830   1.437  1.00  0.00     0.000 A 
ATOM     11  C   UNL     1       5.301   1.335   0.929  1.00  0.00     0.000 A 
ATOM     12  C   UNL     1       5.421   0.313   1.848  1.00  0.00     0.000 A 
ENDBRANCH   6   7
ENDBRANCH   1   6
TORSDOF 4
ENDMDL
MODEL 3
REMARK VINA RESULT:      -6.8      3.323      5.178
REMARK SMILES O=C(O)CCc1ccccc1
REMARK SMILES IDX 4 1 2 2 1 3 3 4 5 6 6 7 7 8 11 9 8 10 10 11 9 12
REMARK H PARENT 3 5
REMARK Flexibility Score: inf
ROOT
ATOM      1  C   UNL     1       4.966   1.803   0.711  1.00  0.00     0.127 C 
ENDROOT
BRANCH   1   2
ATOM      2  C   UNL     1       4.440   1.126   1.924  1.00  0.00     0.303 C 
ATOM      3  O   UNL     1       5.120   0.221   2.465  1.00  0.00    -0.252 OA
BRANCH   2   4
ATOM      4  O   UNL     1       3.212   1.457   2.492  1.00  0.00    -0.481 OA
ATOM      5  H   UNL     1       2.347   1.497   1.932  1.00  0.00     0.296 HD
ENDBRANCH   2   4
ENDBRANCH   1   2
BRANCH   1   6
ATOM      6  C   UNL     1       6.467   1.808   0.811  1.00  0.00     0.047 C 
BRANCH   6   7
ATOM      7  C   UNL     1       7.112   1.065  -0.303  1.00  0.00    -0.047 A 
ATOM      8  C   UNL     1       6.397   0.172  -1.077  1.00  0.00     0.004 A 
ATOM      9  C   UNL     1       8.448   1.230  -0.620  1.00  0.00     0.004 A 
ATOM     10  C   UNL     1       7.007  -0.514  -2.110  1.00  0.00     0.000 A 
ATOM     11  C   UNL     1       9.058   0.548  -1.649  1.00  0.00     0.000 A 
ATOM     12  C   UNL     1       8.341  -0.345  -2.420  1.00  0.00     0.000 A 
ENDBRANCH   6   7
ENDBRANCH   1   6
TORSDOF 4
ENDMDL
MODEL 4
REMARK VINA RESULT:      -6.5      1.878      2.918
REMARK SMILES O=C(O)CCc1ccccc1
REMARK SMILES IDX 4 1 2 2 1 3 3 4 5 6 6 7 7 8 11 9 8 10 10 11 9 12
REMARK H PARENT 3 5
REMARK Flexibility Score: inf
ROOT
ATOM      1  C   UNL     1       8.291  -1.525   0.965  1.00  0.00     0.127 C 
ENDROOT
BRANCH   1   2
ATOM      2  C   UNL     1       8.505  -2.799   0.231  1.00  0.00     0.303 C 
ATOM      3  O   UNL     1       9.083  -3.750   0.811  1.00  0.00    -0.252 OA
BRANCH   2   4
ATOM      4  O   UNL     1       8.086  -2.983  -1.084  1.00  0.00    -0.481 OA
ATOM      5  H   UNL     1       7.170  -3.398  -1.311  1.00  0.00     0.296 HD
ENDBRANCH   2   4
ENDBRANCH   1   2
BRANCH   1   6
ATOM      6  C   UNL     1       6.822  -1.420   1.270  1.00  0.00     0.047 C 
BRANCH   6   7
ATOM      7  C   UNL     1       6.223  -0.162   0.752  1.00  0.00    -0.047 A 
ATOM      8  C   UNL     1       6.439   0.250  -0.549  1.00  0.00     0.004 A 
ATOM      9  C   UNL     1       5.426   0.651   1.536  1.00  0.00     0.004 A 
ATOM     10  C   UNL     1       5.878   1.421  -1.020  1.00  0.00     0.000 A 
ATOM     11  C   UNL     1       4.865   1.818   1.068  1.00  0.00     0.000 A 
ATOM     12  C   UNL     1       5.083   2.228  -0.232  1.00  0.00     0.000 A 
ENDBRANCH   6   7
ENDBRANCH   1   6
TORSDOF 4
ENDMDL
MODEL 5
REMARK VINA RESULT:      -6.5      3.661      5.107
REMARK SMILES O=C(O)CCc1ccccc1
REMARK SMILES IDX 4 1 2 2 1 3 3 4 5 6 6 7 7 8 11 9 8 10 10 11 9 12
REMARK H PARENT 3 5
REMARK Flexibility Score: inf
ROOT
ATOM      1  C   UNL     1       5.260   2.809   0.139  1.00  0.00     0.127 C 
ENDROOT
BRANCH   1   2
ATOM      2  C   UNL     1       6.135   3.778   0.848  1.00  0.00     0.303 C 
ATOM      3  O   UNL     1       6.246   3.703   2.096  1.00  0.00    -0.252 OA
BRANCH   2   4
ATOM      4  O   UNL     1       6.842   4.775   0.180  1.00  0.00    -0.481 OA
ATOM      5  H   UNL     1       7.867   4.734   0.071  1.00  0.00     0.296 HD
ENDBRANCH   2   4
ENDBRANCH   1   2
BRANCH   1   6
ATOM      6  C   UNL     1       5.326   1.507   0.889  1.00  0.00     0.047 C 
BRANCH   6   7
ATOM      7  C   UNL     1       6.099   0.469   0.157  1.00  0.00    -0.047 A 
ATOM      8  C   UNL     1       6.586  -0.649   0.805  1.00  0.00     0.004 A 
ATOM      9  C   UNL     1       6.365   0.567  -1.196  1.00  0.00     0.004 A 
ATOM     10  C   UNL     1       7.303  -1.608   0.115  1.00  0.00     0.000 A 
ATOM     11  C   UNL     1       7.079  -0.387  -1.886  1.00  0.00     0.000 A 
ATOM     12  C   UNL     1       7.566  -1.503  -1.235  1.00  0.00     0.000 A 
ENDBRANCH   6   7
ENDBRANCH   1   6
TORSDOF 4
ENDMDL
