@<TRIPOS>MOLECULE
/home/cewinharhar/GITHUB/reincatalyze/data/processed/docking_pred/2023-Apr-25-2033_maxeplen5_maxtrainstep200_exh16_gamma099_lrac3e-4_lrcr1e-3/8a11bcf53d23875e79cb17a52aa7b3de0dc85e7d_ligand_2.pdbqt
 12 12 0 0 0
SMALL
GASTEIGER

@<TRIPOS>ATOM
      1  C          8.4360   -0.6210   -2.1320 C.3     1  UNL1        0.1270
      2  C          8.4180   -1.9000   -2.8870 C.2     1  UNL1        0.3030
      3  O          7.3160   -2.4080   -3.2050 O.2     1  UNL1       -0.2520
      4  O          9.5840   -2.5640   -3.2610 O.3     1  UNL1       -0.4810
      5  H         10.2570   -2.9160   -2.5630 H       1  UNL1        0.2960
      6  C          7.0340   -0.0760   -2.1310 C.3     1  UNL1        0.0470
      7  C          6.4780    0.0570   -0.7590 C.2     1  UNL1       -0.0470
      8  C          6.5970   -0.9640    0.1640 C.2     1  UNL1        0.0040
      9  C          5.8210    1.1990   -0.3390 C.2     1  UNL1        0.0040
     10  C          6.0760   -0.8300    1.4370 C.2     1  UNL1        0.0000
     11  C          5.3010    1.3350    0.9290 C.2     1  UNL1        0.0000
     12  C          5.4210    0.3130    1.8480 C.2     1  UNL1        0.0000
@<TRIPOS>BOND
     1     4     2    1
     2     4     5    1
     3     3     2    2
     4     2     1    1
     5     1     6    1
     6     6     7    1
     7     7     9    2
     8     7     8    1
     9     9    11    1
    10     8    10    2
    11    11    12    2
    12    10    12    1
