@<TRIPOS>MOLECULE
/home/cewinharhar/GITHUB/reincatalyze/data/processed/docking_pred/2023-Apr-25-2033_maxeplen5_maxtrainstep200_exh16_gamma099_lrac3e-4_lrcr1e-3/8a11bcf53d23875e79cb17a52aa7b3de0dc85e7d_ligand_2.pdbqt
 12 12 0 0 0
SMALL
GASTEIGER

@<TRIPOS>ATOM
      1  C          8.2910   -1.5250    0.9650 C.3     1  UNL1        0.1270
      2  C          8.5050   -2.7990    0.2310 C.2     1  UNL1        0.3030
      3  O          9.0830   -3.7500    0.8110 O.2     1  UNL1       -0.2520
      4  O          8.0860   -2.9830   -1.0840 O.3     1  UNL1       -0.4810
      5  H          7.1700   -3.3980   -1.3110 H       1  UNL1        0.2960
      6  C          6.8220   -1.4200    1.2700 C.3     1  UNL1        0.0470
      7  C          6.2230   -0.1620    0.7520 C.2     1  UNL1       -0.0470
      8  C          6.4390    0.2500   -0.5490 C.2     1  UNL1        0.0040
      9  C          5.4260    0.6510    1.5360 C.2     1  UNL1        0.0040
     10  C          5.8780    1.4210   -1.0200 C.2     1  UNL1        0.0000
     11  C          4.8650    1.8180    1.0680 C.2     1  UNL1        0.0000
     12  C          5.0830    2.2280   -0.2320 C.2     1  UNL1        0.0000
@<TRIPOS>BOND
     1     5     4    1
     2     4     2    1
     3    10     8    1
     4    10    12    2
     5     8     7    2
     6    12    11    1
     7     2     3    2
     8     2     1    1
     9     7     6    1
    10     7     9    1
    11     1     6    1
    12    11     9    2
