@<TRIPOS>MOLECULE
/home/cewinharhar/GITHUB/reincatalyze/data/processed/docking_pred/2023-Apr-25-2033_maxeplen5_maxtrainstep200_exh16_gamma099_lrac3e-4_lrcr1e-3/8a11bcf53d23875e79cb17a52aa7b3de0dc85e7d_ligand_2.pdbqt
 12 12 0 0 0
SMALL
GASTEIGER

@<TRIPOS>ATOM
      1  C          4.9660    1.8030    0.7110 C.3     1  UNL1        0.1270
      2  C          4.4400    1.1260    1.9240 C.2     1  UNL1        0.3030
      3  O          5.1200    0.2210    2.4650 O.2     1  UNL1       -0.2520
      4  O          3.2120    1.4570    2.4920 O.3     1  UNL1       -0.4810
      5  H          2.3470    1.4970    1.9320 H       1  UNL1        0.2960
      6  C          6.4670    1.8080    0.8110 C.3     1  UNL1        0.0470
      7  C          7.1120    1.0650   -0.3030 C.2     1  UNL1       -0.0470
      8  C          6.3970    0.1720   -1.0770 C.2     1  UNL1        0.0040
      9  C          8.4480    1.2300   -0.6200 C.2     1  UNL1        0.0040
     10  C          7.0070   -0.5140   -2.1100 C.2     1  UNL1        0.0000
     11  C          9.0580    0.5480   -1.6490 C.2     1  UNL1        0.0000
     12  C          8.3410   -0.3450   -2.4200 C.2     1  UNL1        0.0000
@<TRIPOS>BOND
     1    12    10    2
     2    12    11    1
     3    10     8    1
     4    11     9    2
     5     8     7    2
     6     9     7    1
     7     7     6    1
     8     1     6    1
     9     1     2    1
    10     2     3    2
    11     2     4    1
    12     5     4    1
