@<TRIPOS>MOLECULE
/home/cewinharhar/GITHUB/reincatalyze/data/processed/docking_pred/2023-Apr-25-2033_maxeplen5_maxtrainstep200_exh16_gamma099_lrac3e-4_lrcr1e-3/8a11bcf53d23875e79cb17a52aa7b3de0dc85e7d_ligand_2.pdbqt
 12 12 0 0 0
SMALL
GASTEIGER

@<TRIPOS>ATOM
      1  C          8.4360   -0.6050   -2.1800 C.3     1  UNL1        0.1270
      2  C          8.4100   -1.9050   -2.9000 C.2     1  UNL1        0.3030
      3  O          7.3060   -2.3980   -3.2350 O.2     1  UNL1       -0.2520
      4  O          9.5710   -2.6040   -3.2210 O.3     1  UNL1       -0.4810
      5  H         10.1480   -3.0620   -2.4990 H       1  UNL1        0.2960
      6  C          7.0320   -0.0660   -2.1690 C.3     1  UNL1        0.0470
      7  C          6.4860    0.0670   -0.7930 C.2     1  UNL1       -0.0470
      8  C          5.8110    1.2060   -0.3980 C.2     1  UNL1        0.0040
      9  C          6.6240   -0.9320    0.1530 C.2     1  UNL1        0.0040
     10  C          5.3080    1.3190    0.8840 C.2     1  UNL1        0.0000
     11  C          6.1230   -0.8210    1.4310 C.2     1  UNL1        0.0000
     12  C          5.4490    0.3180    1.8230 C.2     1  UNL1        0.0000
@<TRIPOS>BOND
     1     3     2    2
     2     4     2    1
     3     4     5    1
     4     2     1    1
     5     1     6    1
     6     6     7    1
     7     7     8    2
     8     7     9    1
     9     8    10    1
    10     9    11    2
    11    10    12    2
    12    11    12    1
