@<TRIPOS>MOLECULE
/home/cewinharhar/GITHUB/reincatalyze/data/processed/docking_pred/2023-Apr-25-2033_maxeplen5_maxtrainstep200_exh16_gamma099_lrac3e-4_lrcr1e-3/8c75984685002de52dc1feb6518b36ce8b766619_ligand_2.pdbqt
 12 12 0 0 0
SMALL
GASTEIGER

@<TRIPOS>ATOM
      1  C          8.1680   -1.5910    1.1750 C.3     1  UNL1        0.1270
      2  C          8.4860   -2.7840    0.3480 C.2     1  UNL1        0.3030
      3  O          9.1610   -3.7150    0.8500 O.2     1  UNL1       -0.2520
      4  O          8.0620   -2.9130   -0.9720 O.3     1  UNL1       -0.4810
      5  H          8.7200   -3.1260   -1.7370 H       1  UNL1        0.2960
      6  C          6.6710   -1.5000    1.2820 C.3     1  UNL1        0.0470
      7  C          6.1440   -0.2080    0.7700 C.2     1  UNL1       -0.0470
      8  C          6.3740    0.1950   -0.5310 C.2     1  UNL1        0.0040
      9  C          5.4010    0.6480    1.5620 C.2     1  UNL1        0.0040
     10  C          5.8790    1.3980   -0.9960 C.2     1  UNL1        0.0000
     11  C          4.9070    1.8480    1.1010 C.2     1  UNL1        0.0000
     12  C          5.1390    2.2480   -0.1990 C.2     1  UNL1        0.0000
@<TRIPOS>BOND
     1     5     4    1
     2    10     8    1
     3    10    12    2
     4     4     2    1
     5     8     7    2
     6    12    11    1
     7     2     3    2
     8     2     1    1
     9     7     6    1
    10     7     9    1
    11    11     9    2
    12     1     6    1
