@<TRIPOS>MOLECULE
/home/cewinharhar/GITHUB/reincatalyze/data/processed/docking_pred/2023-Apr-25-2033_maxeplen5_maxtrainstep200_exh16_gamma099_lrac3e-4_lrcr1e-3/8c75984685002de52dc1feb6518b36ce8b766619_ligand_2.pdbqt
 12 12 0 0 0
SMALL
GASTEIGER

@<TRIPOS>ATOM
      1  C          8.4370   -0.6010   -2.1680 C.3     1  UNL1        0.1270
      2  C          8.4190   -1.8990   -2.8910 C.2     1  UNL1        0.3030
      3  O          7.3170   -2.4090   -3.2080 O.2     1  UNL1       -0.2520
      4  O          9.5850   -2.5780   -3.2360 O.3     1  UNL1       -0.4810
      5  H          9.9740   -3.3280   -2.6430 H       1  UNL1        0.2960
      6  C          7.0310   -0.0680   -2.1610 C.3     1  UNL1        0.0470
      7  C          6.4840    0.0730   -0.7860 C.2     1  UNL1       -0.0470
      8  C          6.6180   -0.9390    0.1440 C.2     1  UNL1        0.0040
      9  C          5.8220    1.2140   -0.3710 C.2     1  UNL1        0.0040
     10  C          6.1050   -0.7980    1.4200 C.2     1  UNL1        0.0000
     11  C          5.3110    1.3570    0.9000 C.2     1  UNL1        0.0000
     12  C          5.4450    0.3430    1.8270 C.2     1  UNL1        0.0000
@<TRIPOS>BOND
     1     4     2    1
     2     4     5    1
     3     3     2    2
     4     2     1    1
     5     1     6    1
     6     6     7    1
     7     7     9    2
     8     7     8    1
     9     9    11    1
    10     8    10    2
    11    11    12    2
    12    10    12    1
