@<TRIPOS>MOLECULE
/home/cewinharhar/GITHUB/reincatalyze/data/processed/docking_pred/2023-Apr-25-2033_maxeplen5_maxtrainstep200_exh16_gamma099_lrac3e-4_lrcr1e-3/8c75984685002de52dc1feb6518b36ce8b766619_ligand_2.pdbqt
 12 12 0 0 0
SMALL
GASTEIGER

@<TRIPOS>ATOM
      1  C          8.2590   -0.9840   -1.7910 C.3     1  UNL1        0.1270
      2  C          8.3820   -2.0260   -2.8440 C.2     1  UNL1        0.3030
      3  O          9.5180   -2.4740   -3.1320 O.2     1  UNL1       -0.2520
      4  O          7.2800   -2.5300   -3.5290 O.3     1  UNL1       -0.4810
      5  H          6.3160   -2.2540   -3.2870 H       1  UNL1        0.2960
      6  C          7.2090   -1.4460   -0.8180 C.3     1  UNL1        0.0470
      7  C          6.4570   -0.3140   -0.2160 C.2     1  UNL1       -0.0470
      8  C          6.0340   -0.3550    1.0990 C.2     1  UNL1        0.0040
      9  C          6.1450    0.8260   -0.9330 C.2     1  UNL1        0.0040
     10  C          5.3350    0.7030    1.6480 C.2     1  UNL1        0.0000
     11  C          5.4490    1.8820   -0.3870 C.2     1  UNL1        0.0000
     12  C          5.0270    1.8380    0.9270 C.2     1  UNL1        0.0000
@<TRIPOS>BOND
     1     4     5    1
     2     4     2    1
     3     3     2    2
     4     2     1    1
     5     1     6    1
     6     9    11    1
     7     9     7    2
     8     6     7    1
     9    11    12    2
    10     7     8    1
    11    12    10    1
    12     8    10    2
