MODEL 1
REMARK VINA RESULT:      -7.2      0.000      0.000
REMARK SMILES O=C(O)CCc1ccccc1
REMARK SMILES IDX 4 1 2 2 1 3 3 4 5 6 6 7 7 8 11 9 8 10 10 11 9 12
REMARK H PARENT 3 5
REMARK Flexibility Score: inf
ROOT
ATOM      1  C   UNL     1       8.461  -0.754  -1.931  1.00  0.00     0.127 C 
ENDROOT
BRANCH   1   2
ATOM      2  C   UNL     1       8.415  -1.935  -2.831  1.00  0.00     0.303 C 
ATOM      3  O   UNL     1       7.302  -2.386  -3.194  1.00  0.00    -0.252 OA
BRANCH   2   4
ATOM      4  O   UNL     1       9.566  -2.568  -3.293  1.00  0.00    -0.481 OA
ATOM      5  H   UNL     1       9.847  -3.501  -2.955  1.00  0.00     0.296 HD
ENDBRANCH   2   4
ENDBRANCH   1   2
BRANCH   1   6
ATOM      6  C   UNL     1       7.132  -0.056  -2.032  1.00  0.00     0.047 C 
BRANCH   6   7
ATOM      7  C   UNL     1       6.489   0.133  -0.705  1.00  0.00    -0.047 A 
ATOM      8  C   UNL     1       5.779   1.281  -0.412  1.00  0.00     0.004 A 
ATOM      9  C   UNL     1       6.566  -0.821   0.292  1.00  0.00     0.004 A 
ATOM     10  C   UNL     1       5.184   1.447   0.824  1.00  0.00     0.000 A 
ATOM     11  C   UNL     1       5.974  -0.658   1.525  1.00  0.00     0.000 A 
ATOM     12  C   UNL     1       5.266   0.491   1.816  1.00  0.00     0.000 A 
ENDBRANCH   6   7
ENDBRANCH   1   6
TORSDOF 4
ENDMDL
MODEL 2
REMARK VINA RESULT:      -7.2      0.167      1.427
REMARK SMILES O=C(O)CCc1ccccc1
REMARK SMILES IDX 4 1 2 2 1 3 3 4 5 6 6 7 7 8 11 9 8 10 10 11 9 12
REMARK H PARENT 3 5
REMARK Flexibility Score: inf
ROOT
ATOM      1  C   UNL     1       8.437  -0.601  -2.168  1.00  0.00     0.127 C 
ENDROOT
BRANCH   1   2
ATOM      2  C   UNL     1       8.419  -1.899  -2.891  1.00  0.00     0.303 C 
ATOM      3  O   UNL     1       7.317  -2.409  -3.208  1.00  0.00    -0.252 OA
BRANCH   2   4
ATOM      4  O   UNL     1       9.585  -2.578  -3.236  1.00  0.00    -0.481 OA
ATOM      5  H   UNL     1       9.974  -3.328  -2.643  1.00  0.00     0.296 HD
ENDBRANCH   2   4
ENDBRANCH   1   2
BRANCH   1   6
ATOM      6  C   UNL     1       7.031  -0.068  -2.161  1.00  0.00     0.047 C 
BRANCH   6   7
ATOM      7  C   UNL     1       6.484   0.073  -0.786  1.00  0.00    -0.047 A 
ATOM      8  C   UNL     1       6.618  -0.939   0.144  1.00  0.00     0.004 A 
ATOM      9  C   UNL     1       5.822   1.214  -0.371  1.00  0.00     0.004 A 
ATOM     10  C   UNL     1       6.105  -0.798   1.420  1.00  0.00     0.000 A 
ATOM     11  C   UNL     1       5.311   1.357   0.900  1.00  0.00     0.000 A 
ATOM     12  C   UNL     1       5.445   0.343   1.827  1.00  0.00     0.000 A 
ENDBRANCH   6   7
ENDBRANCH   1   6
TORSDOF 4
ENDMDL
MODEL 3
REMARK VINA RESULT:      -7.2      0.637      1.856
REMARK SMILES O=C(O)CCc1ccccc1
REMARK SMILES IDX 4 1 2 2 1 3 3 4 5 6 6 7 7 8 11 9 8 10 10 11 9 12
REMARK H PARENT 3 5
REMARK Flexibility Score: inf
ROOT
ATOM      1  C   UNL     1       8.259  -0.984  -1.791  1.00  0.00     0.127 C 
ENDROOT
BRANCH   1   2
ATOM      2  C   UNL     1       8.382  -2.026  -2.844  1.00  0.00     0.303 C 
ATOM      3  O   UNL     1       9.518  -2.474  -3.132  1.00  0.00    -0.252 OA
BRANCH   2   4
ATOM      4  O   UNL     1       7.280  -2.530  -3.529  1.00  0.00    -0.481 OA
ATOM      5  H   UNL     1       6.316  -2.254  -3.287  1.00  0.00     0.296 HD
ENDBRANCH   2   4
ENDBRANCH   1   2
BRANCH   1   6
ATOM      6  C   UNL     1       7.209  -1.446  -0.818  1.00  0.00     0.047 C 
BRANCH   6   7
ATOM      7  C   UNL     1       6.457  -0.314  -0.216  1.00  0.00    -0.047 A 
ATOM      8  C   UNL     1       6.034  -0.355   1.099  1.00  0.00     0.004 A 
ATOM      9  C   UNL     1       6.145   0.826  -0.933  1.00  0.00     0.004 A 
ATOM     10  C   UNL     1       5.335   0.703   1.648  1.00  0.00     0.000 A 
ATOM     11  C   UNL     1       5.449   1.882  -0.387  1.00  0.00     0.000 A 
ATOM     12  C   UNL     1       5.027   1.838   0.927  1.00  0.00     0.000 A 
ENDBRANCH   6   7
ENDBRANCH   1   6
TORSDOF 4
ENDMDL
MODEL 4
REMARK VINA RESULT:      -6.8      3.289      5.162
REMARK SMILES O=C(O)CCc1ccccc1
REMARK SMILES IDX 4 1 2 2 1 3 3 4 5 6 6 7 7 8 11 9 8 10 10 11 9 12
REMARK H PARENT 3 5
REMARK Flexibility Score: inf
ROOT
ATOM      1  C   UNL     1       5.001   1.822   0.706  1.00  0.00     0.127 C 
ENDROOT
BRANCH   1   2
ATOM      2  C   UNL     1       4.472   1.133   1.911  1.00  0.00     0.303 C 
ATOM      3  O   UNL     1       5.156   0.229   2.449  1.00  0.00    -0.252 OA
BRANCH   2   4
ATOM      4  O   UNL     1       3.239   1.453   2.473  1.00  0.00    -0.481 OA
ATOM      5  H   UNL     1       3.161   2.043   3.316  1.00  0.00     0.296 HD
ENDBRANCH   2   4
ENDBRANCH   1   2
BRANCH   1   6
ATOM      6  C   UNL     1       6.502   1.804   0.796  1.00  0.00     0.047 C 
BRANCH   6   7
ATOM      7  C   UNL     1       7.129   1.038  -0.314  1.00  0.00    -0.047 A 
ATOM      8  C   UNL     1       8.456   1.223  -0.650  1.00  0.00     0.004 A 
ATOM      9  C   UNL     1       6.423   0.111  -1.058  1.00  0.00     0.004 A 
ATOM     10  C   UNL     1       9.028   0.506  -1.683  1.00  0.00     0.000 A 
ATOM     11  C   UNL     1       6.991  -0.604  -2.088  1.00  0.00     0.000 A 
ATOM     12  C   UNL     1       8.317  -0.418  -2.422  1.00  0.00     0.000 A 
ENDBRANCH   6   7
ENDBRANCH   1   6
TORSDOF 4
ENDMDL
MODEL 5
REMARK VINA RESULT:      -6.5      1.911      2.885
REMARK SMILES O=C(O)CCc1ccccc1
REMARK SMILES IDX 4 1 2 2 1 3 3 4 5 6 6 7 7 8 11 9 8 10 10 11 9 12
REMARK H PARENT 3 5
REMARK Flexibility Score: inf
ROOT
ATOM      1  C   UNL     1       8.168  -1.591   1.175  1.00  0.00     0.127 C 
ENDROOT
BRANCH   1   2
ATOM      2  C   UNL     1       8.486  -2.784   0.348  1.00  0.00     0.303 C 
ATOM      3  O   UNL     1       9.161  -3.715   0.850  1.00  0.00    -0.252 OA
BRANCH   2   4
ATOM      4  O   UNL     1       8.062  -2.913  -0.972  1.00  0.00    -0.481 OA
ATOM      5  H   UNL     1       8.720  -3.126  -1.737  1.00  0.00     0.296 HD
ENDBRANCH   2   4
ENDBRANCH   1   2
BRANCH   1   6
ATOM      6  C   UNL     1       6.671  -1.500   1.282  1.00  0.00     0.047 C 
BRANCH   6   7
ATOM      7  C   UNL     1       6.144  -0.208   0.770  1.00  0.00    -0.047 A 
ATOM      8  C   UNL     1       6.374   0.195  -0.531  1.00  0.00     0.004 A 
ATOM      9  C   UNL     1       5.401   0.648   1.562  1.00  0.00     0.004 A 
ATOM     10  C   UNL     1       5.879   1.398  -0.996  1.00  0.00     0.000 A 
ATOM     11  C   UNL     1       4.907   1.848   1.101  1.00  0.00     0.000 A 
ATOM     12  C   UNL     1       5.139   2.248  -0.199  1.00  0.00     0.000 A 
ENDBRANCH   6   7
ENDBRANCH   1   6
TORSDOF 4
ENDMDL
