@<TRIPOS>MOLECULE
/home/cewinharhar/GITHUB/reincatalyze/data/processed/docking_pred/2023-Apr-25-2033_maxeplen5_maxtrainstep200_exh16_gamma099_lrac3e-4_lrcr1e-3/8c75984685002de52dc1feb6518b36ce8b766619_ligand_2.pdbqt
 12 12 0 0 0
SMALL
GASTEIGER

@<TRIPOS>ATOM
      1  C          5.0010    1.8220    0.7060 C.3     1  UNL1        0.1270
      2  C          4.4720    1.1330    1.9110 C.2     1  UNL1        0.3030
      3  O          5.1560    0.2290    2.4490 O.2     1  UNL1       -0.2520
      4  O          3.2390    1.4530    2.4730 O.3     1  UNL1       -0.4810
      5  H          3.1610    2.0430    3.3160 H       1  UNL1        0.2960
      6  C          6.5020    1.8040    0.7960 C.3     1  UNL1        0.0470
      7  C          7.1290    1.0380   -0.3140 C.2     1  UNL1       -0.0470
      8  C          8.4560    1.2230   -0.6500 C.2     1  UNL1        0.0040
      9  C          6.4230    0.1110   -1.0580 C.2     1  UNL1        0.0040
     10  C          9.0280    0.5060   -1.6830 C.2     1  UNL1        0.0000
     11  C          6.9910   -0.6040   -2.0880 C.2     1  UNL1        0.0000
     12  C          8.3170   -0.4180   -2.4220 C.2     1  UNL1        0.0000
@<TRIPOS>BOND
     1    12    11    2
     2    12    10    1
     3    11     9    1
     4    10     8    2
     5     9     7    2
     6     8     7    1
     7     7     6    1
     8     1     6    1
     9     1     2    1
    10     2     3    2
    11     2     4    1
    12     4     5    1
