@<TRIPOS>MOLECULE
/home/cewinharhar/GITHUB/reincatalyze/data/processed/docking_pred/2023-Apr-25-2033_maxeplen5_maxtrainstep200_exh16_gamma099_lrac3e-4_lrcr1e-3/8c75984685002de52dc1feb6518b36ce8b766619_ligand_2.pdbqt
 12 12 0 0 0
SMALL
GASTEIGER

@<TRIPOS>ATOM
      1  C          8.4610   -0.7540   -1.9310 C.3     1  UNL1        0.1270
      2  C          8.4150   -1.9350   -2.8310 C.2     1  UNL1        0.3030
      3  O          7.3020   -2.3860   -3.1940 O.2     1  UNL1       -0.2520
      4  O          9.5660   -2.5680   -3.2930 O.3     1  UNL1       -0.4810
      5  H          9.8470   -3.5010   -2.9550 H       1  UNL1        0.2960
      6  C          7.1320   -0.0560   -2.0320 C.3     1  UNL1        0.0470
      7  C          6.4890    0.1330   -0.7050 C.2     1  UNL1       -0.0470
      8  C          5.7790    1.2810   -0.4120 C.2     1  UNL1        0.0040
      9  C          6.5660   -0.8210    0.2920 C.2     1  UNL1        0.0040
     10  C          5.1840    1.4470    0.8240 C.2     1  UNL1        0.0000
     11  C          5.9740   -0.6580    1.5250 C.2     1  UNL1        0.0000
     12  C          5.2660    0.4910    1.8160 C.2     1  UNL1        0.0000
@<TRIPOS>BOND
     1     4     5    1
     2     4     2    1
     3     3     2    2
     4     2     1    1
     5     6     1    1
     6     6     7    1
     7     7     8    2
     8     7     9    1
     9     8    10    1
    10     9    11    2
    11    10    12    2
    12    11    12    1
