@<TRIPOS>MOLECULE
/home/cewinharhar/GITHUB/reincatalyze/data/processed/docking_pred/2023-Apr-25-2033_maxeplen5_maxtrainstep200_exh16_gamma099_lrac3e-4_lrcr1e-3/8f7c925e970cb887b69f6e81c5db99fda922d0ae_ligand_2.pdbqt
 12 12 0 0 0
SMALL
GASTEIGER

@<TRIPOS>ATOM
      1  C          8.4680   -0.6910   -2.0340 C.3     1  UNL1        0.1270
      2  C          8.4240   -1.9260   -2.8600 C.2     1  UNL1        0.3030
      3  O          7.3110   -2.3950   -3.2000 O.2     1  UNL1       -0.2520
      4  O          9.5750   -2.5880   -3.2760 O.3     1  UNL1       -0.4810
      5  H         10.4300   -2.6090   -2.6980 H       1  UNL1        0.2960
      6  C          7.1060   -0.0570   -2.0950 C.3     1  UNL1        0.0470
      7  C          6.4950    0.1050   -0.7500 C.2     1  UNL1       -0.0470
      8  C          5.7900    1.2460   -0.4170 C.2     1  UNL1        0.0040
      9  C          6.5970   -0.8670    0.2270 C.2     1  UNL1        0.0040
     10  C          5.2260    1.3870    0.8370 C.2     1  UNL1        0.0000
     11  C          6.0360   -0.7300    1.4770 C.2     1  UNL1        0.0000
     12  C          5.3330    0.4120    1.8070 C.2     1  UNL1        0.0000
@<TRIPOS>BOND
     1     4     2    1
     2     4     5    1
     3     3     2    2
     4     2     1    1
     5     6     1    1
     6     6     7    1
     7     7     8    2
     8     7     9    1
     9     8    10    1
    10     9    11    2
    11    10    12    2
    12    11    12    1
