MODEL 1
REMARK VINA RESULT:      -7.3      0.000      0.000
REMARK SMILES O=C(O)CCc1ccccc1
REMARK SMILES IDX 4 1 2 2 1 3 3 4 5 6 6 7 7 8 11 9 8 10 10 11 9 12
REMARK H PARENT 3 5
REMARK Flexibility Score: inf
ROOT
ATOM      1  C   UNL     1       8.468  -0.691  -2.034  1.00  0.00     0.127 C 
ENDROOT
BRANCH   1   2
ATOM      2  C   UNL     1       8.424  -1.926  -2.860  1.00  0.00     0.303 C 
ATOM      3  O   UNL     1       7.311  -2.395  -3.200  1.00  0.00    -0.252 OA
BRANCH   2   4
ATOM      4  O   UNL     1       9.575  -2.588  -3.276  1.00  0.00    -0.481 OA
ATOM      5  H   UNL     1      10.430  -2.609  -2.698  1.00  0.00     0.296 HD
ENDBRANCH   2   4
ENDBRANCH   1   2
BRANCH   1   6
ATOM      6  C   UNL     1       7.106  -0.057  -2.095  1.00  0.00     0.047 C 
BRANCH   6   7
ATOM      7  C   UNL     1       6.495   0.105  -0.750  1.00  0.00    -0.047 A 
ATOM      8  C   UNL     1       5.790   1.246  -0.417  1.00  0.00     0.004 A 
ATOM      9  C   UNL     1       6.597  -0.867   0.227  1.00  0.00     0.004 A 
ATOM     10  C   UNL     1       5.226   1.387   0.837  1.00  0.00     0.000 A 
ATOM     11  C   UNL     1       6.036  -0.730   1.477  1.00  0.00     0.000 A 
ATOM     12  C   UNL     1       5.333   0.412   1.807  1.00  0.00     0.000 A 
ENDBRANCH   6   7
ENDBRANCH   1   6
TORSDOF 4
ENDMDL
MODEL 2
REMARK VINA RESULT:      -7.2      0.063      1.420
REMARK SMILES O=C(O)CCc1ccccc1
REMARK SMILES IDX 4 1 2 2 1 3 3 4 5 6 6 7 7 8 11 9 8 10 10 11 9 12
REMARK H PARENT 3 5
REMARK Flexibility Score: inf
ROOT
ATOM      1  C   UNL     1       8.416  -0.679  -2.068  1.00  0.00     0.127 C 
ENDROOT
BRANCH   1   2
ATOM      2  C   UNL     1       8.401  -1.928  -2.873  1.00  0.00     0.303 C 
ATOM      3  O   UNL     1       7.301  -2.416  -3.226  1.00  0.00    -0.252 OA
BRANCH   2   4
ATOM      4  O   UNL     1       9.569  -2.584  -3.255  1.00  0.00    -0.481 OA
ATOM      5  H   UNL     1       9.877  -2.616  -4.239  1.00  0.00     0.296 HD
ENDBRANCH   2   4
ENDBRANCH   1   2
BRANCH   1   6
ATOM      6  C   UNL     1       7.026  -0.106  -2.097  1.00  0.00     0.047 C 
BRANCH   6   7
ATOM      7  C   UNL     1       6.454   0.065  -0.735  1.00  0.00    -0.047 A 
ATOM      8  C   UNL     1       6.551  -0.935   0.212  1.00  0.00     0.004 A 
ATOM      9  C   UNL     1       5.805   1.224  -0.350  1.00  0.00     0.004 A 
ATOM     10  C   UNL     1       6.016  -0.765   1.475  1.00  0.00     0.000 A 
ATOM     11  C   UNL     1       5.271   1.395   0.907  1.00  0.00     0.000 A 
ATOM     12  C   UNL     1       5.368   0.393   1.852  1.00  0.00     0.000 A 
ENDBRANCH   6   7
ENDBRANCH   1   6
TORSDOF 4
ENDMDL
MODEL 3
REMARK VINA RESULT:      -6.8      3.304      5.185
REMARK SMILES O=C(O)CCc1ccccc1
REMARK SMILES IDX 4 1 2 2 1 3 3 4 5 6 6 7 7 8 11 9 8 10 10 11 9 12
REMARK H PARENT 3 5
REMARK Flexibility Score: inf
ROOT
ATOM      1  C   UNL     1       4.985   1.785   0.721  1.00  0.00     0.127 C 
ENDROOT
BRANCH   1   2
ATOM      2  C   UNL     1       4.449   1.113   1.933  1.00  0.00     0.303 C 
ATOM      3  O   UNL     1       5.124   0.208   2.480  1.00  0.00    -0.252 OA
BRANCH   2   4
ATOM      4  O   UNL     1       3.219   1.450   2.492  1.00  0.00    -0.481 OA
ATOM      5  H   UNL     1       2.825   2.400   2.408  1.00  0.00     0.296 HD
ENDBRANCH   2   4
ENDBRANCH   1   2
BRANCH   1   6
ATOM      6  C   UNL     1       6.486   1.769   0.820  1.00  0.00     0.047 C 
BRANCH   6   7
ATOM      7  C   UNL     1       7.121   1.029  -0.302  1.00  0.00    -0.047 A 
ATOM      8  C   UNL     1       6.405   0.117  -1.054  1.00  0.00     0.004 A 
ATOM      9  C   UNL     1       8.446   1.214  -0.648  1.00  0.00     0.004 A 
ATOM     10  C   UNL     1       7.005  -0.565  -2.095  1.00  0.00     0.000 A 
ATOM     11  C   UNL     1       9.047   0.536  -1.685  1.00  0.00     0.000 A 
ATOM     12  C   UNL     1       8.329  -0.375  -2.434  1.00  0.00     0.000 A 
ENDBRANCH   6   7
ENDBRANCH   1   6
TORSDOF 4
ENDMDL
MODEL 4
REMARK VINA RESULT:      -6.6      3.800      5.036
REMARK SMILES O=C(O)CCc1ccccc1
REMARK SMILES IDX 4 1 2 2 1 3 3 4 5 6 6 7 7 8 11 9 8 10 10 11 9 12
REMARK H PARENT 3 5
REMARK Flexibility Score: inf
ROOT
ATOM      1  C   UNL     1       5.484   2.905  -0.002  1.00  0.00     0.127 C 
ENDROOT
BRANCH   1   2
ATOM      2  C   UNL     1       6.253   3.881   0.812  1.00  0.00     0.303 C 
ATOM      3  O   UNL     1       6.916   4.775   0.232  1.00  0.00    -0.252 OA
BRANCH   2   4
ATOM      4  O   UNL     1       6.269   3.845   2.204  1.00  0.00    -0.481 OA
ATOM      5  H   UNL     1       6.691   4.602   2.764  1.00  0.00     0.296 HD
ENDBRANCH   2   4
ENDBRANCH   1   2
BRANCH   1   6
ATOM      6  C   UNL     1       4.968   1.844   0.930  1.00  0.00     0.047 C 
BRANCH   6   7
ATOM      7  C   UNL     1       5.797   0.611   0.901  1.00  0.00    -0.047 A 
ATOM      8  C   UNL     1       5.856  -0.237   1.990  1.00  0.00     0.004 A 
ATOM      9  C   UNL     1       6.544   0.254  -0.205  1.00  0.00     0.004 A 
ATOM     10  C   UNL     1       6.630  -1.381   1.952  1.00  0.00     0.000 A 
ATOM     11  C   UNL     1       7.317  -0.886  -0.246  1.00  0.00     0.000 A 
ATOM     12  C   UNL     1       7.374  -1.732   0.844  1.00  0.00     0.000 A 
ENDBRANCH   6   7
ENDBRANCH   1   6
TORSDOF 4
ENDMDL
MODEL 5
REMARK VINA RESULT:      -6.5      2.051      2.232
REMARK SMILES O=C(O)CCc1ccccc1
REMARK SMILES IDX 4 1 2 2 1 3 3 4 5 6 6 7 7 8 11 9 8 10 10 11 9 12
REMARK H PARENT 3 5
REMARK Flexibility Score: inf
ROOT
ATOM      1  C   UNL     1       8.539   0.659  -1.675  1.00  0.00     0.127 C 
ENDROOT
BRANCH   1   2
ATOM      2  C   UNL     1       9.695   0.272  -0.825  1.00  0.00     0.303 C 
ATOM      3  O   UNL     1       9.509  -0.504   0.144  1.00  0.00    -0.252 OA
BRANCH   2   4
ATOM      4  O   UNL     1      10.986   0.738  -1.060  1.00  0.00    -0.481 OA
ATOM      5  H   UNL     1      11.378   0.795  -2.013  1.00  0.00     0.296 HD
ENDBRANCH   2   4
ENDBRANCH   1   2
BRANCH   1   6
ATOM      6  C   UNL     1       7.409  -0.281  -1.359  1.00  0.00     0.047 C 
BRANCH   6   7
ATOM      7  C   UNL     1       6.487   0.267  -0.330  1.00  0.00    -0.047 A 
ATOM      8  C   UNL     1       5.843   1.475  -0.517  1.00  0.00     0.004 A 
ATOM      9  C   UNL     1       6.227  -0.397   0.854  1.00  0.00     0.004 A 
ATOM     10  C   UNL     1       4.987   1.976   0.445  1.00  0.00     0.000 A 
ATOM     11  C   UNL     1       5.374   0.099   1.815  1.00  0.00     0.000 A 
ATOM     12  C   UNL     1       4.733   1.307   1.625  1.00  0.00     0.000 A 
ENDBRANCH   6   7
ENDBRANCH   1   6
TORSDOF 4
ENDMDL
