@<TRIPOS>MOLECULE
/home/cewinharhar/GITHUB/reincatalyze/data/processed/docking_pred/2023-Apr-25-2033_maxeplen5_maxtrainstep200_exh16_gamma099_lrac3e-4_lrcr1e-3/8f7c925e970cb887b69f6e81c5db99fda922d0ae_ligand_2.pdbqt
 12 12 0 0 0
SMALL
GASTEIGER

@<TRIPOS>ATOM
      1  C          8.4160   -0.6790   -2.0680 C.3     1  UNL1        0.1270
      2  C          8.4010   -1.9280   -2.8730 C.2     1  UNL1        0.3030
      3  O          7.3010   -2.4160   -3.2260 O.2     1  UNL1       -0.2520
      4  O          9.5690   -2.5840   -3.2550 O.3     1  UNL1       -0.4810
      5  H          9.8770   -2.6160   -4.2390 H       1  UNL1        0.2960
      6  C          7.0260   -0.1060   -2.0970 C.3     1  UNL1        0.0470
      7  C          6.4540    0.0650   -0.7350 C.2     1  UNL1       -0.0470
      8  C          6.5510   -0.9350    0.2120 C.2     1  UNL1        0.0040
      9  C          5.8050    1.2240   -0.3500 C.2     1  UNL1        0.0040
     10  C          6.0160   -0.7650    1.4750 C.2     1  UNL1        0.0000
     11  C          5.2710    1.3950    0.9070 C.2     1  UNL1        0.0000
     12  C          5.3680    0.3930    1.8520 C.2     1  UNL1        0.0000
@<TRIPOS>BOND
     1     5     4    1
     2     4     2    1
     3     3     2    2
     4     2     1    1
     5     6     1    1
     6     6     7    1
     7     7     9    2
     8     7     8    1
     9     9    11    1
    10     8    10    2
    11    11    12    2
    12    10    12    1
