@<TRIPOS>MOLECULE
/home/cewinharhar/GITHUB/reincatalyze/data/processed/docking_pred/2023-Apr-25-2033_maxeplen5_maxtrainstep200_exh16_gamma099_lrac3e-4_lrcr1e-3/8f7c925e970cb887b69f6e81c5db99fda922d0ae_ligand_2.pdbqt
 12 12 0 0 0
SMALL
GASTEIGER

@<TRIPOS>ATOM
      1  C          8.5390    0.6590   -1.6750 C.3     1  UNL1        0.1270
      2  C          9.6950    0.2720   -0.8250 C.2     1  UNL1        0.3030
      3  O          9.5090   -0.5040    0.1440 O.2     1  UNL1       -0.2520
      4  O         10.9860    0.7380   -1.0600 O.3     1  UNL1       -0.4810
      5  H         11.3780    0.7950   -2.0130 H       1  UNL1        0.2960
      6  C          7.4090   -0.2810   -1.3590 C.3     1  UNL1        0.0470
      7  C          6.4870    0.2670   -0.3300 C.2     1  UNL1       -0.0470
      8  C          5.8430    1.4750   -0.5170 C.2     1  UNL1        0.0040
      9  C          6.2270   -0.3970    0.8540 C.2     1  UNL1        0.0040
     10  C          4.9870    1.9760    0.4450 C.2     1  UNL1        0.0000
     11  C          5.3740    0.0990    1.8150 C.2     1  UNL1        0.0000
     12  C          4.7330    1.3070    1.6250 C.2     1  UNL1        0.0000
@<TRIPOS>BOND
     1     5     4    1
     2     1     6    1
     3     1     2    1
     4     6     7    1
     5     4     2    1
     6     2     3    2
     7     8     7    2
     8     8    10    1
     9     7     9    1
    10    10    12    2
    11     9    11    2
    12    12    11    1
