@<TRIPOS>MOLECULE
/home/cewinharhar/GITHUB/reincatalyze/data/processed/docking_pred/2023-Apr-25-2033_maxeplen5_maxtrainstep200_exh16_gamma099_lrac3e-4_lrcr1e-3/8f7c925e970cb887b69f6e81c5db99fda922d0ae_ligand_2.pdbqt
 12 12 0 0 0
SMALL
GASTEIGER

@<TRIPOS>ATOM
      1  C          5.4840    2.9050   -0.0020 C.3     1  UNL1        0.1270
      2  C          6.2530    3.8810    0.8120 C.2     1  UNL1        0.3030
      3  O          6.9160    4.7750    0.2320 O.2     1  UNL1       -0.2520
      4  O          6.2690    3.8450    2.2040 O.3     1  UNL1       -0.4810
      5  H          6.6910    4.6020    2.7640 H       1  UNL1        0.2960
      6  C          4.9680    1.8440    0.9300 C.3     1  UNL1        0.0470
      7  C          5.7970    0.6110    0.9010 C.2     1  UNL1       -0.0470
      8  C          5.8560   -0.2370    1.9900 C.2     1  UNL1        0.0040
      9  C          6.5440    0.2540   -0.2050 C.2     1  UNL1        0.0040
     10  C          6.6300   -1.3810    1.9520 C.2     1  UNL1        0.0000
     11  C          7.3170   -0.8860   -0.2460 C.2     1  UNL1        0.0000
     12  C          7.3740   -1.7320    0.8440 C.2     1  UNL1        0.0000
@<TRIPOS>BOND
     1    11     9    1
     2    11    12    2
     3     9     7    2
     4     1     2    1
     5     1     6    1
     6     3     2    2
     7     2     4    1
     8    12    10    1
     9     7     6    1
    10     7     8    1
    11    10     8    2
    12     4     5    1
