@<TRIPOS>MOLECULE
/home/cewinharhar/GITHUB/reincatalyze/data/processed/docking_pred/2023-Apr-25-2033_maxeplen5_maxtrainstep200_exh16_gamma099_lrac3e-4_lrcr1e-3/91438d65c636cbfd2c8442c68b92b155f88758ee_ligand_2.pdbqt
 12 12 0 0 0
SMALL
GASTEIGER

@<TRIPOS>ATOM
      1  C          8.4590   -0.5960   -2.1740 C.3     1  UNL1        0.1270
      2  C          8.4650   -1.8910   -2.9030 C.2     1  UNL1        0.3030
      3  O          9.5520   -2.4970   -3.0660 O.2     1  UNL1       -0.2520
      4  O          7.3050   -2.4660   -3.4160 O.3     1  UNL1       -0.4810
      5  H          6.5130   -2.7290   -2.8090 H       1  UNL1        0.2960
      6  C          7.0410   -0.0940   -2.1560 C.3     1  UNL1        0.0470
      7  C          6.4990    0.0240   -0.7770 C.2     1  UNL1       -0.0470
      8  C          6.6090   -1.0160    0.1270 C.2     1  UNL1        0.0040
      9  C          5.8650    1.1680   -0.3310 C.2     1  UNL1        0.0040
     10  C          6.1010   -0.8960    1.4060 C.2     1  UNL1        0.0000
     11  C          5.3580    1.2900    0.9440 C.2     1  UNL1        0.0000
     12  C          5.4690    0.2500    1.8440 C.2     1  UNL1        0.0000
@<TRIPOS>BOND
     1     4     2    1
     2     4     5    1
     3     3     2    2
     4     2     1    1
     5     1     6    1
     6     6     7    1
     7     7     9    2
     8     7     8    1
     9     9    11    1
    10     8    10    2
    11    11    12    2
    12    10    12    1
