@<TRIPOS>MOLECULE
/home/cewinharhar/GITHUB/reincatalyze/data/processed/docking_pred/2023-Apr-25-2033_maxeplen5_maxtrainstep200_exh16_gamma099_lrac3e-4_lrcr1e-3/91438d65c636cbfd2c8442c68b92b155f88758ee_ligand_2.pdbqt
 12 12 0 0 0
SMALL
GASTEIGER

@<TRIPOS>ATOM
      1  C          5.0010    1.8140    0.6990 C.3     1  UNL1        0.1270
      2  C          4.4770    1.1340    1.9110 C.2     1  UNL1        0.3030
      3  O          5.1660    0.2390    2.4570 O.2     1  UNL1       -0.2520
      4  O          3.2420    1.4510    2.4720 O.3     1  UNL1       -0.4810
      5  H          3.1020    2.3070    3.0310 H       1  UNL1        0.2960
      6  C          6.5020    1.8080    0.7900 C.3     1  UNL1        0.0470
      7  C          7.1340    1.0400   -0.3150 C.2     1  UNL1       -0.0470
      8  C          6.4120    0.1220   -1.0530 C.2     1  UNL1        0.0040
      9  C          8.4630    1.2050   -0.6580 C.2     1  UNL1        0.0040
     10  C          7.0100   -0.5860   -2.0770 C.2     1  UNL1        0.0000
     11  C          9.0610    0.5000   -1.6780 C.2     1  UNL1        0.0000
     12  C          8.3380   -0.4180   -2.4140 C.2     1  UNL1        0.0000
@<TRIPOS>BOND
     1    12    10    2
     2    12    11    1
     3    10     8    1
     4    11     9    2
     5     8     7    2
     6     9     7    1
     7     7     6    1
     8     1     6    1
     9     1     2    1
    10     2     3    2
    11     2     4    1
    12     4     5    1
