@<TRIPOS>MOLECULE
/home/cewinharhar/GITHUB/reincatalyze/data/processed/docking_pred/2023-Apr-25-2033_maxeplen5_maxtrainstep200_exh16_gamma099_lrac3e-4_lrcr1e-3/91438d65c636cbfd2c8442c68b92b155f88758ee_ligand_2.pdbqt
 12 12 0 0 0
SMALL
GASTEIGER

@<TRIPOS>ATOM
      1  C          5.5410    2.8790   -0.0810 C.3     1  UNL1        0.1270
      2  C          6.2510    3.8720    0.7660 C.2     1  UNL1        0.3030
      3  O          6.9300    4.7730    0.2160 O.2     1  UNL1       -0.2520
      4  O          6.1940    3.8440    2.1570 O.3     1  UNL1       -0.4810
      5  H          5.6280    4.5210    2.6920 H       1  UNL1        0.2960
      6  C          4.9190    1.8640    0.8360 C.3     1  UNL1        0.0470
      7  C          5.7070    0.6050    0.9090 C.2     1  UNL1       -0.0470
      8  C          5.7910   -0.1190    2.0820 C.2     1  UNL1        0.0040
      9  C          6.3880    0.1000   -0.1830 C.2     1  UNL1        0.0040
     10  C          6.5270   -1.2880    2.1380 C.2     1  UNL1        0.0000
     11  C          7.1210   -1.0640   -0.1290 C.2     1  UNL1        0.0000
     12  C          7.2040   -1.7860    1.0440 C.2     1  UNL1        0.0000
@<TRIPOS>BOND
     1     9    11    1
     2     9     7    2
     3    11    12    2
     4     1     2    1
     5     1     6    1
     6     3     2    2
     7     2     4    1
     8     6     7    1
     9     7     8    1
    10    12    10    1
    11     8    10    2
    12     4     5    1
