MODEL 1
REMARK VINA RESULT:      -7.3      0.000      0.000
REMARK SMILES O=C(O)CCc1ccccc1
REMARK SMILES IDX 4 1 2 2 1 3 3 4 5 6 6 7 7 8 11 9 8 10 10 11 9 12
REMARK H PARENT 3 5
REMARK Flexibility Score: inf
ROOT
ATOM      1  C   UNL     1       8.459  -0.596  -2.174  1.00  0.00     0.127 C 
ENDROOT
BRANCH   1   2
ATOM      2  C   UNL     1       8.465  -1.891  -2.903  1.00  0.00     0.303 C 
ATOM      3  O   UNL     1       9.552  -2.497  -3.066  1.00  0.00    -0.252 OA
BRANCH   2   4
ATOM      4  O   UNL     1       7.305  -2.466  -3.416  1.00  0.00    -0.481 OA
ATOM      5  H   UNL     1       6.513  -2.729  -2.809  1.00  0.00     0.296 HD
ENDBRANCH   2   4
ENDBRANCH   1   2
BRANCH   1   6
ATOM      6  C   UNL     1       7.041  -0.094  -2.156  1.00  0.00     0.047 C 
BRANCH   6   7
ATOM      7  C   UNL     1       6.499   0.024  -0.777  1.00  0.00    -0.047 A 
ATOM      8  C   UNL     1       6.609  -1.016   0.127  1.00  0.00     0.004 A 
ATOM      9  C   UNL     1       5.865   1.168  -0.331  1.00  0.00     0.004 A 
ATOM     10  C   UNL     1       6.101  -0.896   1.406  1.00  0.00     0.000 A 
ATOM     11  C   UNL     1       5.358   1.290   0.944  1.00  0.00     0.000 A 
ATOM     12  C   UNL     1       5.469   0.250   1.844  1.00  0.00     0.000 A 
ENDBRANCH   6   7
ENDBRANCH   1   6
TORSDOF 4
ENDMDL
MODEL 2
REMARK VINA RESULT:      -7.3      0.060      1.420
REMARK SMILES O=C(O)CCc1ccccc1
REMARK SMILES IDX 4 1 2 2 1 3 3 4 5 6 6 7 7 8 11 9 8 10 10 11 9 12
REMARK H PARENT 3 5
REMARK Flexibility Score: inf
ROOT
ATOM      1  C   UNL     1       8.438  -0.544  -2.261  1.00  0.00     0.127 C 
ENDROOT
BRANCH   1   2
ATOM      2  C   UNL     1       8.456  -1.874  -2.925  1.00  0.00     0.303 C 
ATOM      3  O   UNL     1       9.548  -2.475  -3.061  1.00  0.00    -0.252 OA
BRANCH   2   4
ATOM      4  O   UNL     1       7.300  -2.485  -3.406  1.00  0.00    -0.481 OA
ATOM      5  H   UNL     1       6.588  -1.960  -3.937  1.00  0.00     0.296 HD
ENDBRANCH   2   4
ENDBRANCH   1   2
BRANCH   1   6
ATOM      6  C   UNL     1       7.008  -0.081  -2.214  1.00  0.00     0.047 C 
BRANCH   6   7
ATOM      7  C   UNL     1       6.497   0.045  -0.824  1.00  0.00    -0.047 A 
ATOM      8  C   UNL     1       5.893   1.207  -0.386  1.00  0.00     0.004 A 
ATOM      9  C   UNL     1       6.599  -0.985   0.093  1.00  0.00     0.004 A 
ATOM     10  C   UNL     1       5.421   1.313   0.908  1.00  0.00     0.000 A 
ATOM     11  C   UNL     1       6.130  -0.882   1.383  1.00  0.00     0.000 A 
ATOM     12  C   UNL     1       5.526   0.281   1.818  1.00  0.00     0.000 A 
ENDBRANCH   6   7
ENDBRANCH   1   6
TORSDOF 4
ENDMDL
MODEL 3
REMARK VINA RESULT:      -6.8      3.383      5.071
REMARK SMILES O=C(O)CCc1ccccc1
REMARK SMILES IDX 4 1 2 2 1 3 3 4 5 6 6 7 7 8 11 9 8 10 10 11 9 12
REMARK H PARENT 3 5
REMARK Flexibility Score: inf
ROOT
ATOM      1  C   UNL     1       5.001   1.814   0.699  1.00  0.00     0.127 C 
ENDROOT
BRANCH   1   2
ATOM      2  C   UNL     1       4.477   1.134   1.911  1.00  0.00     0.303 C 
ATOM      3  O   UNL     1       5.166   0.239   2.457  1.00  0.00    -0.252 OA
BRANCH   2   4
ATOM      4  O   UNL     1       3.242   1.451   2.472  1.00  0.00    -0.481 OA
ATOM      5  H   UNL     1       3.102   2.307   3.031  1.00  0.00     0.296 HD
ENDBRANCH   2   4
ENDBRANCH   1   2
BRANCH   1   6
ATOM      6  C   UNL     1       6.502   1.808   0.790  1.00  0.00     0.047 C 
BRANCH   6   7
ATOM      7  C   UNL     1       7.134   1.040  -0.315  1.00  0.00    -0.047 A 
ATOM      8  C   UNL     1       6.412   0.122  -1.053  1.00  0.00     0.004 A 
ATOM      9  C   UNL     1       8.463   1.205  -0.658  1.00  0.00     0.004 A 
ATOM     10  C   UNL     1       7.010  -0.586  -2.077  1.00  0.00     0.000 A 
ATOM     11  C   UNL     1       9.061   0.500  -1.678  1.00  0.00     0.000 A 
ATOM     12  C   UNL     1       8.338  -0.418  -2.414  1.00  0.00     0.000 A 
ENDBRANCH   6   7
ENDBRANCH   1   6
TORSDOF 4
ENDMDL
MODEL 4
REMARK VINA RESULT:      -6.7      3.823      4.912
REMARK SMILES O=C(O)CCc1ccccc1
REMARK SMILES IDX 4 1 2 2 1 3 3 4 5 6 6 7 7 8 11 9 8 10 10 11 9 12
REMARK H PARENT 3 5
REMARK Flexibility Score: inf
ROOT
ATOM      1  C   UNL     1       5.541   2.879  -0.081  1.00  0.00     0.127 C 
ENDROOT
BRANCH   1   2
ATOM      2  C   UNL     1       6.251   3.872   0.766  1.00  0.00     0.303 C 
ATOM      3  O   UNL     1       6.930   4.773   0.216  1.00  0.00    -0.252 OA
BRANCH   2   4
ATOM      4  O   UNL     1       6.194   3.844   2.157  1.00  0.00    -0.481 OA
ATOM      5  H   UNL     1       5.628   4.521   2.692  1.00  0.00     0.296 HD
ENDBRANCH   2   4
ENDBRANCH   1   2
BRANCH   1   6
ATOM      6  C   UNL     1       4.919   1.864   0.836  1.00  0.00     0.047 C 
BRANCH   6   7
ATOM      7  C   UNL     1       5.707   0.605   0.909  1.00  0.00    -0.047 A 
ATOM      8  C   UNL     1       5.791  -0.119   2.082  1.00  0.00     0.004 A 
ATOM      9  C   UNL     1       6.388   0.100  -0.183  1.00  0.00     0.004 A 
ATOM     10  C   UNL     1       6.527  -1.288   2.138  1.00  0.00     0.000 A 
ATOM     11  C   UNL     1       7.121  -1.064  -0.129  1.00  0.00     0.000 A 
ATOM     12  C   UNL     1       7.204  -1.786   1.044  1.00  0.00     0.000 A 
ENDBRANCH   6   7
ENDBRANCH   1   6
TORSDOF 4
ENDMDL
MODEL 5
REMARK VINA RESULT:      -6.5      1.974      2.314
REMARK SMILES O=C(O)CCc1ccccc1
REMARK SMILES IDX 4 1 2 2 1 3 3 4 5 6 6 7 7 8 11 9 8 10 10 11 9 12
REMARK H PARENT 3 5
REMARK Flexibility Score: inf
ROOT
ATOM      1  C   UNL     1       8.325   0.347  -1.958  1.00  0.00     0.127 C 
ENDROOT
BRANCH   1   2
ATOM      2  C   UNL     1       9.481   0.224  -1.032  1.00  0.00     0.303 C 
ATOM      3  O   UNL     1       9.392  -0.538  -0.039  1.00  0.00    -0.252 OA
BRANCH   2   4
ATOM      4  O   UNL     1      10.669   0.924  -1.223  1.00  0.00    -0.481 OA
ATOM      5  H   UNL     1      11.154   0.935  -2.134  1.00  0.00     0.296 HD
ENDBRANCH   2   4
ENDBRANCH   1   2
BRANCH   1   6
ATOM      6  C   UNL     1       7.217  -0.512  -1.414  1.00  0.00     0.047 C 
BRANCH   6   7
ATOM      7  C   UNL     1       6.376   0.207  -0.422  1.00  0.00    -0.047 A 
ATOM      8  C   UNL     1       6.137  -0.322   0.831  1.00  0.00     0.004 A 
ATOM      9  C   UNL     1       5.796   1.431  -0.699  1.00  0.00     0.004 A 
ATOM     10  C   UNL     1       5.353   0.356   1.746  1.00  0.00     0.000 A 
ATOM     11  C   UNL     1       5.015   2.109   0.211  1.00  0.00     0.000 A 
ATOM     12  C   UNL     1       4.778   1.577   1.462  1.00  0.00     0.000 A 
ENDBRANCH   6   7
ENDBRANCH   1   6
TORSDOF 4
ENDMDL
