@<TRIPOS>MOLECULE
/home/cewinharhar/GITHUB/reincatalyze/data/processed/docking_pred/2023-Apr-25-2033_maxeplen5_maxtrainstep200_exh16_gamma099_lrac3e-4_lrcr1e-3/91438d65c636cbfd2c8442c68b92b155f88758ee_ligand_2.pdbqt
 12 12 0 0 0
SMALL
GASTEIGER

@<TRIPOS>ATOM
      1  C          8.4380   -0.5440   -2.2610 C.3     1  UNL1        0.1270
      2  C          8.4560   -1.8740   -2.9250 C.2     1  UNL1        0.3030
      3  O          9.5480   -2.4750   -3.0610 O.2     1  UNL1       -0.2520
      4  O          7.3000   -2.4850   -3.4060 O.3     1  UNL1       -0.4810
      5  H          6.5880   -1.9600   -3.9370 H       1  UNL1        0.2960
      6  C          7.0080   -0.0810   -2.2140 C.3     1  UNL1        0.0470
      7  C          6.4970    0.0450   -0.8240 C.2     1  UNL1       -0.0470
      8  C          5.8930    1.2070   -0.3860 C.2     1  UNL1        0.0040
      9  C          6.5990   -0.9850    0.0930 C.2     1  UNL1        0.0040
     10  C          5.4210    1.3130    0.9080 C.2     1  UNL1        0.0000
     11  C          6.1300   -0.8820    1.3830 C.2     1  UNL1        0.0000
     12  C          5.5260    0.2810    1.8180 C.2     1  UNL1        0.0000
@<TRIPOS>BOND
     1     5     4    1
     2     4     2    1
     3     3     2    2
     4     2     1    1
     5     1     6    1
     6     6     7    1
     7     7     8    2
     8     7     9    1
     9     8    10    1
    10     9    11    2
    11    10    12    2
    12    11    12    1
