@<TRIPOS>MOLECULE
/home/cewinharhar/GITHUB/reincatalyze/data/processed/docking_pred/2023-Apr-25-2033_maxeplen5_maxtrainstep200_exh16_gamma099_lrac3e-4_lrcr1e-3/91438d65c636cbfd2c8442c68b92b155f88758ee_ligand_2.pdbqt
 12 12 0 0 0
SMALL
GASTEIGER

@<TRIPOS>ATOM
      1  C          8.3250    0.3470   -1.9580 C.3     1  UNL1        0.1270
      2  C          9.4810    0.2240   -1.0320 C.2     1  UNL1        0.3030
      3  O          9.3920   -0.5380   -0.0390 O.2     1  UNL1       -0.2520
      4  O         10.6690    0.9240   -1.2230 O.3     1  UNL1       -0.4810
      5  H         11.1540    0.9350   -2.1340 H       1  UNL1        0.2960
      6  C          7.2170   -0.5120   -1.4140 C.3     1  UNL1        0.0470
      7  C          6.3760    0.2070   -0.4220 C.2     1  UNL1       -0.0470
      8  C          6.1370   -0.3220    0.8310 C.2     1  UNL1        0.0040
      9  C          5.7960    1.4310   -0.6990 C.2     1  UNL1        0.0040
     10  C          5.3530    0.3560    1.7460 C.2     1  UNL1        0.0000
     11  C          5.0150    2.1090    0.2110 C.2     1  UNL1        0.0000
     12  C          4.7780    1.5770    1.4620 C.2     1  UNL1        0.0000
@<TRIPOS>BOND
     1     5     4    1
     2     1     6    1
     3     1     2    1
     4     6     7    1
     5     4     2    1
     6     2     3    2
     7     9     7    2
     8     9    11    1
     9     7     8    1
    10    11    12    2
    11     8    10    2
    12    12    10    1
