@<TRIPOS>MOLECULE
/home/cewinharhar/GITHUB/reincatalyze/data/processed/docking_pred/2023-Apr-25-2033_maxeplen5_maxtrainstep200_exh16_gamma099_lrac3e-4_lrcr1e-3/9545d038953ad0bd3b50a81295f717fe73892d7b_ligand_2.pdbqt
 12 12 0 0 0
SMALL
GASTEIGER

@<TRIPOS>ATOM
      1  C          8.4430   -0.6160   -2.1380 C.3     1  UNL1        0.1270
      2  C          8.4200   -1.8980   -2.8890 C.2     1  UNL1        0.3030
      3  O          7.3160   -2.3990   -3.2110 O.2     1  UNL1       -0.2520
      4  O          9.5830   -2.5720   -3.2530 O.3     1  UNL1       -0.4810
      5  H          9.6540   -3.6000   -3.2050 H       1  UNL1        0.2960
      6  C          7.0450   -0.0620   -2.1450 C.3     1  UNL1        0.0470
      7  C          6.4830    0.0780   -0.7760 C.2     1  UNL1       -0.0470
      8  C          6.5950   -0.9410    0.1510 C.2     1  UNL1        0.0040
      9  C          5.8270    1.2230   -0.3640 C.2     1  UNL1        0.0040
     10  C          6.0690   -0.8000    1.4210 C.2     1  UNL1        0.0000
     11  C          5.3020    1.3650    0.9010 C.2     1  UNL1        0.0000
     12  C          5.4150    0.3460    1.8250 C.2     1  UNL1        0.0000
@<TRIPOS>BOND
     1     4     5    1
     2     4     2    1
     3     3     2    2
     4     2     1    1
     5     6     1    1
     6     6     7    1
     7     7     9    2
     8     7     8    1
     9     9    11    1
    10     8    10    2
    11    11    12    2
    12    10    12    1
