@<TRIPOS>MOLECULE
/home/cewinharhar/GITHUB/reincatalyze/data/processed/docking_pred/2023-Apr-25-2033_maxeplen5_maxtrainstep200_exh16_gamma099_lrac3e-4_lrcr1e-3/9545d038953ad0bd3b50a81295f717fe73892d7b_ligand_2.pdbqt
 12 12 0 0 0
SMALL
GASTEIGER

@<TRIPOS>ATOM
      1  C          4.9820    1.8060    0.6860 C.3     1  UNL1        0.1270
      2  C          4.4700    1.1360    1.9100 C.2     1  UNL1        0.3030
      3  O          5.1670    0.2500    2.4610 O.2     1  UNL1       -0.2520
      4  O          3.2380    1.4540    2.4750 O.3     1  UNL1       -0.4810
      5  H          3.1360    1.6520    3.4830 H       1  UNL1        0.2960
      6  C          6.4830    1.8210    0.7740 C.3     1  UNL1        0.0470
      7  C          7.1240    1.0580   -0.3290 C.2     1  UNL1       -0.0470
      8  C          8.4630    1.2200   -0.6260 C.2     1  UNL1        0.0040
      9  C          6.4210    0.1560   -1.1040 C.2     1  UNL1        0.0040
     10  C          9.0490    0.5050   -1.6540 C.2     1  UNL1        0.0000
     11  C          7.0020   -0.5580   -2.1290 C.2     1  UNL1        0.0000
     12  C          8.3400   -0.3940   -2.4240 C.2     1  UNL1        0.0000
@<TRIPOS>BOND
     1    12    11    2
     2    12    10    1
     3    11     9    1
     4    10     8    2
     5     9     7    2
     6     8     7    1
     7     7     6    1
     8     1     6    1
     9     1     2    1
    10     2     3    2
    11     2     4    1
    12     4     5    1
