MODEL 1
REMARK VINA RESULT:      -7.3      0.000      0.000
REMARK SMILES O=C(O)CCc1ccccc1
REMARK SMILES IDX 4 1 2 2 1 3 3 4 5 6 6 7 7 8 11 9 8 10 10 11 9 12
REMARK H PARENT 3 5
REMARK Flexibility Score: inf
ROOT
ATOM      1  C   UNL     1       8.475  -0.651  -2.078  1.00  0.00     0.127 C 
ENDROOT
BRANCH   1   2
ATOM      2  C   UNL     1       8.431  -1.906  -2.873  1.00  0.00     0.303 C 
ATOM      3  O   UNL     1       7.318  -2.387  -3.197  1.00  0.00    -0.252 OA
BRANCH   2   4
ATOM      4  O   UNL     1       9.583  -2.575  -3.278  1.00  0.00    -0.481 OA
ATOM      5  H   UNL     1      10.393  -2.074  -3.674  1.00  0.00     0.296 HD
ENDBRANCH   2   4
ENDBRANCH   1   2
BRANCH   1   6
ATOM      6  C   UNL     1       7.101  -0.043  -2.116  1.00  0.00     0.047 C 
BRANCH   6   7
ATOM      7  C   UNL     1       6.506   0.100  -0.761  1.00  0.00    -0.047 A 
ATOM      8  C   UNL     1       5.823   1.244  -0.396  1.00  0.00     0.004 A 
ATOM      9  C   UNL     1       6.602  -0.896   0.193  1.00  0.00     0.004 A 
ATOM     10  C   UNL     1       5.273   1.366   0.866  1.00  0.00     0.000 A 
ATOM     11  C   UNL     1       6.055  -0.777   1.451  1.00  0.00     0.000 A 
ATOM     12  C   UNL     1       5.374   0.368   1.813  1.00  0.00     0.000 A 
ENDBRANCH   6   7
ENDBRANCH   1   6
TORSDOF 4
ENDMDL
MODEL 2
REMARK VINA RESULT:      -7.2      0.047      1.420
REMARK SMILES O=C(O)CCc1ccccc1
REMARK SMILES IDX 4 1 2 2 1 3 3 4 5 6 6 7 7 8 11 9 8 10 10 11 9 12
REMARK H PARENT 3 5
REMARK Flexibility Score: inf
ROOT
ATOM      1  C   UNL     1       8.443  -0.616  -2.138  1.00  0.00     0.127 C 
ENDROOT
BRANCH   1   2
ATOM      2  C   UNL     1       8.420  -1.898  -2.889  1.00  0.00     0.303 C 
ATOM      3  O   UNL     1       7.316  -2.399  -3.211  1.00  0.00    -0.252 OA
BRANCH   2   4
ATOM      4  O   UNL     1       9.583  -2.572  -3.253  1.00  0.00    -0.481 OA
ATOM      5  H   UNL     1       9.654  -3.600  -3.205  1.00  0.00     0.296 HD
ENDBRANCH   2   4
ENDBRANCH   1   2
BRANCH   1   6
ATOM      6  C   UNL     1       7.045  -0.062  -2.145  1.00  0.00     0.047 C 
BRANCH   6   7
ATOM      7  C   UNL     1       6.483   0.078  -0.776  1.00  0.00    -0.047 A 
ATOM      8  C   UNL     1       6.595  -0.941   0.151  1.00  0.00     0.004 A 
ATOM      9  C   UNL     1       5.827   1.223  -0.364  1.00  0.00     0.004 A 
ATOM     10  C   UNL     1       6.069  -0.800   1.421  1.00  0.00     0.000 A 
ATOM     11  C   UNL     1       5.302   1.365   0.901  1.00  0.00     0.000 A 
ATOM     12  C   UNL     1       5.415   0.346   1.825  1.00  0.00     0.000 A 
ENDBRANCH   6   7
ENDBRANCH   1   6
TORSDOF 4
ENDMDL
MODEL 3
REMARK VINA RESULT:      -6.8      3.300      5.160
REMARK SMILES O=C(O)CCc1ccccc1
REMARK SMILES IDX 4 1 2 2 1 3 3 4 5 6 6 7 7 8 11 9 8 10 10 11 9 12
REMARK H PARENT 3 5
REMARK Flexibility Score: inf
ROOT
ATOM      1  C   UNL     1       4.982   1.806   0.686  1.00  0.00     0.127 C 
ENDROOT
BRANCH   1   2
ATOM      2  C   UNL     1       4.470   1.136   1.910  1.00  0.00     0.303 C 
ATOM      3  O   UNL     1       5.167   0.250   2.461  1.00  0.00    -0.252 OA
BRANCH   2   4
ATOM      4  O   UNL     1       3.238   1.454   2.475  1.00  0.00    -0.481 OA
ATOM      5  H   UNL     1       3.136   1.652   3.483  1.00  0.00     0.296 HD
ENDBRANCH   2   4
ENDBRANCH   1   2
BRANCH   1   6
ATOM      6  C   UNL     1       6.483   1.821   0.774  1.00  0.00     0.047 C 
BRANCH   6   7
ATOM      7  C   UNL     1       7.124   1.058  -0.329  1.00  0.00    -0.047 A 
ATOM      8  C   UNL     1       8.463   1.220  -0.626  1.00  0.00     0.004 A 
ATOM      9  C   UNL     1       6.421   0.156  -1.104  1.00  0.00     0.004 A 
ATOM     10  C   UNL     1       9.049   0.505  -1.654  1.00  0.00     0.000 A 
ATOM     11  C   UNL     1       7.002  -0.558  -2.129  1.00  0.00     0.000 A 
ATOM     12  C   UNL     1       8.340  -0.394  -2.424  1.00  0.00     0.000 A 
ENDBRANCH   6   7
ENDBRANCH   1   6
TORSDOF 4
ENDMDL
MODEL 4
REMARK VINA RESULT:      -6.6      1.943      2.605
REMARK SMILES O=C(O)CCc1ccccc1
REMARK SMILES IDX 4 1 2 2 1 3 3 4 5 6 6 7 7 8 11 9 8 10 10 11 9 12
REMARK H PARENT 3 5
REMARK Flexibility Score: inf
ROOT
ATOM      1  C   UNL     1       8.302   0.298  -2.180  1.00  0.00     0.127 C 
ENDROOT
BRANCH   1   2
ATOM      2  C   UNL     1       9.436   0.401  -1.225  1.00  0.00     0.303 C 
ATOM      3  O   UNL     1       9.483  -0.382  -0.245  1.00  0.00    -0.252 OA
BRANCH   2   4
ATOM      4  O   UNL     1      10.456   1.336  -1.373  1.00  0.00    -0.481 OA
ATOM      5  H   UNL     1      10.319   2.332  -1.143  1.00  0.00     0.296 HD
ENDBRANCH   2   4
ENDBRANCH   1   2
BRANCH   1   6
ATOM      6  C   UNL     1       7.232  -0.531  -1.527  1.00  0.00     0.047 C 
BRANCH   6   7
ATOM      7  C   UNL     1       6.399   0.259  -0.582  1.00  0.00    -0.047 A 
ATOM      8  C   UNL     1       6.148  -0.192   0.699  1.00  0.00     0.004 A 
ATOM      9  C   UNL     1       5.841   1.473  -0.933  1.00  0.00     0.004 A 
ATOM     10  C   UNL     1       5.372   0.550   1.569  1.00  0.00     0.000 A 
ATOM     11  C   UNL     1       5.068   2.215  -0.068  1.00  0.00     0.000 A 
ATOM     12  C   UNL     1       4.817   1.762   1.211  1.00  0.00     0.000 A 
ENDBRANCH   6   7
ENDBRANCH   1   6
TORSDOF 4
ENDMDL
MODEL 5
REMARK VINA RESULT:      -6.5      1.891      2.908
REMARK SMILES O=C(O)CCc1ccccc1
REMARK SMILES IDX 4 1 2 2 1 3 3 4 5 6 6 7 7 8 11 9 8 10 10 11 9 12
REMARK H PARENT 3 5
REMARK Flexibility Score: inf
ROOT
ATOM      1  C   UNL     1       8.220  -1.577   1.153  1.00  0.00     0.127 C 
ENDROOT
BRANCH   1   2
ATOM      2  C   UNL     1       8.481  -2.782   0.325  1.00  0.00     0.303 C 
ATOM      3  O   UNL     1       9.116  -3.743   0.824  1.00  0.00    -0.252 OA
BRANCH   2   4
ATOM      4  O   UNL     1       8.045  -2.892  -0.993  1.00  0.00    -0.481 OA
ATOM      5  H   UNL     1       7.178  -2.439  -1.319  1.00  0.00     0.296 HD
ENDBRANCH   2   4
ENDBRANCH   1   2
BRANCH   1   6
ATOM      6  C   UNL     1       6.732  -1.465   1.335  1.00  0.00     0.047 C 
BRANCH   6   7
ATOM      7  C   UNL     1       6.186  -0.196   0.786  1.00  0.00    -0.047 A 
ATOM      8  C   UNL     1       5.421   0.650   1.565  1.00  0.00     0.004 A 
ATOM      9  C   UNL     1       6.416   0.200  -0.518  1.00  0.00     0.004 A 
ATOM     10  C   UNL     1       4.919   1.828   1.045  1.00  0.00     0.000 A 
ATOM     11  C   UNL     1       5.917   1.373  -1.039  1.00  0.00     0.000 A 
ATOM     12  C   UNL     1       5.152   2.216  -0.259  1.00  0.00     0.000 A 
ENDBRANCH   6   7
ENDBRANCH   1   6
TORSDOF 4
ENDMDL
