@<TRIPOS>MOLECULE
/home/cewinharhar/GITHUB/reincatalyze/data/processed/docking_pred/2023-Apr-25-2033_maxeplen5_maxtrainstep200_exh16_gamma099_lrac3e-4_lrcr1e-3/9545d038953ad0bd3b50a81295f717fe73892d7b_ligand_2.pdbqt
 12 12 0 0 0
SMALL
GASTEIGER

@<TRIPOS>ATOM
      1  C          8.3020    0.2980   -2.1800 C.3     1  UNL1        0.1270
      2  C          9.4360    0.4010   -1.2250 C.2     1  UNL1        0.3030
      3  O          9.4830   -0.3820   -0.2450 O.2     1  UNL1       -0.2520
      4  O         10.4560    1.3360   -1.3730 O.3     1  UNL1       -0.4810
      5  H         10.3190    2.3320   -1.1430 H       1  UNL1        0.2960
      6  C          7.2320   -0.5310   -1.5270 C.3     1  UNL1        0.0470
      7  C          6.3990    0.2590   -0.5820 C.2     1  UNL1       -0.0470
      8  C          6.1480   -0.1920    0.6990 C.2     1  UNL1        0.0040
      9  C          5.8410    1.4730   -0.9330 C.2     1  UNL1        0.0040
     10  C          5.3720    0.5500    1.5690 C.2     1  UNL1        0.0000
     11  C          5.0680    2.2150   -0.0680 C.2     1  UNL1        0.0000
     12  C          4.8170    1.7620    1.2110 C.2     1  UNL1        0.0000
@<TRIPOS>BOND
     1     1     6    1
     2     1     2    1
     3     6     7    1
     4     4     2    1
     5     4     5    1
     6     2     3    2
     7     9     7    2
     8     9    11    1
     9     7     8    1
    10    11    12    2
    11     8    10    2
    12    12    10    1
