@<TRIPOS>MOLECULE
/home/cewinharhar/GITHUB/reincatalyze/data/processed/docking_pred/2023-Apr-25-2033_maxeplen5_maxtrainstep200_exh16_gamma099_lrac3e-4_lrcr1e-3/9545d038953ad0bd3b50a81295f717fe73892d7b_ligand_2.pdbqt
 12 12 0 0 0
SMALL
GASTEIGER

@<TRIPOS>ATOM
      1  C          8.2200   -1.5770    1.1530 C.3     1  UNL1        0.1270
      2  C          8.4810   -2.7820    0.3250 C.2     1  UNL1        0.3030
      3  O          9.1160   -3.7430    0.8240 O.2     1  UNL1       -0.2520
      4  O          8.0450   -2.8920   -0.9930 O.3     1  UNL1       -0.4810
      5  H          7.1780   -2.4390   -1.3190 H       1  UNL1        0.2960
      6  C          6.7320   -1.4650    1.3350 C.3     1  UNL1        0.0470
      7  C          6.1860   -0.1960    0.7860 C.2     1  UNL1       -0.0470
      8  C          5.4210    0.6500    1.5650 C.2     1  UNL1        0.0040
      9  C          6.4160    0.2000   -0.5180 C.2     1  UNL1        0.0040
     10  C          4.9190    1.8280    1.0450 C.2     1  UNL1        0.0000
     11  C          5.9170    1.3730   -1.0390 C.2     1  UNL1        0.0000
     12  C          5.1520    2.2160   -0.2590 C.2     1  UNL1        0.0000
@<TRIPOS>BOND
     1     5     4    1
     2    11     9    1
     3    11    12    2
     4     4     2    1
     5     9     7    2
     6    12    10    1
     7     2     3    2
     8     2     1    1
     9     7     6    1
    10     7     8    1
    11    10     8    2
    12     1     6    1
