@<TRIPOS>MOLECULE
/home/cewinharhar/GITHUB/reincatalyze/data/processed/docking_pred/2023-Apr-25-2033_maxeplen5_maxtrainstep200_exh16_gamma099_lrac3e-4_lrcr1e-3/9545d038953ad0bd3b50a81295f717fe73892d7b_ligand_2.pdbqt
 12 12 0 0 0
SMALL
GASTEIGER

@<TRIPOS>ATOM
      1  C          8.4750   -0.6510   -2.0780 C.3     1  UNL1        0.1270
      2  C          8.4310   -1.9060   -2.8730 C.2     1  UNL1        0.3030
      3  O          7.3180   -2.3870   -3.1970 O.2     1  UNL1       -0.2520
      4  O          9.5830   -2.5750   -3.2780 O.3     1  UNL1       -0.4810
      5  H         10.3930   -2.0740   -3.6740 H       1  UNL1        0.2960
      6  C          7.1010   -0.0430   -2.1160 C.3     1  UNL1        0.0470
      7  C          6.5060    0.1000   -0.7610 C.2     1  UNL1       -0.0470
      8  C          5.8230    1.2440   -0.3960 C.2     1  UNL1        0.0040
      9  C          6.6020   -0.8960    0.1930 C.2     1  UNL1        0.0040
     10  C          5.2730    1.3660    0.8660 C.2     1  UNL1        0.0000
     11  C          6.0550   -0.7770    1.4510 C.2     1  UNL1        0.0000
     12  C          5.3740    0.3680    1.8130 C.2     1  UNL1        0.0000
@<TRIPOS>BOND
     1     5     4    1
     2     4     2    1
     3     3     2    2
     4     2     1    1
     5     6     1    1
     6     6     7    1
     7     7     8    2
     8     7     9    1
     9     8    10    1
    10     9    11    2
    11    10    12    2
    12    11    12    1
