@<TRIPOS>MOLECULE
/home/cewinharhar/GITHUB/reincatalyze/data/processed/docking_pred/2023-Apr-25-2033_maxeplen5_maxtrainstep200_exh16_gamma099_lrac3e-4_lrcr1e-3/955e59fc22a1e87e2ab10a68f3a5c98643a236a4_ligand_2.pdbqt
 12 12 0 0 0
SMALL
GASTEIGER

@<TRIPOS>ATOM
      1  C          8.2790    0.0340   -2.1870 C.3     1  UNL1        0.1270
      2  C          9.3890    0.3010   -1.2360 C.2     1  UNL1        0.3030
      3  O          9.4830   -0.3910   -0.1940 O.2     1  UNL1       -0.2520
      4  O         10.3390    1.2960   -1.4560 O.3     1  UNL1       -0.4810
      5  H         11.0010    1.2500   -2.2460 H       1  UNL1        0.2960
      6  C          7.2170   -0.7250   -1.4410 C.3     1  UNL1        0.0470
      7  C          6.4060    0.1540   -0.5580 C.2     1  UNL1       -0.0470
      8  C          5.8980    1.3550   -1.0150 C.2     1  UNL1        0.0040
      9  C          6.1190   -0.1830    0.7520 C.2     1  UNL1        0.0040
     10  C          5.1450    2.1640   -0.1850 C.2     1  UNL1        0.0000
     11  C          5.3690    0.6220    1.5800 C.2     1  UNL1        0.0000
     12  C          4.8630    1.8210    1.1210 C.2     1  UNL1        0.0000
@<TRIPOS>BOND
     1     5     4    1
     2     1     6    1
     3     1     2    1
     4     4     2    1
     5     6     7    1
     6     2     3    2
     7     8     7    2
     8     8    10    1
     9     7     9    1
    10    10    12    2
    11     9    11    2
    12    12    11    1
