MODEL 1
REMARK VINA RESULT:      -7.3      0.000      0.000
REMARK SMILES O=C(O)CCc1ccccc1
REMARK SMILES IDX 4 1 2 2 1 3 3 4 5 6 6 7 7 8 11 9 8 10 10 11 9 12
REMARK H PARENT 3 5
REMARK Flexibility Score: inf
ROOT
ATOM      1  C   UNL     1       8.454  -0.592  -2.200  1.00  0.00     0.127 C 
ENDROOT
BRANCH   1   2
ATOM      2  C   UNL     1       8.467  -1.888  -2.925  1.00  0.00     0.303 C 
ATOM      3  O   UNL     1       9.558  -2.485  -3.094  1.00  0.00    -0.252 OA
BRANCH   2   4
ATOM      4  O   UNL     1       7.309  -2.474  -3.429  1.00  0.00    -0.481 OA
ATOM      5  H   UNL     1       7.039  -2.382  -4.421  1.00  0.00     0.296 HD
ENDBRANCH   2   4
ENDBRANCH   1   2
BRANCH   1   6
ATOM      6  C   UNL     1       7.036  -0.092  -2.190  1.00  0.00     0.047 C 
BRANCH   6   7
ATOM      7  C   UNL     1       6.493   0.049  -0.813  1.00  0.00    -0.047 A 
ATOM      8  C   UNL     1       6.608  -0.973   0.109  1.00  0.00     0.004 A 
ATOM      9  C   UNL     1       5.855   1.199  -0.389  1.00  0.00     0.004 A 
ATOM     10  C   UNL     1       6.100  -0.831   1.386  1.00  0.00     0.000 A 
ATOM     11  C   UNL     1       5.348   1.343   0.883  1.00  0.00     0.000 A 
ATOM     12  C   UNL     1       5.463   0.320   1.803  1.00  0.00     0.000 A 
ENDBRANCH   6   7
ENDBRANCH   1   6
TORSDOF 4
ENDMDL
MODEL 2
REMARK VINA RESULT:      -7.2      0.099      1.717
REMARK SMILES O=C(O)CCc1ccccc1
REMARK SMILES IDX 4 1 2 2 1 3 3 4 5 6 6 7 7 8 11 9 8 10 10 11 9 12
REMARK H PARENT 3 5
REMARK Flexibility Score: inf
ROOT
ATOM      1  C   UNL     1       8.436  -0.599  -2.160  1.00  0.00     0.127 C 
ENDROOT
BRANCH   1   2
ATOM      2  C   UNL     1       8.422  -1.892  -2.892  1.00  0.00     0.303 C 
ATOM      3  O   UNL     1       7.320  -2.407  -3.203  1.00  0.00    -0.252 OA
BRANCH   2   4
ATOM      4  O   UNL     1       9.589  -2.561  -3.252  1.00  0.00    -0.481 OA
ATOM      5  H   UNL     1       9.573  -3.398  -3.853  1.00  0.00     0.296 HD
ENDBRANCH   2   4
ENDBRANCH   1   2
BRANCH   1   6
ATOM      6  C   UNL     1       7.029  -0.070  -2.149  1.00  0.00     0.047 C 
BRANCH   6   7
ATOM      7  C   UNL     1       6.482   0.058  -0.772  1.00  0.00    -0.047 A 
ATOM      8  C   UNL     1       5.837   1.209  -0.363  1.00  0.00     0.004 A 
ATOM      9  C   UNL     1       6.589  -0.958   0.159  1.00  0.00     0.004 A 
ATOM     10  C   UNL     1       5.332   1.317   0.919  1.00  0.00     0.000 A 
ATOM     11  C   UNL     1       6.086  -0.853   1.437  1.00  0.00     0.000 A 
ATOM     12  C   UNL     1       5.442   0.299   1.843  1.00  0.00     0.000 A 
ENDBRANCH   6   7
ENDBRANCH   1   6
TORSDOF 4
ENDMDL
MODEL 3
REMARK VINA RESULT:      -7.0      0.649      1.863
REMARK SMILES O=C(O)CCc1ccccc1
REMARK SMILES IDX 4 1 2 2 1 3 3 4 5 6 6 7 7 8 11 9 8 10 10 11 9 12
REMARK H PARENT 3 5
REMARK Flexibility Score: inf
ROOT
ATOM      1  C   UNL     1       8.265  -0.703  -2.088  1.00  0.00     0.127 C 
ENDROOT
BRANCH   1   2
ATOM      2  C   UNL     1       8.335  -1.930  -2.924  1.00  0.00     0.303 C 
ATOM      3  O   UNL     1       7.271  -2.447  -3.344  1.00  0.00    -0.252 OA
BRANCH   2   4
ATOM      4  O   UNL     1       9.542  -2.534  -3.265  1.00  0.00    -0.481 OA
ATOM      5  H   UNL     1       9.784  -2.754  -4.244  1.00  0.00     0.296 HD
ENDBRANCH   2   4
ENDBRANCH   1   2
BRANCH   1   6
ATOM      6  C   UNL     1       7.845  -1.121  -0.706  1.00  0.00     0.047 C 
BRANCH   6   7
ATOM      7  C   UNL     1       6.844  -0.195  -0.114  1.00  0.00    -0.047 A 
ATOM      8  C   UNL     1       6.359   0.885  -0.826  1.00  0.00     0.004 A 
ATOM      9  C   UNL     1       6.350  -0.368   1.166  1.00  0.00     0.004 A 
ATOM     10  C   UNL     1       5.428   1.739  -0.265  1.00  0.00     0.000 A 
ATOM     11  C   UNL     1       5.422   0.482   1.726  1.00  0.00     0.000 A 
ATOM     12  C   UNL     1       4.940   1.561   1.013  1.00  0.00     0.000 A 
ENDBRANCH   6   7
ENDBRANCH   1   6
TORSDOF 4
ENDMDL
MODEL 4
REMARK VINA RESULT:      -6.8      3.390      5.082
REMARK SMILES O=C(O)CCc1ccccc1
REMARK SMILES IDX 4 1 2 2 1 3 3 4 5 6 6 7 7 8 11 9 8 10 10 11 9 12
REMARK H PARENT 3 5
REMARK Flexibility Score: inf
ROOT
ATOM      1  C   UNL     1       4.989   1.800   0.713  1.00  0.00     0.127 C 
ENDROOT
BRANCH   1   2
ATOM      2  C   UNL     1       4.463   1.121   1.926  1.00  0.00     0.303 C 
ATOM      3  O   UNL     1       5.150   0.223   2.471  1.00  0.00    -0.252 OA
BRANCH   2   4
ATOM      4  O   UNL     1       3.231   1.443   2.487  1.00  0.00    -0.481 OA
ATOM      5  H   UNL     1       2.982   1.167   3.450  1.00  0.00     0.296 HD
ENDBRANCH   2   4
ENDBRANCH   1   2
BRANCH   1   6
ATOM      6  C   UNL     1       6.490   1.796   0.807  1.00  0.00     0.047 C 
BRANCH   6   7
ATOM      7  C   UNL     1       7.126   1.044  -0.306  1.00  0.00    -0.047 A 
ATOM      8  C   UNL     1       6.406   0.141  -1.063  1.00  0.00     0.004 A 
ATOM      9  C   UNL     1       8.458   1.209  -0.638  1.00  0.00     0.004 A 
ATOM     10  C   UNL     1       7.007  -0.553  -2.096  1.00  0.00     0.000 A 
ATOM     11  C   UNL     1       9.060   0.519  -1.667  1.00  0.00     0.000 A 
ATOM     12  C   UNL     1       8.337  -0.383  -2.422  1.00  0.00     0.000 A 
ENDBRANCH   6   7
ENDBRANCH   1   6
TORSDOF 4
ENDMDL
MODEL 5
REMARK VINA RESULT:      -6.5      1.938      2.646
REMARK SMILES O=C(O)CCc1ccccc1
REMARK SMILES IDX 4 1 2 2 1 3 3 4 5 6 6 7 7 8 11 9 8 10 10 11 9 12
REMARK H PARENT 3 5
REMARK Flexibility Score: inf
ROOT
ATOM      1  C   UNL     1       8.279   0.034  -2.187  1.00  0.00     0.127 C 
ENDROOT
BRANCH   1   2
ATOM      2  C   UNL     1       9.389   0.301  -1.236  1.00  0.00     0.303 C 
ATOM      3  O   UNL     1       9.483  -0.391  -0.194  1.00  0.00    -0.252 OA
BRANCH   2   4
ATOM      4  O   UNL     1      10.339   1.296  -1.456  1.00  0.00    -0.481 OA
ATOM      5  H   UNL     1      11.001   1.250  -2.246  1.00  0.00     0.296 HD
ENDBRANCH   2   4
ENDBRANCH   1   2
BRANCH   1   6
ATOM      6  C   UNL     1       7.217  -0.725  -1.441  1.00  0.00     0.047 C 
BRANCH   6   7
ATOM      7  C   UNL     1       6.406   0.154  -0.558  1.00  0.00    -0.047 A 
ATOM      8  C   UNL     1       5.898   1.355  -1.015  1.00  0.00     0.004 A 
ATOM      9  C   UNL     1       6.119  -0.183   0.752  1.00  0.00     0.004 A 
ATOM     10  C   UNL     1       5.145   2.164  -0.185  1.00  0.00     0.000 A 
ATOM     11  C   UNL     1       5.369   0.622   1.580  1.00  0.00     0.000 A 
ATOM     12  C   UNL     1       4.863   1.821   1.121  1.00  0.00     0.000 A 
ENDBRANCH   6   7
ENDBRANCH   1   6
TORSDOF 4
ENDMDL
