@<TRIPOS>MOLECULE
/home/cewinharhar/GITHUB/reincatalyze/data/processed/docking_pred/2023-Apr-25-2033_maxeplen5_maxtrainstep200_exh16_gamma099_lrac3e-4_lrcr1e-3/955e59fc22a1e87e2ab10a68f3a5c98643a236a4_ligand_2.pdbqt
 12 12 0 0 0
SMALL
GASTEIGER

@<TRIPOS>ATOM
      1  C          4.9890    1.8000    0.7130 C.3     1  UNL1        0.1270
      2  C          4.4630    1.1210    1.9260 C.2     1  UNL1        0.3030
      3  O          5.1500    0.2230    2.4710 O.2     1  UNL1       -0.2520
      4  O          3.2310    1.4430    2.4870 O.3     1  UNL1       -0.4810
      5  H          2.9820    1.1670    3.4500 H       1  UNL1        0.2960
      6  C          6.4900    1.7960    0.8070 C.3     1  UNL1        0.0470
      7  C          7.1260    1.0440   -0.3060 C.2     1  UNL1       -0.0470
      8  C          6.4060    0.1410   -1.0630 C.2     1  UNL1        0.0040
      9  C          8.4580    1.2090   -0.6380 C.2     1  UNL1        0.0040
     10  C          7.0070   -0.5530   -2.0960 C.2     1  UNL1        0.0000
     11  C          9.0600    0.5190   -1.6670 C.2     1  UNL1        0.0000
     12  C          8.3370   -0.3830   -2.4220 C.2     1  UNL1        0.0000
@<TRIPOS>BOND
     1    12    10    2
     2    12    11    1
     3    10     8    1
     4    11     9    2
     5     8     7    2
     6     9     7    1
     7     7     6    1
     8     1     6    1
     9     1     2    1
    10     2     3    2
    11     2     4    1
    12     4     5    1
