@<TRIPOS>MOLECULE
/home/cewinharhar/GITHUB/reincatalyze/data/processed/docking_pred/2023-Apr-25-2033_maxeplen5_maxtrainstep200_exh16_gamma099_lrac3e-4_lrcr1e-3/955e59fc22a1e87e2ab10a68f3a5c98643a236a4_ligand_2.pdbqt
 12 12 0 0 0
SMALL
GASTEIGER

@<TRIPOS>ATOM
      1  C          8.2650   -0.7030   -2.0880 C.3     1  UNL1        0.1270
      2  C          8.3350   -1.9300   -2.9240 C.2     1  UNL1        0.3030
      3  O          7.2710   -2.4470   -3.3440 O.2     1  UNL1       -0.2520
      4  O          9.5420   -2.5340   -3.2650 O.3     1  UNL1       -0.4810
      5  H          9.7840   -2.7540   -4.2440 H       1  UNL1        0.2960
      6  C          7.8450   -1.1210   -0.7060 C.3     1  UNL1        0.0470
      7  C          6.8440   -0.1950   -0.1140 C.2     1  UNL1       -0.0470
      8  C          6.3590    0.8850   -0.8260 C.2     1  UNL1        0.0040
      9  C          6.3500   -0.3680    1.1660 C.2     1  UNL1        0.0040
     10  C          5.4280    1.7390   -0.2650 C.2     1  UNL1        0.0000
     11  C          5.4220    0.4820    1.7260 C.2     1  UNL1        0.0000
     12  C          4.9400    1.5610    1.0130 C.2     1  UNL1        0.0000
@<TRIPOS>BOND
     1     5     4    1
     2     3     2    2
     3     4     2    1
     4     2     1    1
     5     1     6    1
     6     8    10    1
     7     8     7    2
     8     6     7    1
     9    10    12    2
    10     7     9    1
    11    12    11    1
    12     9    11    2
