@<TRIPOS>MOLECULE
/home/cewinharhar/GITHUB/reincatalyze/data/processed/docking_pred/2023-Apr-25-2033_maxeplen5_maxtrainstep200_exh16_gamma099_lrac3e-4_lrcr1e-3/955e59fc22a1e87e2ab10a68f3a5c98643a236a4_ligand_2.pdbqt
 12 12 0 0 0
SMALL
GASTEIGER

@<TRIPOS>ATOM
      1  C          8.4360   -0.5990   -2.1600 C.3     1  UNL1        0.1270
      2  C          8.4220   -1.8920   -2.8920 C.2     1  UNL1        0.3030
      3  O          7.3200   -2.4070   -3.2030 O.2     1  UNL1       -0.2520
      4  O          9.5890   -2.5610   -3.2520 O.3     1  UNL1       -0.4810
      5  H          9.5730   -3.3980   -3.8530 H       1  UNL1        0.2960
      6  C          7.0290   -0.0700   -2.1490 C.3     1  UNL1        0.0470
      7  C          6.4820    0.0580   -0.7720 C.2     1  UNL1       -0.0470
      8  C          5.8370    1.2090   -0.3630 C.2     1  UNL1        0.0040
      9  C          6.5890   -0.9580    0.1590 C.2     1  UNL1        0.0040
     10  C          5.3320    1.3170    0.9190 C.2     1  UNL1        0.0000
     11  C          6.0860   -0.8530    1.4370 C.2     1  UNL1        0.0000
     12  C          5.4420    0.2990    1.8430 C.2     1  UNL1        0.0000
@<TRIPOS>BOND
     1     5     4    1
     2     4     2    1
     3     3     2    2
     4     2     1    1
     5     1     6    1
     6     6     7    1
     7     7     8    2
     8     7     9    1
     9     8    10    1
    10     9    11    2
    11    10    12    2
    12    11    12    1
