@<TRIPOS>MOLECULE
/home/cewinharhar/GITHUB/reincatalyze/data/processed/docking_pred/2023-Apr-25-2033_maxeplen5_maxtrainstep200_exh16_gamma099_lrac3e-4_lrcr1e-3/9a7d3f5f853688f06c0e35b58fb12e655ab1ce10_ligand_2.pdbqt
 12 12 0 0 0
SMALL
GASTEIGER

@<TRIPOS>ATOM
      1  C          4.9830    1.7900    0.7010 C.3     1  UNL1        0.1270
      2  C          4.4760    1.1240    1.9280 C.2     1  UNL1        0.3030
      3  O          5.1830    0.2500    2.4870 O.2     1  UNL1       -0.2520
      4  O          3.2390    1.4320    2.4890 O.3     1  UNL1       -0.4810
      5  H          2.7480    0.7760    3.1160 H       1  UNL1        0.2960
      6  C          6.4840    1.8150    0.7860 C.3     1  UNL1        0.0470
      7  C          7.1280    1.0540   -0.3160 C.2     1  UNL1       -0.0470
      8  C          6.4160    0.1350   -1.0630 C.2     1  UNL1        0.0040
      9  C          8.4590    1.2250   -0.6480 C.2     1  UNL1        0.0040
     10  C          7.0250   -0.5670   -2.0850 C.2     1  UNL1        0.0000
     11  C          9.0680    0.5260   -1.6670 C.2     1  UNL1        0.0000
     12  C          8.3540   -0.3910   -2.4110 C.2     1  UNL1        0.0000
@<TRIPOS>BOND
     1    12    10    2
     2    12    11    1
     3    10     8    1
     4    11     9    2
     5     8     7    2
     6     9     7    1
     7     7     6    1
     8     1     6    1
     9     1     2    1
    10     2     3    2
    11     2     4    1
    12     4     5    1
