@<TRIPOS>MOLECULE
/home/cewinharhar/GITHUB/reincatalyze/data/processed/docking_pred/2023-Apr-25-2033_maxeplen5_maxtrainstep200_exh16_gamma099_lrac3e-4_lrcr1e-3/9a7d3f5f853688f06c0e35b58fb12e655ab1ce10_ligand_2.pdbqt
 12 12 0 0 0
SMALL
GASTEIGER

@<TRIPOS>ATOM
      1  C          8.2010   -1.6620    1.1950 C.3     1  UNL1        0.1270
      2  C          8.5100   -2.8400    0.3440 C.2     1  UNL1        0.3030
      3  O          9.1850   -3.7820    0.8250 O.2     1  UNL1       -0.2520
      4  O          8.0780   -2.9430   -0.9750 O.3     1  UNL1       -0.4810
      5  H          8.6850   -3.3200   -1.7190 H       1  UNL1        0.2960
      6  C          6.7050   -1.5640    1.3070 C.3     1  UNL1        0.0470
      7  C          6.1790   -0.2760    0.7830 C.2     1  UNL1       -0.0470
      8  C          6.4190    0.1180   -0.5190 C.2     1  UNL1        0.0040
      9  C          5.4300    0.5840    1.5640 C.2     1  UNL1        0.0040
     10  C          5.9260    1.3180   -0.9950 C.2     1  UNL1        0.0000
     11  C          4.9370    1.7800    1.0920 C.2     1  UNL1        0.0000
     12  C          5.1790    2.1720   -0.2100 C.2     1  UNL1        0.0000
@<TRIPOS>BOND
     1     5     4    1
     2    10     8    1
     3    10    12    2
     4     4     2    1
     5     8     7    2
     6    12    11    1
     7     2     3    2
     8     2     1    1
     9     7     6    1
    10     7     9    1
    11    11     9    2
    12     1     6    1
