@<TRIPOS>MOLECULE
/home/cewinharhar/GITHUB/reincatalyze/data/processed/docking_pred/2023-Apr-25-2033_maxeplen5_maxtrainstep200_exh16_gamma099_lrac3e-4_lrcr1e-3/9a7d3f5f853688f06c0e35b58fb12e655ab1ce10_ligand_2.pdbqt
 12 12 0 0 0
SMALL
GASTEIGER

@<TRIPOS>ATOM
      1  C          8.2430    0.1710   -2.2260 C.3     1  UNL1        0.1270
      2  C          9.3710    0.3430   -1.2740 C.2     1  UNL1        0.3030
      3  O          9.4450   -0.4070   -0.2700 O.2     1  UNL1       -0.2520
      4  O         10.3590    1.3090   -1.4520 O.3     1  UNL1       -0.4810
      5  H         11.3420    1.0550   -1.6300 H       1  UNL1        0.2960
      6  C          7.1690   -0.6080   -1.5180 C.3     1  UNL1        0.0470
      7  C          6.3630    0.2400   -0.6010 C.2     1  UNL1       -0.0470
      8  C          6.1110   -0.1520    0.6990 C.2     1  UNL1        0.0040
      9  C          5.8320    1.4530   -0.9980 C.2     1  UNL1        0.0040
     10  C          5.3600    0.6440    1.5430 C.2     1  UNL1        0.0000
     11  C          5.0840    2.2480   -0.1580 C.2     1  UNL1        0.0000
     12  C          4.8330    1.8530    1.1400 C.2     1  UNL1        0.0000
@<TRIPOS>BOND
     1     1     6    1
     2     1     2    1
     3     5     4    1
     4     6     7    1
     5     4     2    1
     6     2     3    2
     7     9     7    2
     8     9    11    1
     9     7     8    1
    10    11    12    2
    11     8    10    2
    12    12    10    1
