@<TRIPOS>MOLECULE
/home/cewinharhar/GITHUB/reincatalyze/data/processed/docking_pred/2023-Apr-25-2033_maxeplen5_maxtrainstep200_exh16_gamma099_lrac3e-4_lrcr1e-3/9a7d3f5f853688f06c0e35b58fb12e655ab1ce10_ligand_2.pdbqt
 12 12 0 0 0
SMALL
GASTEIGER

@<TRIPOS>ATOM
      1  C          8.4790   -0.6410   -2.0990 C.3     1  UNL1        0.1270
      2  C          8.4800   -1.9030   -2.8830 C.2     1  UNL1        0.3030
      3  O          9.5670   -2.4930   -3.0920 O.2     1  UNL1       -0.2520
      4  O          7.3140   -2.4630   -3.3980 O.3     1  UNL1       -0.4810
      5  H          7.1910   -3.4840   -3.4810 H       1  UNL1        0.2960
      6  C          7.0870   -0.0750   -2.1530 C.3     1  UNL1        0.0470
      7  C          6.4950    0.1050   -0.8010 C.2     1  UNL1       -0.0470
      8  C          5.8190    1.2610   -0.4650 C.2     1  UNL1        0.0040
      9  C          6.5880   -0.8670    0.1770 C.2     1  UNL1        0.0040
     10  C          5.2720    1.4180    0.7950 C.2     1  UNL1        0.0000
     11  C          6.0440   -0.7130    1.4330 C.2     1  UNL1        0.0000
     12  C          5.3690    0.4440    1.7670 C.2     1  UNL1        0.0000
@<TRIPOS>BOND
     1     5     4    1
     2     4     2    1
     3     3     2    2
     4     2     1    1
     5     6     1    1
     6     6     7    1
     7     7     8    2
     8     7     9    1
     9     8    10    1
    10     9    11    2
    11    10    12    2
    12    11    12    1
