MODEL 1
REMARK VINA RESULT:      -7.3      0.000      0.000
REMARK SMILES O=C(O)CCc1ccccc1
REMARK SMILES IDX 4 1 2 2 1 3 3 4 5 6 6 7 7 8 11 9 8 10 10 11 9 12
REMARK H PARENT 3 5
REMARK Flexibility Score: inf
ROOT
ATOM      1  C   UNL     1       8.479  -0.641  -2.099  1.00  0.00     0.127 C 
ENDROOT
BRANCH   1   2
ATOM      2  C   UNL     1       8.480  -1.903  -2.883  1.00  0.00     0.303 C 
ATOM      3  O   UNL     1       9.567  -2.493  -3.092  1.00  0.00    -0.252 OA
BRANCH   2   4
ATOM      4  O   UNL     1       7.314  -2.463  -3.398  1.00  0.00    -0.481 OA
ATOM      5  H   UNL     1       7.191  -3.484  -3.481  1.00  0.00     0.296 HD
ENDBRANCH   2   4
ENDBRANCH   1   2
BRANCH   1   6
ATOM      6  C   UNL     1       7.087  -0.075  -2.153  1.00  0.00     0.047 C 
BRANCH   6   7
ATOM      7  C   UNL     1       6.495   0.105  -0.801  1.00  0.00    -0.047 A 
ATOM      8  C   UNL     1       5.819   1.261  -0.465  1.00  0.00     0.004 A 
ATOM      9  C   UNL     1       6.588  -0.867   0.177  1.00  0.00     0.004 A 
ATOM     10  C   UNL     1       5.272   1.418   0.795  1.00  0.00     0.000 A 
ATOM     11  C   UNL     1       6.044  -0.713   1.433  1.00  0.00     0.000 A 
ATOM     12  C   UNL     1       5.369   0.444   1.767  1.00  0.00     0.000 A 
ENDBRANCH   6   7
ENDBRANCH   1   6
TORSDOF 4
ENDMDL
MODEL 2
REMARK VINA RESULT:      -7.3      0.086      1.421
REMARK SMILES O=C(O)CCc1ccccc1
REMARK SMILES IDX 4 1 2 2 1 3 3 4 5 6 6 7 7 8 11 9 8 10 10 11 9 12
REMARK H PARENT 3 5
REMARK Flexibility Score: inf
ROOT
ATOM      1  C   UNL     1       8.443  -0.561  -2.216  1.00  0.00     0.127 C 
ENDROOT
BRANCH   1   2
ATOM      2  C   UNL     1       8.460  -1.872  -2.916  1.00  0.00     0.303 C 
ATOM      3  O   UNL     1       9.553  -2.466  -3.075  1.00  0.00    -0.252 OA
BRANCH   2   4
ATOM      4  O   UNL     1       7.303  -2.473  -3.405  1.00  0.00    -0.481 OA
ATOM      5  H   UNL     1       6.912  -3.327  -2.979  1.00  0.00     0.296 HD
ENDBRANCH   2   4
ENDBRANCH   1   2
BRANCH   1   6
ATOM      6  C   UNL     1       7.020  -0.072  -2.205  1.00  0.00     0.047 C 
BRANCH   6   7
ATOM      7  C   UNL     1       6.484   0.082  -0.827  1.00  0.00    -0.047 A 
ATOM      8  C   UNL     1       6.604  -0.931   0.105  1.00  0.00     0.004 A 
ATOM      9  C   UNL     1       5.846   1.236  -0.412  1.00  0.00     0.004 A 
ATOM     10  C   UNL     1       6.102  -0.776   1.383  1.00  0.00     0.000 A 
ATOM     11  C   UNL     1       5.344   1.392   0.861  1.00  0.00     0.000 A 
ATOM     12  C   UNL     1       5.465   0.378   1.790  1.00  0.00     0.000 A 
ENDBRANCH   6   7
ENDBRANCH   1   6
TORSDOF 4
ENDMDL
MODEL 3
REMARK VINA RESULT:      -6.8      3.373      5.098
REMARK SMILES O=C(O)CCc1ccccc1
REMARK SMILES IDX 4 1 2 2 1 3 3 4 5 6 6 7 7 8 11 9 8 10 10 11 9 12
REMARK H PARENT 3 5
REMARK Flexibility Score: inf
ROOT
ATOM      1  C   UNL     1       4.983   1.790   0.701  1.00  0.00     0.127 C 
ENDROOT
BRANCH   1   2
ATOM      2  C   UNL     1       4.476   1.124   1.928  1.00  0.00     0.303 C 
ATOM      3  O   UNL     1       5.183   0.250   2.487  1.00  0.00    -0.252 OA
BRANCH   2   4
ATOM      4  O   UNL     1       3.239   1.432   2.489  1.00  0.00    -0.481 OA
ATOM      5  H   UNL     1       2.748   0.776   3.116  1.00  0.00     0.296 HD
ENDBRANCH   2   4
ENDBRANCH   1   2
BRANCH   1   6
ATOM      6  C   UNL     1       6.484   1.815   0.786  1.00  0.00     0.047 C 
BRANCH   6   7
ATOM      7  C   UNL     1       7.128   1.054  -0.316  1.00  0.00    -0.047 A 
ATOM      8  C   UNL     1       6.416   0.135  -1.063  1.00  0.00     0.004 A 
ATOM      9  C   UNL     1       8.459   1.225  -0.648  1.00  0.00     0.004 A 
ATOM     10  C   UNL     1       7.025  -0.567  -2.085  1.00  0.00     0.000 A 
ATOM     11  C   UNL     1       9.068   0.526  -1.667  1.00  0.00     0.000 A 
ATOM     12  C   UNL     1       8.354  -0.391  -2.411  1.00  0.00     0.000 A 
ENDBRANCH   6   7
ENDBRANCH   1   6
TORSDOF 4
ENDMDL
MODEL 4
REMARK VINA RESULT:      -6.6      1.906      2.635
REMARK SMILES O=C(O)CCc1ccccc1
REMARK SMILES IDX 4 1 2 2 1 3 3 4 5 6 6 7 7 8 11 9 8 10 10 11 9 12
REMARK H PARENT 3 5
REMARK Flexibility Score: inf
ROOT
ATOM      1  C   UNL     1       8.243   0.171  -2.226  1.00  0.00     0.127 C 
ENDROOT
BRANCH   1   2
ATOM      2  C   UNL     1       9.371   0.343  -1.274  1.00  0.00     0.303 C 
ATOM      3  O   UNL     1       9.445  -0.407  -0.270  1.00  0.00    -0.252 OA
BRANCH   2   4
ATOM      4  O   UNL     1      10.359   1.309  -1.452  1.00  0.00    -0.481 OA
ATOM      5  H   UNL     1      11.342   1.055  -1.630  1.00  0.00     0.296 HD
ENDBRANCH   2   4
ENDBRANCH   1   2
BRANCH   1   6
ATOM      6  C   UNL     1       7.169  -0.608  -1.518  1.00  0.00     0.047 C 
BRANCH   6   7
ATOM      7  C   UNL     1       6.363   0.240  -0.601  1.00  0.00    -0.047 A 
ATOM      8  C   UNL     1       6.111  -0.152   0.699  1.00  0.00     0.004 A 
ATOM      9  C   UNL     1       5.832   1.453  -0.998  1.00  0.00     0.004 A 
ATOM     10  C   UNL     1       5.360   0.644   1.543  1.00  0.00     0.000 A 
ATOM     11  C   UNL     1       5.084   2.248  -0.158  1.00  0.00     0.000 A 
ATOM     12  C   UNL     1       4.833   1.853   1.140  1.00  0.00     0.000 A 
ENDBRANCH   6   7
ENDBRANCH   1   6
TORSDOF 4
ENDMDL
MODEL 5
REMARK VINA RESULT:      -6.5      1.898      2.850
REMARK SMILES O=C(O)CCc1ccccc1
REMARK SMILES IDX 4 1 2 2 1 3 3 4 5 6 6 7 7 8 11 9 8 10 10 11 9 12
REMARK H PARENT 3 5
REMARK Flexibility Score: inf
ROOT
ATOM      1  C   UNL     1       8.201  -1.662   1.195  1.00  0.00     0.127 C 
ENDROOT
BRANCH   1   2
ATOM      2  C   UNL     1       8.510  -2.840   0.344  1.00  0.00     0.303 C 
ATOM      3  O   UNL     1       9.185  -3.782   0.825  1.00  0.00    -0.252 OA
BRANCH   2   4
ATOM      4  O   UNL     1       8.078  -2.943  -0.975  1.00  0.00    -0.481 OA
ATOM      5  H   UNL     1       8.685  -3.320  -1.719  1.00  0.00     0.296 HD
ENDBRANCH   2   4
ENDBRANCH   1   2
BRANCH   1   6
ATOM      6  C   UNL     1       6.705  -1.564   1.307  1.00  0.00     0.047 C 
BRANCH   6   7
ATOM      7  C   UNL     1       6.179  -0.276   0.783  1.00  0.00    -0.047 A 
ATOM      8  C   UNL     1       6.419   0.118  -0.519  1.00  0.00     0.004 A 
ATOM      9  C   UNL     1       5.430   0.584   1.564  1.00  0.00     0.004 A 
ATOM     10  C   UNL     1       5.926   1.318  -0.995  1.00  0.00     0.000 A 
ATOM     11  C   UNL     1       4.937   1.780   1.092  1.00  0.00     0.000 A 
ATOM     12  C   UNL     1       5.179   2.172  -0.210  1.00  0.00     0.000 A 
ENDBRANCH   6   7
ENDBRANCH   1   6
TORSDOF 4
ENDMDL
