@<TRIPOS>MOLECULE
/home/cewinharhar/GITHUB/reincatalyze/data/processed/docking_pred/2023-Apr-25-2033_maxeplen5_maxtrainstep200_exh16_gamma099_lrac3e-4_lrcr1e-3/9a7d3f5f853688f06c0e35b58fb12e655ab1ce10_ligand_2.pdbqt
 12 12 0 0 0
SMALL
GASTEIGER

@<TRIPOS>ATOM
      1  C          8.4430   -0.5610   -2.2160 C.3     1  UNL1        0.1270
      2  C          8.4600   -1.8720   -2.9160 C.2     1  UNL1        0.3030
      3  O          9.5530   -2.4660   -3.0750 O.2     1  UNL1       -0.2520
      4  O          7.3030   -2.4730   -3.4050 O.3     1  UNL1       -0.4810
      5  H          6.9120   -3.3270   -2.9790 H       1  UNL1        0.2960
      6  C          7.0200   -0.0720   -2.2050 C.3     1  UNL1        0.0470
      7  C          6.4840    0.0820   -0.8270 C.2     1  UNL1       -0.0470
      8  C          6.6040   -0.9310    0.1050 C.2     1  UNL1        0.0040
      9  C          5.8460    1.2360   -0.4120 C.2     1  UNL1        0.0040
     10  C          6.1020   -0.7760    1.3830 C.2     1  UNL1        0.0000
     11  C          5.3440    1.3920    0.8610 C.2     1  UNL1        0.0000
     12  C          5.4650    0.3780    1.7900 C.2     1  UNL1        0.0000
@<TRIPOS>BOND
     1     4     5    1
     2     4     2    1
     3     3     2    2
     4     2     1    1
     5     1     6    1
     6     6     7    1
     7     7     9    2
     8     7     8    1
     9     9    11    1
    10     8    10    2
    11    11    12    2
    12    10    12    1
