@<TRIPOS>MOLECULE
/home/cewinharhar/GITHUB/reincatalyze/data/processed/docking_pred/2023-Apr-25-2033_maxeplen5_maxtrainstep200_exh16_gamma099_lrac3e-4_lrcr1e-3/9c92d7019ca479aa147a964f0da84773825070a7_ligand_2.pdbqt
 12 12 0 0 0
SMALL
GASTEIGER

@<TRIPOS>ATOM
      1  C          8.4480   -0.6000   -2.1610 C.3     1  UNL1        0.1270
      2  C          8.4590   -1.8880   -2.9030 C.2     1  UNL1        0.3030
      3  O          9.5510   -2.4780   -3.0880 O.2     1  UNL1       -0.2520
      4  O          7.2990   -2.4710   -3.4060 O.3     1  UNL1       -0.4810
      5  H          6.8530   -2.1360   -4.2740 H       1  UNL1        0.2960
      6  C          7.0360   -0.0820   -2.1760 C.3     1  UNL1        0.0470
      7  C          6.4780    0.0820   -0.8080 C.2     1  UNL1       -0.0470
      8  C          6.5810   -0.9240    0.1320 C.2     1  UNL1        0.0040
      9  C          5.8340    1.2390   -0.4110 C.2     1  UNL1        0.0040
     10  C          6.0580   -0.7610    1.4010 C.2     1  UNL1        0.0000
     11  C          5.3120    1.4040    0.8530 C.2     1  UNL1        0.0000
     12  C          5.4160    0.3960    1.7900 C.2     1  UNL1        0.0000
@<TRIPOS>BOND
     1     5     4    1
     2     4     2    1
     3     3     2    2
     4     2     1    1
     5     6     1    1
     6     6     7    1
     7     7     9    2
     8     7     8    1
     9     9    11    1
    10     8    10    2
    11    11    12    2
    12    10    12    1
