@<TRIPOS>MOLECULE
/home/cewinharhar/GITHUB/reincatalyze/data/processed/docking_pred/2023-Apr-25-2033_maxeplen5_maxtrainstep200_exh16_gamma099_lrac3e-4_lrcr1e-3/9c92d7019ca479aa147a964f0da84773825070a7_ligand_2.pdbqt
 12 12 0 0 0
SMALL
GASTEIGER

@<TRIPOS>ATOM
      1  C          7.3640   -1.5990   -1.9800 C.3     1  UNL1        0.1270
      2  C          8.7700   -1.4430   -2.4350 C.2     1  UNL1        0.3030
      3  O          9.2720   -2.3190   -3.1800 O.2     1  UNL1       -0.2520
      4  O          9.5590   -0.3570   -2.0660 O.3     1  UNL1       -0.4810
      5  H          9.2350    0.6150   -2.1820 H       1  UNL1        0.2960
      6  C          7.3580   -1.4860   -0.4800 C.3     1  UNL1        0.0470
      7  C          6.5220   -0.3540    0.0000 C.2     1  UNL1       -0.0470
      8  C          5.9910   -0.3490    1.2750 C.2     1  UNL1        0.0040
      9  C          6.2380    0.7400   -0.7950 C.2     1  UNL1        0.0040
     10  C          5.2150    0.7090    1.7120 C.2     1  UNL1        0.0000
     11  C          5.4650    1.7940   -0.3630 C.2     1  UNL1        0.0000
     12  C          4.9350    1.7970    0.9120 C.2     1  UNL1        0.0000
@<TRIPOS>BOND
     1     3     2    2
     2     2     4    1
     3     2     1    1
     4     5     4    1
     5     1     6    1
     6     9    11    1
     7     9     7    2
     8     6     7    1
     9    11    12    2
    10     7     8    1
    11    12    10    1
    12     8    10    2
