MODEL 1
REMARK VINA RESULT:      -7.3      0.000      0.000
REMARK SMILES O=C(O)CCc1ccccc1
REMARK SMILES IDX 4 1 2 2 1 3 3 4 5 6 6 7 7 8 11 9 8 10 10 11 9 12
REMARK H PARENT 3 5
REMARK Flexibility Score: inf
ROOT
ATOM      1  C   UNL     1       8.448  -0.600  -2.161  1.00  0.00     0.127 C 
ENDROOT
BRANCH   1   2
ATOM      2  C   UNL     1       8.459  -1.888  -2.903  1.00  0.00     0.303 C 
ATOM      3  O   UNL     1       9.551  -2.478  -3.088  1.00  0.00    -0.252 OA
BRANCH   2   4
ATOM      4  O   UNL     1       7.299  -2.471  -3.406  1.00  0.00    -0.481 OA
ATOM      5  H   UNL     1       6.853  -2.136  -4.274  1.00  0.00     0.296 HD
ENDBRANCH   2   4
ENDBRANCH   1   2
BRANCH   1   6
ATOM      6  C   UNL     1       7.036  -0.082  -2.176  1.00  0.00     0.047 C 
BRANCH   6   7
ATOM      7  C   UNL     1       6.478   0.082  -0.808  1.00  0.00    -0.047 A 
ATOM      8  C   UNL     1       6.581  -0.924   0.132  1.00  0.00     0.004 A 
ATOM      9  C   UNL     1       5.834   1.239  -0.411  1.00  0.00     0.004 A 
ATOM     10  C   UNL     1       6.058  -0.761   1.401  1.00  0.00     0.000 A 
ATOM     11  C   UNL     1       5.312   1.404   0.853  1.00  0.00     0.000 A 
ATOM     12  C   UNL     1       5.416   0.396   1.790  1.00  0.00     0.000 A 
ENDBRANCH   6   7
ENDBRANCH   1   6
TORSDOF 4
ENDMDL
MODEL 2
REMARK VINA RESULT:      -7.3      0.070      1.421
REMARK SMILES O=C(O)CCc1ccccc1
REMARK SMILES IDX 4 1 2 2 1 3 3 4 5 6 6 7 7 8 11 9 8 10 10 11 9 12
REMARK H PARENT 3 5
REMARK Flexibility Score: inf
ROOT
ATOM      1  C   UNL     1       8.446  -0.553  -2.229  1.00  0.00     0.127 C 
ENDROOT
BRANCH   1   2
ATOM      2  C   UNL     1       8.467  -1.868  -2.919  1.00  0.00     0.303 C 
ATOM      3  O   UNL     1       9.557  -2.477  -3.043  1.00  0.00    -0.252 OA
BRANCH   2   4
ATOM      4  O   UNL     1       7.317  -2.459  -3.436  1.00  0.00    -0.481 OA
ATOM      5  H   UNL     1       6.574  -2.830  -2.825  1.00  0.00     0.296 HD
ENDBRANCH   2   4
ENDBRANCH   1   2
BRANCH   1   6
ATOM      6  C   UNL     1       7.020  -0.077  -2.203  1.00  0.00     0.047 C 
BRANCH   6   7
ATOM      7  C   UNL     1       6.490   0.054  -0.821  1.00  0.00    -0.047 A 
ATOM      8  C   UNL     1       5.850   1.206  -0.406  1.00  0.00     0.004 A 
ATOM      9  C   UNL     1       6.608  -0.960   0.111  1.00  0.00     0.004 A 
ATOM     10  C   UNL     1       5.361   1.317   0.882  1.00  0.00     0.000 A 
ATOM     11  C   UNL     1       6.121  -0.852   1.395  1.00  0.00     0.000 A 
ATOM     12  C   UNL     1       5.483   0.300   1.807  1.00  0.00     0.000 A 
ENDBRANCH   6   7
ENDBRANCH   1   6
TORSDOF 4
ENDMDL
MODEL 3
REMARK VINA RESULT:      -6.8      3.374      5.099
REMARK SMILES O=C(O)CCc1ccccc1
REMARK SMILES IDX 4 1 2 2 1 3 3 4 5 6 6 7 7 8 11 9 8 10 10 11 9 12
REMARK H PARENT 3 5
REMARK Flexibility Score: inf
ROOT
ATOM      1  C   UNL     1       5.017   1.810   0.720  1.00  0.00     0.127 C 
ENDROOT
BRANCH   1   2
ATOM      2  C   UNL     1       4.464   1.128   1.919  1.00  0.00     0.303 C 
ATOM      3  O   UNL     1       5.128   0.213   2.464  1.00  0.00    -0.252 OA
BRANCH   2   4
ATOM      4  O   UNL     1       3.230   1.465   2.468  1.00  0.00    -0.481 OA
ATOM      5  H   UNL     1       2.541   0.747   2.740  1.00  0.00     0.296 HD
ENDBRANCH   2   4
ENDBRANCH   1   2
BRANCH   1   6
ATOM      6  C   UNL     1       6.517   1.758   0.822  1.00  0.00     0.047 C 
BRANCH   6   7
ATOM      7  C   UNL     1       7.136   1.005  -0.300  1.00  0.00    -0.047 A 
ATOM      8  C   UNL     1       8.448   1.226  -0.673  1.00  0.00     0.004 A 
ATOM      9  C   UNL     1       6.439   0.053  -1.020  1.00  0.00     0.004 A 
ATOM     10  C   UNL     1       9.013   0.520  -1.717  1.00  0.00     0.000 A 
ATOM     11  C   UNL     1       7.000  -0.653  -2.061  1.00  0.00     0.000 A 
ATOM     12  C   UNL     1       8.311  -0.429  -2.431  1.00  0.00     0.000 A 
ENDBRANCH   6   7
ENDBRANCH   1   6
TORSDOF 4
ENDMDL
MODEL 4
REMARK VINA RESULT:      -6.7      1.023      1.655
REMARK SMILES O=C(O)CCc1ccccc1
REMARK SMILES IDX 4 1 2 2 1 3 3 4 5 6 6 7 7 8 11 9 8 10 10 11 9 12
REMARK H PARENT 3 5
REMARK Flexibility Score: inf
ROOT
ATOM      1  C   UNL     1       7.364  -1.599  -1.980  1.00  0.00     0.127 C 
ENDROOT
BRANCH   1   2
ATOM      2  C   UNL     1       8.770  -1.443  -2.435  1.00  0.00     0.303 C 
ATOM      3  O   UNL     1       9.272  -2.319  -3.180  1.00  0.00    -0.252 OA
BRANCH   2   4
ATOM      4  O   UNL     1       9.559  -0.357  -2.066  1.00  0.00    -0.481 OA
ATOM      5  H   UNL     1       9.235   0.615  -2.182  1.00  0.00     0.296 HD
ENDBRANCH   2   4
ENDBRANCH   1   2
BRANCH   1   6
ATOM      6  C   UNL     1       7.358  -1.486  -0.480  1.00  0.00     0.047 C 
BRANCH   6   7
ATOM      7  C   UNL     1       6.522  -0.354   0.000  1.00  0.00    -0.047 A 
ATOM      8  C   UNL     1       5.991  -0.349   1.275  1.00  0.00     0.004 A 
ATOM      9  C   UNL     1       6.238   0.740  -0.795  1.00  0.00     0.004 A 
ATOM     10  C   UNL     1       5.215   0.709   1.712  1.00  0.00     0.000 A 
ATOM     11  C   UNL     1       5.465   1.794  -0.363  1.00  0.00     0.000 A 
ATOM     12  C   UNL     1       4.935   1.797   0.912  1.00  0.00     0.000 A 
ENDBRANCH   6   7
ENDBRANCH   1   6
TORSDOF 4
ENDMDL
MODEL 5
REMARK VINA RESULT:      -6.6      3.794      4.885
REMARK SMILES O=C(O)CCc1ccccc1
REMARK SMILES IDX 4 1 2 2 1 3 3 4 5 6 6 7 7 8 11 9 8 10 10 11 9 12
REMARK H PARENT 3 5
REMARK Flexibility Score: inf
ROOT
ATOM      1  C   UNL     1       5.613   2.852  -0.186  1.00  0.00     0.127 C 
ENDROOT
BRANCH   1   2
ATOM      2  C   UNL     1       6.264   3.866   0.684  1.00  0.00     0.303 C 
ATOM      3  O   UNL     1       6.951   4.775   0.158  1.00  0.00    -0.252 OA
BRANCH   2   4
ATOM      4  O   UNL     1       6.141   3.850   2.071  1.00  0.00    -0.481 OA
ATOM      5  H   UNL     1       5.861   2.999   2.583  1.00  0.00     0.296 HD
ENDBRANCH   2   4
ENDBRANCH   1   2
BRANCH   1   6
ATOM      6  C   UNL     1       4.968   1.832   0.712  1.00  0.00     0.047 C 
BRANCH   6   7
ATOM      7  C   UNL     1       5.754   0.573   0.796  1.00  0.00    -0.047 A 
ATOM      8  C   UNL     1       5.773  -0.182   1.953  1.00  0.00     0.004 A 
ATOM      9  C   UNL     1       6.497   0.097  -0.268  1.00  0.00     0.004 A 
ATOM     10  C   UNL     1       6.506  -1.351   2.020  1.00  0.00     0.000 A 
ATOM     11  C   UNL     1       7.229  -1.068  -0.203  1.00  0.00     0.000 A 
ATOM     12  C   UNL     1       7.246  -1.820   0.954  1.00  0.00     0.000 A 
ENDBRANCH   6   7
ENDBRANCH   1   6
TORSDOF 4
ENDMDL
