@<TRIPOS>MOLECULE
/home/cewinharhar/GITHUB/reincatalyze/data/processed/docking_pred/2023-Apr-25-2033_maxeplen5_maxtrainstep200_exh16_gamma099_lrac3e-4_lrcr1e-3/9c92d7019ca479aa147a964f0da84773825070a7_ligand_2.pdbqt
 12 12 0 0 0
SMALL
GASTEIGER

@<TRIPOS>ATOM
      1  C          8.4460   -0.5530   -2.2290 C.3     1  UNL1        0.1270
      2  C          8.4670   -1.8680   -2.9190 C.2     1  UNL1        0.3030
      3  O          9.5570   -2.4770   -3.0430 O.2     1  UNL1       -0.2520
      4  O          7.3170   -2.4590   -3.4360 O.3     1  UNL1       -0.4810
      5  H          6.5740   -2.8300   -2.8250 H       1  UNL1        0.2960
      6  C          7.0200   -0.0770   -2.2030 C.3     1  UNL1        0.0470
      7  C          6.4900    0.0540   -0.8210 C.2     1  UNL1       -0.0470
      8  C          5.8500    1.2060   -0.4060 C.2     1  UNL1        0.0040
      9  C          6.6080   -0.9600    0.1110 C.2     1  UNL1        0.0040
     10  C          5.3610    1.3170    0.8820 C.2     1  UNL1        0.0000
     11  C          6.1210   -0.8520    1.3950 C.2     1  UNL1        0.0000
     12  C          5.4830    0.3000    1.8070 C.2     1  UNL1        0.0000
@<TRIPOS>BOND
     1     4     2    1
     2     4     5    1
     3     3     2    2
     4     2     1    1
     5     1     6    1
     6     6     7    1
     7     7     8    2
     8     7     9    1
     9     8    10    1
    10     9    11    2
    11    10    12    2
    12    11    12    1
