@<TRIPOS>MOLECULE
/home/cewinharhar/GITHUB/reincatalyze/data/processed/docking_pred/2023-Apr-25-2033_maxeplen5_maxtrainstep200_exh16_gamma099_lrac3e-4_lrcr1e-3/9c92d7019ca479aa147a964f0da84773825070a7_ligand_2.pdbqt
 12 12 0 0 0
SMALL
GASTEIGER

@<TRIPOS>ATOM
      1  C          5.0170    1.8100    0.7200 C.3     1  UNL1        0.1270
      2  C          4.4640    1.1280    1.9190 C.2     1  UNL1        0.3030
      3  O          5.1280    0.2130    2.4640 O.2     1  UNL1       -0.2520
      4  O          3.2300    1.4650    2.4680 O.3     1  UNL1       -0.4810
      5  H          2.5410    0.7470    2.7400 H       1  UNL1        0.2960
      6  C          6.5170    1.7580    0.8220 C.3     1  UNL1        0.0470
      7  C          7.1360    1.0050   -0.3000 C.2     1  UNL1       -0.0470
      8  C          8.4480    1.2260   -0.6730 C.2     1  UNL1        0.0040
      9  C          6.4390    0.0530   -1.0200 C.2     1  UNL1        0.0040
     10  C          9.0130    0.5200   -1.7170 C.2     1  UNL1        0.0000
     11  C          7.0000   -0.6530   -2.0610 C.2     1  UNL1        0.0000
     12  C          8.3110   -0.4290   -2.4310 C.2     1  UNL1        0.0000
@<TRIPOS>BOND
     1    12    11    2
     2    12    10    1
     3    11     9    1
     4    10     8    2
     5     9     7    2
     6     8     7    1
     7     7     6    1
     8     1     6    1
     9     1     2    1
    10     2     3    2
    11     2     4    1
    12     4     5    1
