@<TRIPOS>MOLECULE
/home/cewinharhar/GITHUB/reincatalyze/data/processed/docking_pred/2023-Apr-25-2033_maxeplen5_maxtrainstep200_exh16_gamma099_lrac3e-4_lrcr1e-3/9c92d7019ca479aa147a964f0da84773825070a7_ligand_2.pdbqt
 12 12 0 0 0
SMALL
GASTEIGER

@<TRIPOS>ATOM
      1  C          5.6130    2.8520   -0.1860 C.3     1  UNL1        0.1270
      2  C          6.2640    3.8660    0.6840 C.2     1  UNL1        0.3030
      3  O          6.9510    4.7750    0.1580 O.2     1  UNL1       -0.2520
      4  O          6.1410    3.8500    2.0710 O.3     1  UNL1       -0.4810
      5  H          5.8610    2.9990    2.5830 H       1  UNL1        0.2960
      6  C          4.9680    1.8320    0.7120 C.3     1  UNL1        0.0470
      7  C          5.7540    0.5730    0.7960 C.2     1  UNL1       -0.0470
      8  C          5.7730   -0.1820    1.9530 C.2     1  UNL1        0.0040
      9  C          6.4970    0.0970   -0.2680 C.2     1  UNL1        0.0040
     10  C          6.5060   -1.3510    2.0200 C.2     1  UNL1        0.0000
     11  C          7.2290   -1.0680   -0.2030 C.2     1  UNL1        0.0000
     12  C          7.2460   -1.8200    0.9540 C.2     1  UNL1        0.0000
@<TRIPOS>BOND
     1     9    11    1
     2     9     7    2
     3    11    12    2
     4     1     2    1
     5     1     6    1
     6     3     2    2
     7     2     4    1
     8     6     7    1
     9     7     8    1
    10    12    10    1
    11     8    10    2
    12     4     5    1
