@<TRIPOS>MOLECULE
/home/cewinharhar/GITHUB/reincatalyze/data/processed/docking_pred/2023-Apr-25-2033_maxeplen5_maxtrainstep200_exh16_gamma099_lrac3e-4_lrcr1e-3/a1c3c4a97d6bd518e48ffa0772dda1f342f6565e_ligand_2.pdbqt
 12 12 0 0 0
SMALL
GASTEIGER

@<TRIPOS>ATOM
      1  C          8.4520   -0.6070   -2.1510 C.3     1  UNL1        0.1270
      2  C          8.4260   -1.8950   -2.8910 C.2     1  UNL1        0.3030
      3  O          7.3200   -2.3950   -3.2110 O.2     1  UNL1       -0.2520
      4  O          9.5870   -2.5760   -3.2480 O.3     1  UNL1       -0.4810
      5  H          9.5890   -3.3030   -3.9790 H       1  UNL1        0.2960
      6  C          7.0550   -0.0510   -2.1610 C.3     1  UNL1        0.0470
      7  C          6.4900    0.0880   -0.7930 C.2     1  UNL1       -0.0470
      8  C          6.5980   -0.9320    0.1330 C.2     1  UNL1        0.0040
      9  C          5.8360    1.2340   -0.3810 C.2     1  UNL1        0.0040
     10  C          6.0690   -0.7920    1.4020 C.2     1  UNL1        0.0000
     11  C          5.3080    1.3760    0.8830 C.2     1  UNL1        0.0000
     12  C          5.4170    0.3550    1.8060 C.2     1  UNL1        0.0000
@<TRIPOS>BOND
     1     5     4    1
     2     4     2    1
     3     3     2    2
     4     2     1    1
     5     6     1    1
     6     6     7    1
     7     7     9    2
     8     7     8    1
     9     9    11    1
    10     8    10    2
    11    11    12    2
    12    10    12    1
