@<TRIPOS>MOLECULE
/home/cewinharhar/GITHUB/reincatalyze/data/processed/docking_pred/2023-Apr-25-2033_maxeplen5_maxtrainstep200_exh16_gamma099_lrac3e-4_lrcr1e-3/a1c3c4a97d6bd518e48ffa0772dda1f342f6565e_ligand_2.pdbqt
 12 12 0 0 0
SMALL
GASTEIGER

@<TRIPOS>ATOM
      1  C          7.2660   -1.2430   -2.3900 C.3     1  UNL1        0.1270
      2  C          8.7320   -1.4040   -2.5730 C.2     1  UNL1        0.3030
      3  O          9.5080   -0.5480   -2.0830 O.2     1  UNL1       -0.2520
      4  O          9.2840   -2.4740   -3.2720 O.3     1  UNL1       -0.4810
      5  H          9.9820   -2.3350   -4.0180 H       1  UNL1        0.2960
      6  C          7.0190    0.1700   -1.9380 C.3     1  UNL1        0.0470
      7  C          6.3990    0.2340   -0.5880 C.2     1  UNL1       -0.0470
      8  C          5.6800    1.3420   -0.1840 C.2     1  UNL1        0.0040
      9  C          6.5070   -0.8010    0.3210 C.2     1  UNL1        0.0040
     10  C          5.1070    1.3920    1.0730 C.2     1  UNL1        0.0000
     11  C          5.9370   -0.7550    1.5730 C.2     1  UNL1        0.0000
     12  C          5.2190    0.3540    1.9750 C.2     1  UNL1        0.0000
@<TRIPOS>BOND
     1     5     4    1
     2     4     2    1
     3     2     1    1
     4     2     3    2
     5     1     6    1
     6     6     7    1
     7     7     8    2
     8     7     9    1
     9     8    10    1
    10     9    11    2
    11    10    12    2
    12    11    12    1
