@<TRIPOS>MOLECULE
/home/cewinharhar/GITHUB/reincatalyze/data/processed/docking_pred/2023-Apr-25-2033_maxeplen5_maxtrainstep200_exh16_gamma099_lrac3e-4_lrcr1e-3/a1c3c4a97d6bd518e48ffa0772dda1f342f6565e_ligand_2.pdbqt
 12 12 0 0 0
SMALL
GASTEIGER

@<TRIPOS>ATOM
      1  C          8.2570    0.1110   -2.2510 C.3     1  UNL1        0.1270
      2  C          9.3580    0.3470   -1.2820 C.2     1  UNL1        0.3030
      3  O          9.4600   -0.3980   -0.2770 O.2     1  UNL1       -0.2520
      4  O         10.2900    1.3690   -1.4430 O.3     1  UNL1       -0.4810
      5  H         10.3990    1.8690   -2.3390 H       1  UNL1        0.2960
      6  C          7.1790   -0.6530   -1.5340 C.3     1  UNL1        0.0470
      7  C          6.3880    0.2080   -0.6150 C.2     1  UNL1       -0.0470
      8  C          6.1460   -0.1740    0.6900 C.2     1  UNL1        0.0040
      9  C          5.8630    1.4220   -1.0150 C.2     1  UNL1        0.0040
     10  C          5.4100    0.6340    1.5360 C.2     1  UNL1        0.0000
     11  C          5.1300    2.2290   -0.1740 C.2     1  UNL1        0.0000
     12  C          4.8880    1.8450    1.1300 C.2     1  UNL1        0.0000
@<TRIPOS>BOND
     1     5     4    1
     2     1     6    1
     3     1     2    1
     4     6     7    1
     5     4     2    1
     6     2     3    2
     7     9     7    2
     8     9    11    1
     9     7     8    1
    10    11    12    2
    11     8    10    2
    12    12    10    1
