MODEL 1
REMARK VINA RESULT:      -7.3      0.000      0.000
REMARK SMILES O=C(O)CCc1ccccc1
REMARK SMILES IDX 4 1 2 2 1 3 3 4 5 6 6 7 7 8 11 9 8 10 10 11 9 12
REMARK H PARENT 3 5
REMARK Flexibility Score: inf
ROOT
ATOM      1  C   UNL     1       8.451  -0.555  -2.229  1.00  0.00     0.127 C 
ENDROOT
BRANCH   1   2
ATOM      2  C   UNL     1       8.469  -1.866  -2.929  1.00  0.00     0.303 C 
ATOM      3  O   UNL     1       9.561  -2.468  -3.073  1.00  0.00    -0.252 OA
BRANCH   2   4
ATOM      4  O   UNL     1       7.316  -2.458  -3.437  1.00  0.00    -0.481 OA
ATOM      5  H   UNL     1       7.059  -2.384  -4.433  1.00  0.00     0.296 HD
ENDBRANCH   2   4
ENDBRANCH   1   2
BRANCH   1   6
ATOM      6  C   UNL     1       7.026  -0.075  -2.204  1.00  0.00     0.047 C 
BRANCH   6   7
ATOM      7  C   UNL     1       6.496   0.055  -0.822  1.00  0.00    -0.047 A 
ATOM      8  C   UNL     1       5.845   1.202  -0.410  1.00  0.00     0.004 A 
ATOM      9  C   UNL     1       6.624  -0.956   0.113  1.00  0.00     0.004 A 
ATOM     10  C   UNL     1       5.355   1.312   0.877  1.00  0.00     0.000 A 
ATOM     11  C   UNL     1       6.136  -0.848   1.397  1.00  0.00     0.000 A 
ATOM     12  C   UNL     1       5.487   0.299   1.806  1.00  0.00     0.000 A 
ENDBRANCH   6   7
ENDBRANCH   1   6
TORSDOF 4
ENDMDL
MODEL 2
REMARK VINA RESULT:      -7.3      0.114      1.718
REMARK SMILES O=C(O)CCc1ccccc1
REMARK SMILES IDX 4 1 2 2 1 3 3 4 5 6 6 7 7 8 11 9 8 10 10 11 9 12
REMARK H PARENT 3 5
REMARK Flexibility Score: inf
ROOT
ATOM      1  C   UNL     1       8.452  -0.607  -2.151  1.00  0.00     0.127 C 
ENDROOT
BRANCH   1   2
ATOM      2  C   UNL     1       8.426  -1.895  -2.891  1.00  0.00     0.303 C 
ATOM      3  O   UNL     1       7.320  -2.395  -3.211  1.00  0.00    -0.252 OA
BRANCH   2   4
ATOM      4  O   UNL     1       9.587  -2.576  -3.248  1.00  0.00    -0.481 OA
ATOM      5  H   UNL     1       9.589  -3.303  -3.979  1.00  0.00     0.296 HD
ENDBRANCH   2   4
ENDBRANCH   1   2
BRANCH   1   6
ATOM      6  C   UNL     1       7.055  -0.051  -2.161  1.00  0.00     0.047 C 
BRANCH   6   7
ATOM      7  C   UNL     1       6.490   0.088  -0.793  1.00  0.00    -0.047 A 
ATOM      8  C   UNL     1       6.598  -0.932   0.133  1.00  0.00     0.004 A 
ATOM      9  C   UNL     1       5.836   1.234  -0.381  1.00  0.00     0.004 A 
ATOM     10  C   UNL     1       6.069  -0.792   1.402  1.00  0.00     0.000 A 
ATOM     11  C   UNL     1       5.308   1.376   0.883  1.00  0.00     0.000 A 
ATOM     12  C   UNL     1       5.417   0.355   1.806  1.00  0.00     0.000 A 
ENDBRANCH   6   7
ENDBRANCH   1   6
TORSDOF 4
ENDMDL
MODEL 3
REMARK VINA RESULT:      -7.1      0.817      1.026
REMARK SMILES O=C(O)CCc1ccccc1
REMARK SMILES IDX 4 1 2 2 1 3 3 4 5 6 6 7 7 8 11 9 8 10 10 11 9 12
REMARK H PARENT 3 5
REMARK Flexibility Score: inf
ROOT
ATOM      1  C   UNL     1       7.266  -1.243  -2.390  1.00  0.00     0.127 C 
ENDROOT
BRANCH   1   2
ATOM      2  C   UNL     1       8.732  -1.404  -2.573  1.00  0.00     0.303 C 
ATOM      3  O   UNL     1       9.508  -0.548  -2.083  1.00  0.00    -0.252 OA
BRANCH   2   4
ATOM      4  O   UNL     1       9.284  -2.474  -3.272  1.00  0.00    -0.481 OA
ATOM      5  H   UNL     1       9.982  -2.335  -4.018  1.00  0.00     0.296 HD
ENDBRANCH   2   4
ENDBRANCH   1   2
BRANCH   1   6
ATOM      6  C   UNL     1       7.019   0.170  -1.938  1.00  0.00     0.047 C 
BRANCH   6   7
ATOM      7  C   UNL     1       6.399   0.234  -0.588  1.00  0.00    -0.047 A 
ATOM      8  C   UNL     1       5.680   1.342  -0.184  1.00  0.00     0.004 A 
ATOM      9  C   UNL     1       6.507  -0.801   0.321  1.00  0.00     0.004 A 
ATOM     10  C   UNL     1       5.107   1.392   1.073  1.00  0.00     0.000 A 
ATOM     11  C   UNL     1       5.937  -0.755   1.573  1.00  0.00     0.000 A 
ATOM     12  C   UNL     1       5.219   0.354   1.975  1.00  0.00     0.000 A 
ENDBRANCH   6   7
ENDBRANCH   1   6
TORSDOF 4
ENDMDL
MODEL 4
REMARK VINA RESULT:      -6.8      3.396      5.098
REMARK SMILES O=C(O)CCc1ccccc1
REMARK SMILES IDX 4 1 2 2 1 3 3 4 5 6 6 7 7 8 11 9 8 10 10 11 9 12
REMARK H PARENT 3 5
REMARK Flexibility Score: inf
ROOT
ATOM      1  C   UNL     1       4.973   1.777   0.691  1.00  0.00     0.127 C 
ENDROOT
BRANCH   1   2
ATOM      2  C   UNL     1       4.458   1.123   1.922  1.00  0.00     0.303 C 
ATOM      3  O   UNL     1       5.150   0.238   2.481  1.00  0.00    -0.252 OA
BRANCH   2   4
ATOM      4  O   UNL     1       3.228   1.454   2.485  1.00  0.00    -0.481 OA
ATOM      5  H   UNL     1       2.634   2.201   2.094  1.00  0.00     0.296 HD
ENDBRANCH   2   4
ENDBRANCH   1   2
BRANCH   1   6
ATOM      6  C   UNL     1       6.474   1.802   0.786  1.00  0.00     0.047 C 
BRANCH   6   7
ATOM      7  C   UNL     1       7.125   1.052  -0.320  1.00  0.00    -0.047 A 
ATOM      8  C   UNL     1       6.414   0.153  -1.091  1.00  0.00     0.004 A 
ATOM      9  C   UNL     1       8.462   1.215  -0.631  1.00  0.00     0.004 A 
ATOM     10  C   UNL     1       7.030  -0.538  -2.117  1.00  0.00     0.000 A 
ATOM     11  C   UNL     1       9.078   0.528  -1.653  1.00  0.00     0.000 A 
ATOM     12  C   UNL     1       8.365  -0.370  -2.421  1.00  0.00     0.000 A 
ENDBRANCH   6   7
ENDBRANCH   1   6
TORSDOF 4
ENDMDL
MODEL 5
REMARK VINA RESULT:      -6.6      1.907      2.647
REMARK SMILES O=C(O)CCc1ccccc1
REMARK SMILES IDX 4 1 2 2 1 3 3 4 5 6 6 7 7 8 11 9 8 10 10 11 9 12
REMARK H PARENT 3 5
REMARK Flexibility Score: inf
ROOT
ATOM      1  C   UNL     1       8.257   0.111  -2.251  1.00  0.00     0.127 C 
ENDROOT
BRANCH   1   2
ATOM      2  C   UNL     1       9.358   0.347  -1.282  1.00  0.00     0.303 C 
ATOM      3  O   UNL     1       9.460  -0.398  -0.277  1.00  0.00    -0.252 OA
BRANCH   2   4
ATOM      4  O   UNL     1      10.290   1.369  -1.443  1.00  0.00    -0.481 OA
ATOM      5  H   UNL     1      10.399   1.869  -2.339  1.00  0.00     0.296 HD
ENDBRANCH   2   4
ENDBRANCH   1   2
BRANCH   1   6
ATOM      6  C   UNL     1       7.179  -0.653  -1.534  1.00  0.00     0.047 C 
BRANCH   6   7
ATOM      7  C   UNL     1       6.388   0.208  -0.615  1.00  0.00    -0.047 A 
ATOM      8  C   UNL     1       6.146  -0.174   0.690  1.00  0.00     0.004 A 
ATOM      9  C   UNL     1       5.863   1.422  -1.015  1.00  0.00     0.004 A 
ATOM     10  C   UNL     1       5.410   0.634   1.536  1.00  0.00     0.000 A 
ATOM     11  C   UNL     1       5.130   2.229  -0.174  1.00  0.00     0.000 A 
ATOM     12  C   UNL     1       4.888   1.845   1.130  1.00  0.00     0.000 A 
ENDBRANCH   6   7
ENDBRANCH   1   6
TORSDOF 4
ENDMDL
