@<TRIPOS>MOLECULE
/home/cewinharhar/GITHUB/reincatalyze/data/processed/docking_pred/2023-Apr-25-2033_maxeplen5_maxtrainstep200_exh16_gamma099_lrac3e-4_lrcr1e-3/a1c3c4a97d6bd518e48ffa0772dda1f342f6565e_ligand_2.pdbqt
 12 12 0 0 0
SMALL
GASTEIGER

@<TRIPOS>ATOM
      1  C          8.4510   -0.5550   -2.2290 C.3     1  UNL1        0.1270
      2  C          8.4690   -1.8660   -2.9290 C.2     1  UNL1        0.3030
      3  O          9.5610   -2.4680   -3.0730 O.2     1  UNL1       -0.2520
      4  O          7.3160   -2.4580   -3.4370 O.3     1  UNL1       -0.4810
      5  H          7.0590   -2.3840   -4.4330 H       1  UNL1        0.2960
      6  C          7.0260   -0.0750   -2.2040 C.3     1  UNL1        0.0470
      7  C          6.4960    0.0550   -0.8220 C.2     1  UNL1       -0.0470
      8  C          5.8450    1.2020   -0.4100 C.2     1  UNL1        0.0040
      9  C          6.6240   -0.9560    0.1130 C.2     1  UNL1        0.0040
     10  C          5.3550    1.3120    0.8770 C.2     1  UNL1        0.0000
     11  C          6.1360   -0.8480    1.3970 C.2     1  UNL1        0.0000
     12  C          5.4870    0.2990    1.8060 C.2     1  UNL1        0.0000
@<TRIPOS>BOND
     1     5     4    1
     2     4     2    1
     3     3     2    2
     4     2     1    1
     5     1     6    1
     6     6     7    1
     7     7     8    2
     8     7     9    1
     9     8    10    1
    10     9    11    2
    11    10    12    2
    12    11    12    1
