@<TRIPOS>MOLECULE
/home/cewinharhar/GITHUB/reincatalyze/data/processed/docking_pred/2023-Apr-25-2033_maxeplen5_maxtrainstep200_exh16_gamma099_lrac3e-4_lrcr1e-3/a6201df4fd59712db5137144eee8a96fed35f0a9_ligand_2.pdbqt
 12 12 0 0 0
SMALL
GASTEIGER

@<TRIPOS>ATOM
      1  C          8.4760   -0.6730   -2.1080 C.3     1  UNL1        0.1270
      2  C          8.4630   -1.9210   -2.9150 C.2     1  UNL1        0.3030
      3  O          9.5420   -2.5300   -3.1180 O.2     1  UNL1       -0.2520
      4  O          7.2950   -2.4460   -3.4610 O.3     1  UNL1       -0.4810
      5  H          7.3110   -3.0740   -4.2790 H       1  UNL1        0.2960
      6  C          7.0870   -0.0980   -2.1410 C.3     1  UNL1        0.0470
      7  C          6.5060    0.0620   -0.7820 C.2     1  UNL1       -0.0470
      8  C          5.8550    1.2240   -0.4150 C.2     1  UNL1        0.0040
      9  C          6.5860   -0.9330    0.1740 C.2     1  UNL1        0.0040
     10  C          5.3190    1.3630    0.8510 C.2     1  UNL1        0.0000
     11  C          6.0530   -0.7970    1.4360 C.2     1  UNL1        0.0000
     12  C          5.4030    0.3660    1.8000 C.2     1  UNL1        0.0000
@<TRIPOS>BOND
     1     5     4    1
     2     4     2    1
     3     3     2    2
     4     2     1    1
     5     6     1    1
     6     6     7    1
     7     7     8    2
     8     7     9    1
     9     8    10    1
    10     9    11    2
    11    10    12    2
    12    11    12    1
