MODEL 1
REMARK VINA RESULT:      -7.3      0.000      0.000
REMARK SMILES O=C(O)CCc1ccccc1
REMARK SMILES IDX 4 1 2 2 1 3 3 4 5 6 6 7 7 8 11 9 8 10 10 11 9 12
REMARK H PARENT 3 5
REMARK Flexibility Score: inf
ROOT
ATOM      1  C   UNL     1       8.476  -0.673  -2.108  1.00  0.00     0.127 C 
ENDROOT
BRANCH   1   2
ATOM      2  C   UNL     1       8.463  -1.921  -2.915  1.00  0.00     0.303 C 
ATOM      3  O   UNL     1       9.542  -2.530  -3.118  1.00  0.00    -0.252 OA
BRANCH   2   4
ATOM      4  O   UNL     1       7.295  -2.446  -3.461  1.00  0.00    -0.481 OA
ATOM      5  H   UNL     1       7.311  -3.074  -4.279  1.00  0.00     0.296 HD
ENDBRANCH   2   4
ENDBRANCH   1   2
BRANCH   1   6
ATOM      6  C   UNL     1       7.087  -0.098  -2.141  1.00  0.00     0.047 C 
BRANCH   6   7
ATOM      7  C   UNL     1       6.506   0.062  -0.782  1.00  0.00    -0.047 A 
ATOM      8  C   UNL     1       5.855   1.224  -0.415  1.00  0.00     0.004 A 
ATOM      9  C   UNL     1       6.586  -0.933   0.174  1.00  0.00     0.004 A 
ATOM     10  C   UNL     1       5.319   1.363   0.851  1.00  0.00     0.000 A 
ATOM     11  C   UNL     1       6.053  -0.797   1.436  1.00  0.00     0.000 A 
ATOM     12  C   UNL     1       5.403   0.366   1.800  1.00  0.00     0.000 A 
ENDBRANCH   6   7
ENDBRANCH   1   6
TORSDOF 4
ENDMDL
MODEL 2
REMARK VINA RESULT:      -7.3      0.064      1.420
REMARK SMILES O=C(O)CCc1ccccc1
REMARK SMILES IDX 4 1 2 2 1 3 3 4 5 6 6 7 7 8 11 9 8 10 10 11 9 12
REMARK H PARENT 3 5
REMARK Flexibility Score: inf
ROOT
ATOM      1  C   UNL     1       8.451  -0.590  -2.195  1.00  0.00     0.127 C 
ENDROOT
BRANCH   1   2
ATOM      2  C   UNL     1       8.470  -1.890  -2.915  1.00  0.00     0.303 C 
ATOM      3  O   UNL     1       9.562  -2.487  -3.072  1.00  0.00    -0.252 OA
BRANCH   2   4
ATOM      4  O   UNL     1       7.315  -2.478  -3.426  1.00  0.00    -0.481 OA
ATOM      5  H   UNL     1       7.339  -3.094  -4.252  1.00  0.00     0.296 HD
ENDBRANCH   2   4
ENDBRANCH   1   2
BRANCH   1   6
ATOM      6  C   UNL     1       7.030  -0.098  -2.187  1.00  0.00     0.047 C 
BRANCH   6   7
ATOM      7  C   UNL     1       6.491   0.055  -0.810  1.00  0.00    -0.047 A 
ATOM      8  C   UNL     1       6.620  -0.953   0.125  1.00  0.00     0.004 A 
ATOM      9  C   UNL     1       5.840   1.204  -0.399  1.00  0.00     0.004 A 
ATOM     10  C   UNL     1       6.115  -0.800   1.402  1.00  0.00     0.000 A 
ATOM     11  C   UNL     1       5.336   1.358   0.874  1.00  0.00     0.000 A 
ATOM     12  C   UNL     1       5.466   0.349   1.806  1.00  0.00     0.000 A 
ENDBRANCH   6   7
ENDBRANCH   1   6
TORSDOF 4
ENDMDL
MODEL 3
REMARK VINA RESULT:      -7.0      0.633      1.472
REMARK SMILES O=C(O)CCc1ccccc1
REMARK SMILES IDX 4 1 2 2 1 3 3 4 5 6 6 7 7 8 11 9 8 10 10 11 9 12
REMARK H PARENT 3 5
REMARK Flexibility Score: inf
ROOT
ATOM      1  C   UNL     1       8.352  -0.902  -1.837  1.00  0.00     0.127 C 
ENDROOT
BRANCH   1   2
ATOM      2  C   UNL     1       8.384  -2.006  -2.831  1.00  0.00     0.303 C 
ATOM      3  O   UNL     1       7.303  -2.443  -3.295  1.00  0.00    -0.252 OA
BRANCH   2   4
ATOM      4  O   UNL     1       9.573  -2.580  -3.274  1.00  0.00    -0.481 OA
ATOM      5  H   UNL     1       9.677  -2.944  -4.234  1.00  0.00     0.296 HD
ENDBRANCH   2   4
ENDBRANCH   1   2
BRANCH   1   6
ATOM      6  C   UNL     1       7.571  -1.387  -0.647  1.00  0.00     0.047 C 
BRANCH   6   7
ATOM      7  C   UNL     1       6.672  -0.341  -0.094  1.00  0.00    -0.047 A 
ATOM      8  C   UNL     1       6.297   0.753  -0.850  1.00  0.00     0.004 A 
ATOM      9  C   UNL     1       6.169  -0.408   1.192  1.00  0.00     0.004 A 
ATOM     10  C   UNL     1       5.460   1.720  -0.325  1.00  0.00     0.000 A 
ATOM     11  C   UNL     1       5.335   0.554   1.717  1.00  0.00     0.000 A 
ATOM     12  C   UNL     1       4.962   1.646   0.959  1.00  0.00     0.000 A 
ENDBRANCH   6   7
ENDBRANCH   1   6
TORSDOF 4
ENDMDL
MODEL 4
REMARK VINA RESULT:      -7.0      0.613      1.864
REMARK SMILES O=C(O)CCc1ccccc1
REMARK SMILES IDX 4 1 2 2 1 3 3 4 5 6 6 7 7 8 11 9 8 10 10 11 9 12
REMARK H PARENT 3 5
REMARK Flexibility Score: inf
ROOT
ATOM      1  C   UNL     1       8.311  -0.884  -1.937  1.00  0.00     0.127 C 
ENDROOT
BRANCH   1   2
ATOM      2  C   UNL     1       8.378  -2.032  -2.878  1.00  0.00     0.303 C 
ATOM      3  O   UNL     1       7.316  -2.485  -3.368  1.00  0.00    -0.252 OA
BRANCH   2   4
ATOM      4  O   UNL     1       9.582  -2.631  -3.241  1.00  0.00    -0.481 OA
ATOM      5  H   UNL     1      10.420  -2.575  -2.643  1.00  0.00     0.296 HD
ENDBRANCH   2   4
ENDBRANCH   1   2
BRANCH   1   6
ATOM      6  C   UNL     1       7.631  -1.364  -0.685  1.00  0.00     0.047 C 
BRANCH   6   7
ATOM      7  C   UNL     1       6.720  -0.342  -0.106  1.00  0.00    -0.047 A 
ATOM      8  C   UNL     1       6.215  -0.475   1.172  1.00  0.00     0.004 A 
ATOM      9  C   UNL     1       6.335   0.784  -0.811  1.00  0.00     0.004 A 
ATOM     10  C   UNL     1       5.368   0.481   1.700  1.00  0.00     0.000 A 
ATOM     11  C   UNL     1       5.492   1.738  -0.287  1.00  0.00     0.000 A 
ATOM     12  C   UNL     1       4.988   1.602   0.991  1.00  0.00     0.000 A 
ENDBRANCH   6   7
ENDBRANCH   1   6
TORSDOF 4
ENDMDL
MODEL 5
REMARK VINA RESULT:      -6.8      3.393      5.115
REMARK SMILES O=C(O)CCc1ccccc1
REMARK SMILES IDX 4 1 2 2 1 3 3 4 5 6 6 7 7 8 11 9 8 10 10 11 9 12
REMARK H PARENT 3 5
REMARK Flexibility Score: inf
ROOT
ATOM      1  C   UNL     1       4.982   1.792   0.704  1.00  0.00     0.127 C 
ENDROOT
BRANCH   1   2
ATOM      2  C   UNL     1       4.458   1.123   1.922  1.00  0.00     0.303 C 
ATOM      3  O   UNL     1       5.144   0.227   2.472  1.00  0.00    -0.252 OA
BRANCH   2   4
ATOM      4  O   UNL     1       3.228   1.451   2.485  1.00  0.00    -0.481 OA
ATOM      5  H   UNL     1       3.130   1.678   3.486  1.00  0.00     0.296 HD
ENDBRANCH   2   4
ENDBRANCH   1   2
BRANCH   1   6
ATOM      6  C   UNL     1       6.483   1.797   0.800  1.00  0.00     0.047 C 
BRANCH   6   7
ATOM      7  C   UNL     1       7.125   1.050  -0.313  1.00  0.00    -0.047 A 
ATOM      8  C   UNL     1       6.407   0.155  -1.083  1.00  0.00     0.004 A 
ATOM      9  C   UNL     1       8.461   1.210  -0.632  1.00  0.00     0.004 A 
ATOM     10  C   UNL     1       7.014  -0.534  -2.115  1.00  0.00     0.000 A 
ATOM     11  C   UNL     1       9.068   0.524  -1.660  1.00  0.00     0.000 A 
ATOM     12  C   UNL     1       8.348  -0.369  -2.427  1.00  0.00     0.000 A 
ENDBRANCH   6   7
ENDBRANCH   1   6
TORSDOF 4
ENDMDL
