@<TRIPOS>MOLECULE
/home/cewinharhar/GITHUB/reincatalyze/data/processed/docking_pred/2023-Apr-25-2033_maxeplen5_maxtrainstep200_exh16_gamma099_lrac3e-4_lrcr1e-3/a6201df4fd59712db5137144eee8a96fed35f0a9_ligand_2.pdbqt
 12 12 0 0 0
SMALL
GASTEIGER

@<TRIPOS>ATOM
      1  C          8.3110   -0.8840   -1.9370 C.3     1  UNL1        0.1270
      2  C          8.3780   -2.0320   -2.8780 C.2     1  UNL1        0.3030
      3  O          7.3160   -2.4850   -3.3680 O.2     1  UNL1       -0.2520
      4  O          9.5820   -2.6310   -3.2410 O.3     1  UNL1       -0.4810
      5  H         10.4200   -2.5750   -2.6430 H       1  UNL1        0.2960
      6  C          7.6310   -1.3640   -0.6850 C.3     1  UNL1        0.0470
      7  C          6.7200   -0.3420   -0.1060 C.2     1  UNL1       -0.0470
      8  C          6.2150   -0.4750    1.1720 C.2     1  UNL1        0.0040
      9  C          6.3350    0.7840   -0.8110 C.2     1  UNL1        0.0040
     10  C          5.3680    0.4810    1.7000 C.2     1  UNL1        0.0000
     11  C          5.4920    1.7380   -0.2870 C.2     1  UNL1        0.0000
     12  C          4.9880    1.6020    0.9910 C.2     1  UNL1        0.0000
@<TRIPOS>BOND
     1     3     2    2
     2     4     2    1
     3     4     5    1
     4     2     1    1
     5     1     6    1
     6     9    11    1
     7     9     7    2
     8     6     7    1
     9    11    12    2
    10     7     8    1
    11    12    10    1
    12     8    10    2
