@<TRIPOS>MOLECULE
/home/cewinharhar/GITHUB/reincatalyze/data/processed/docking_pred/2023-Apr-25-2033_maxeplen5_maxtrainstep200_exh16_gamma099_lrac3e-4_lrcr1e-3/a6201df4fd59712db5137144eee8a96fed35f0a9_ligand_2.pdbqt
 12 12 0 0 0
SMALL
GASTEIGER

@<TRIPOS>ATOM
      1  C          8.3520   -0.9020   -1.8370 C.3     1  UNL1        0.1270
      2  C          8.3840   -2.0060   -2.8310 C.2     1  UNL1        0.3030
      3  O          7.3030   -2.4430   -3.2950 O.2     1  UNL1       -0.2520
      4  O          9.5730   -2.5800   -3.2740 O.3     1  UNL1       -0.4810
      5  H          9.6770   -2.9440   -4.2340 H       1  UNL1        0.2960
      6  C          7.5710   -1.3870   -0.6470 C.3     1  UNL1        0.0470
      7  C          6.6720   -0.3410   -0.0940 C.2     1  UNL1       -0.0470
      8  C          6.2970    0.7530   -0.8500 C.2     1  UNL1        0.0040
      9  C          6.1690   -0.4080    1.1920 C.2     1  UNL1        0.0040
     10  C          5.4600    1.7200   -0.3250 C.2     1  UNL1        0.0000
     11  C          5.3350    0.5540    1.7170 C.2     1  UNL1        0.0000
     12  C          4.9620    1.6460    0.9590 C.2     1  UNL1        0.0000
@<TRIPOS>BOND
     1     5     4    1
     2     3     2    2
     3     4     2    1
     4     2     1    1
     5     1     6    1
     6     8    10    1
     7     8     7    2
     8     6     7    1
     9    10    12    2
    10     7     9    1
    11    12    11    1
    12     9    11    2
