@<TRIPOS>MOLECULE
/home/cewinharhar/GITHUB/reincatalyze/data/processed/docking_pred/2023-Apr-25-2033_maxeplen5_maxtrainstep200_exh16_gamma099_lrac3e-4_lrcr1e-3/a6201df4fd59712db5137144eee8a96fed35f0a9_ligand_2.pdbqt
 12 12 0 0 0
SMALL
GASTEIGER

@<TRIPOS>ATOM
      1  C          4.9820    1.7920    0.7040 C.3     1  UNL1        0.1270
      2  C          4.4580    1.1230    1.9220 C.2     1  UNL1        0.3030
      3  O          5.1440    0.2270    2.4720 O.2     1  UNL1       -0.2520
      4  O          3.2280    1.4510    2.4850 O.3     1  UNL1       -0.4810
      5  H          3.1300    1.6780    3.4860 H       1  UNL1        0.2960
      6  C          6.4830    1.7970    0.8000 C.3     1  UNL1        0.0470
      7  C          7.1250    1.0500   -0.3130 C.2     1  UNL1       -0.0470
      8  C          6.4070    0.1550   -1.0830 C.2     1  UNL1        0.0040
      9  C          8.4610    1.2100   -0.6320 C.2     1  UNL1        0.0040
     10  C          7.0140   -0.5340   -2.1150 C.2     1  UNL1        0.0000
     11  C          9.0680    0.5240   -1.6600 C.2     1  UNL1        0.0000
     12  C          8.3480   -0.3690   -2.4270 C.2     1  UNL1        0.0000
@<TRIPOS>BOND
     1    12    10    2
     2    12    11    1
     3    10     8    1
     4    11     9    2
     5     8     7    2
     6     9     7    1
     7     7     6    1
     8     1     6    1
     9     1     2    1
    10     2     3    2
    11     2     4    1
    12     4     5    1
