@<TRIPOS>MOLECULE
/home/cewinharhar/GITHUB/reincatalyze/data/processed/docking_pred/2023-Apr-25-2033_maxeplen5_maxtrainstep200_exh16_gamma099_lrac3e-4_lrcr1e-3/a6201df4fd59712db5137144eee8a96fed35f0a9_ligand_2.pdbqt
 12 12 0 0 0
SMALL
GASTEIGER

@<TRIPOS>ATOM
      1  C          8.4510   -0.5900   -2.1950 C.3     1  UNL1        0.1270
      2  C          8.4700   -1.8900   -2.9150 C.2     1  UNL1        0.3030
      3  O          9.5620   -2.4870   -3.0720 O.2     1  UNL1       -0.2520
      4  O          7.3150   -2.4780   -3.4260 O.3     1  UNL1       -0.4810
      5  H          7.3390   -3.0940   -4.2520 H       1  UNL1        0.2960
      6  C          7.0300   -0.0980   -2.1870 C.3     1  UNL1        0.0470
      7  C          6.4910    0.0550   -0.8100 C.2     1  UNL1       -0.0470
      8  C          6.6200   -0.9530    0.1250 C.2     1  UNL1        0.0040
      9  C          5.8400    1.2040   -0.3990 C.2     1  UNL1        0.0040
     10  C          6.1150   -0.8000    1.4020 C.2     1  UNL1        0.0000
     11  C          5.3360    1.3580    0.8740 C.2     1  UNL1        0.0000
     12  C          5.4660    0.3490    1.8060 C.2     1  UNL1        0.0000
@<TRIPOS>BOND
     1     5     4    1
     2     4     2    1
     3     3     2    2
     4     2     1    1
     5     1     6    1
     6     6     7    1
     7     7     9    2
     8     7     8    1
     9     9    11    1
    10     8    10    2
    11    11    12    2
    12    10    12    1
