@<TRIPOS>MOLECULE
/home/cewinharhar/GITHUB/reincatalyze/data/processed/docking_pred/2023-Apr-25-2033_maxeplen5_maxtrainstep200_exh16_gamma099_lrac3e-4_lrcr1e-3/a7c8c9f10e55c2841f25afbe7e611a3f864293db_ligand_2.pdbqt
 12 12 0 0 0
SMALL
GASTEIGER

@<TRIPOS>ATOM
      1  C          8.4150   -0.6070   -2.1620 C.3     1  UNL1        0.1270
      2  C          8.4010   -1.8980   -2.8970 C.2     1  UNL1        0.3030
      3  O          7.3020   -2.3970   -3.2380 O.2     1  UNL1       -0.2520
      4  O          9.5680   -2.5830   -3.2280 O.3     1  UNL1       -0.4810
      5  H          9.5910   -3.2870   -3.9810 H       1  UNL1        0.2960
      6  C          7.0070   -0.0790   -2.1490 C.3     1  UNL1        0.0470
      7  C          6.4650    0.0600   -0.7710 C.2     1  UNL1       -0.0470
      8  C          6.6040   -0.9530    0.1580 C.2     1  UNL1        0.0040
      9  C          5.8030    1.1990   -0.3530 C.2     1  UNL1        0.0040
     10  C          6.0970   -0.8140    1.4360 C.2     1  UNL1        0.0000
     11  C          5.2970    1.3400    0.9200 C.2     1  UNL1        0.0000
     12  C          5.4370    0.3260    1.8460 C.2     1  UNL1        0.0000
@<TRIPOS>BOND
     1     5     4    1
     2     3     2    2
     3     4     2    1
     4     2     1    1
     5     1     6    1
     6     6     7    1
     7     7     9    2
     8     7     8    1
     9     9    11    1
    10     8    10    2
    11    11    12    2
    12    10    12    1
