@<TRIPOS>MOLECULE
/home/cewinharhar/GITHUB/reincatalyze/data/processed/docking_pred/2023-Apr-25-2033_maxeplen5_maxtrainstep200_exh16_gamma099_lrac3e-4_lrcr1e-3/a7c8c9f10e55c2841f25afbe7e611a3f864293db_ligand_2.pdbqt
 12 12 0 0 0
SMALL
GASTEIGER

@<TRIPOS>ATOM
      1  C          4.9780    1.8070    0.6660 C.3     1  UNL1        0.1270
      2  C          4.4710    1.1400    1.8940 C.2     1  UNL1        0.3030
      3  O          5.1720    0.2570    2.4440 O.2     1  UNL1       -0.2520
      4  O          3.2410    1.4580    2.4640 O.3     1  UNL1       -0.4810
      5  H          3.1310    1.5910    3.4810 H       1  UNL1        0.2960
      6  C          6.4790    1.8320    0.7510 C.3     1  UNL1        0.0470
      7  C          7.1220    1.0640   -0.3470 C.2     1  UNL1       -0.0470
      8  C          8.4610    1.2270   -0.6450 C.2     1  UNL1        0.0040
      9  C          6.4210    0.1560   -1.1180 C.2     1  UNL1        0.0040
     10  C          9.0490    0.5080   -1.6690 C.2     1  UNL1        0.0000
     11  C          7.0040   -0.5620   -2.1380 C.2     1  UNL1        0.0000
     12  C          8.3420   -0.3970   -2.4340 C.2     1  UNL1        0.0000
@<TRIPOS>BOND
     1    12    11    2
     2    12    10    1
     3    11     9    1
     4    10     8    2
     5     9     7    2
     6     8     7    1
     7     7     6    1
     8     1     6    1
     9     1     2    1
    10     2     3    2
    11     2     4    1
    12     4     5    1
