MODEL 1
REMARK VINA RESULT:      -7.3      0.000      0.000
REMARK SMILES O=C(O)CCc1ccccc1
REMARK SMILES IDX 4 1 2 2 1 3 3 4 5 6 6 7 7 8 11 9 8 10 10 11 9 12
REMARK H PARENT 3 5
REMARK Flexibility Score: inf
ROOT
ATOM      1  C   UNL     1       8.456  -0.652  -2.112  1.00  0.00     0.127 C 
ENDROOT
BRANCH   1   2
ATOM      2  C   UNL     1       8.461  -1.918  -2.889  1.00  0.00     0.303 C 
ATOM      3  O   UNL     1       9.549  -2.513  -3.084  1.00  0.00    -0.252 OA
BRANCH   2   4
ATOM      4  O   UNL     1       7.299  -2.478  -3.415  1.00  0.00    -0.481 OA
ATOM      5  H   UNL     1       6.374  -2.045  -3.270  1.00  0.00     0.296 HD
ENDBRANCH   2   4
ENDBRANCH   1   2
BRANCH   1   6
ATOM      6  C   UNL     1       7.053  -0.113  -2.134  1.00  0.00     0.047 C 
BRANCH   6   7
ATOM      7  C   UNL     1       6.485   0.050  -0.770  1.00  0.00    -0.047 A 
ATOM      8  C   UNL     1       5.839   1.213  -0.398  1.00  0.00     0.004 A 
ATOM      9  C   UNL     1       6.572  -0.944   0.186  1.00  0.00     0.004 A 
ATOM     10  C   UNL     1       5.315   1.354   0.873  1.00  0.00     0.000 A 
ATOM     11  C   UNL     1       6.050  -0.807   1.453  1.00  0.00     0.000 A 
ATOM     12  C   UNL     1       5.406   0.357   1.822  1.00  0.00     0.000 A 
ENDBRANCH   6   7
ENDBRANCH   1   6
TORSDOF 4
ENDMDL
MODEL 2
REMARK VINA RESULT:      -7.2      0.091      1.718
REMARK SMILES O=C(O)CCc1ccccc1
REMARK SMILES IDX 4 1 2 2 1 3 3 4 5 6 6 7 7 8 11 9 8 10 10 11 9 12
REMARK H PARENT 3 5
REMARK Flexibility Score: inf
ROOT
ATOM      1  C   UNL     1       8.415  -0.607  -2.162  1.00  0.00     0.127 C 
ENDROOT
BRANCH   1   2
ATOM      2  C   UNL     1       8.401  -1.898  -2.897  1.00  0.00     0.303 C 
ATOM      3  O   UNL     1       7.302  -2.397  -3.238  1.00  0.00    -0.252 OA
BRANCH   2   4
ATOM      4  O   UNL     1       9.568  -2.583  -3.228  1.00  0.00    -0.481 OA
ATOM      5  H   UNL     1       9.591  -3.287  -3.981  1.00  0.00     0.296 HD
ENDBRANCH   2   4
ENDBRANCH   1   2
BRANCH   1   6
ATOM      6  C   UNL     1       7.007  -0.079  -2.149  1.00  0.00     0.047 C 
BRANCH   6   7
ATOM      7  C   UNL     1       6.465   0.060  -0.771  1.00  0.00    -0.047 A 
ATOM      8  C   UNL     1       6.604  -0.953   0.158  1.00  0.00     0.004 A 
ATOM      9  C   UNL     1       5.803   1.199  -0.353  1.00  0.00     0.004 A 
ATOM     10  C   UNL     1       6.097  -0.814   1.436  1.00  0.00     0.000 A 
ATOM     11  C   UNL     1       5.297   1.340   0.920  1.00  0.00     0.000 A 
ATOM     12  C   UNL     1       5.437   0.326   1.846  1.00  0.00     0.000 A 
ENDBRANCH   6   7
ENDBRANCH   1   6
TORSDOF 4
ENDMDL
MODEL 3
REMARK VINA RESULT:      -6.9      1.005      1.923
REMARK SMILES O=C(O)CCc1ccccc1
REMARK SMILES IDX 4 1 2 2 1 3 3 4 5 6 6 7 7 8 11 9 8 10 10 11 9 12
REMARK H PARENT 3 5
REMARK Flexibility Score: inf
ROOT
ATOM      1  C   UNL     1       7.376  -1.597  -1.974  1.00  0.00     0.127 C 
ENDROOT
BRANCH   1   2
ATOM      2  C   UNL     1       8.764  -1.481  -2.490  1.00  0.00     0.303 C 
ATOM      3  O   UNL     1       9.471  -0.507  -2.133  1.00  0.00    -0.252 OA
BRANCH   2   4
ATOM      4  O   UNL     1       9.319  -2.417  -3.358  1.00  0.00    -0.481 OA
ATOM      5  H   UNL     1      10.016  -2.152  -4.071  1.00  0.00     0.296 HD
ENDBRANCH   2   4
ENDBRANCH   1   2
BRANCH   1   6
ATOM      6  C   UNL     1       7.434  -1.442  -0.479  1.00  0.00     0.047 C 
BRANCH   6   7
ATOM      7  C   UNL     1       6.566  -0.340   0.012  1.00  0.00    -0.047 A 
ATOM      8  C   UNL     1       6.033  -0.363   1.286  1.00  0.00     0.004 A 
ATOM      9  C   UNL     1       6.251   0.753  -0.773  1.00  0.00     0.004 A 
ATOM     10  C   UNL     1       5.227   0.668   1.733  1.00  0.00     0.000 A 
ATOM     11  C   UNL     1       5.448   1.781  -0.330  1.00  0.00     0.000 A 
ATOM     12  C   UNL     1       4.917   1.756   0.943  1.00  0.00     0.000 A 
ENDBRANCH   6   7
ENDBRANCH   1   6
TORSDOF 4
ENDMDL
MODEL 4
REMARK VINA RESULT:      -6.8      3.379      5.082
REMARK SMILES O=C(O)CCc1ccccc1
REMARK SMILES IDX 4 1 2 2 1 3 3 4 5 6 6 7 7 8 11 9 8 10 10 11 9 12
REMARK H PARENT 3 5
REMARK Flexibility Score: inf
ROOT
ATOM      1  C   UNL     1       4.978   1.807   0.666  1.00  0.00     0.127 C 
ENDROOT
BRANCH   1   2
ATOM      2  C   UNL     1       4.471   1.140   1.894  1.00  0.00     0.303 C 
ATOM      3  O   UNL     1       5.172   0.257   2.444  1.00  0.00    -0.252 OA
BRANCH   2   4
ATOM      4  O   UNL     1       3.241   1.458   2.464  1.00  0.00    -0.481 OA
ATOM      5  H   UNL     1       3.131   1.591   3.481  1.00  0.00     0.296 HD
ENDBRANCH   2   4
ENDBRANCH   1   2
BRANCH   1   6
ATOM      6  C   UNL     1       6.479   1.832   0.751  1.00  0.00     0.047 C 
BRANCH   6   7
ATOM      7  C   UNL     1       7.122   1.064  -0.347  1.00  0.00    -0.047 A 
ATOM      8  C   UNL     1       8.461   1.227  -0.645  1.00  0.00     0.004 A 
ATOM      9  C   UNL     1       6.421   0.156  -1.118  1.00  0.00     0.004 A 
ATOM     10  C   UNL     1       9.049   0.508  -1.669  1.00  0.00     0.000 A 
ATOM     11  C   UNL     1       7.004  -0.562  -2.138  1.00  0.00     0.000 A 
ATOM     12  C   UNL     1       8.342  -0.397  -2.434  1.00  0.00     0.000 A 
ENDBRANCH   6   7
ENDBRANCH   1   6
TORSDOF 4
ENDMDL
MODEL 5
REMARK VINA RESULT:      -6.6      3.812      4.946
REMARK SMILES O=C(O)CCc1ccccc1
REMARK SMILES IDX 4 1 2 2 1 3 3 4 5 6 6 7 7 8 11 9 8 10 10 11 9 12
REMARK H PARENT 3 5
REMARK Flexibility Score: inf
ROOT
ATOM      1  C   UNL     1       5.402   2.912   0.006  1.00  0.00     0.127 C 
ENDROOT
BRANCH   1   2
ATOM      2  C   UNL     1       6.205   3.875   0.804  1.00  0.00     0.303 C 
ATOM      3  O   UNL     1       6.847   4.775   0.211  1.00  0.00    -0.252 OA
BRANCH   2   4
ATOM      4  O   UNL     1       6.273   3.820   2.193  1.00  0.00    -0.481 OA
ATOM      5  H   UNL     1       5.966   2.988   2.721  1.00  0.00     0.296 HD
ENDBRANCH   2   4
ENDBRANCH   1   2
BRANCH   1   6
ATOM      6  C   UNL     1       4.899   1.852   0.947  1.00  0.00     0.047 C 
BRANCH   6   7
ATOM      7  C   UNL     1       5.724   0.616   0.903  1.00  0.00    -0.047 A 
ATOM      8  C   UNL     1       6.439   0.273  -0.228  1.00  0.00     0.004 A 
ATOM      9  C   UNL     1       5.817  -0.244   1.981  1.00  0.00     0.004 A 
ATOM     10  C   UNL     1       7.202  -0.878  -0.258  1.00  0.00     0.000 A 
ATOM     11  C   UNL     1       6.577  -1.392   1.953  1.00  0.00     0.000 A 
ATOM     12  C   UNL     1       7.290  -1.733   0.821  1.00  0.00     0.000 A 
ENDBRANCH   6   7
ENDBRANCH   1   6
TORSDOF 4
ENDMDL
