@<TRIPOS>MOLECULE
/home/cewinharhar/GITHUB/reincatalyze/data/processed/docking_pred/2023-Apr-25-2033_maxeplen5_maxtrainstep200_exh16_gamma099_lrac3e-4_lrcr1e-3/a7c8c9f10e55c2841f25afbe7e611a3f864293db_ligand_2.pdbqt
 12 12 0 0 0
SMALL
GASTEIGER

@<TRIPOS>ATOM
      1  C          7.3760   -1.5970   -1.9740 C.3     1  UNL1        0.1270
      2  C          8.7640   -1.4810   -2.4900 C.2     1  UNL1        0.3030
      3  O          9.4710   -0.5070   -2.1330 O.2     1  UNL1       -0.2520
      4  O          9.3190   -2.4170   -3.3580 O.3     1  UNL1       -0.4810
      5  H         10.0160   -2.1520   -4.0710 H       1  UNL1        0.2960
      6  C          7.4340   -1.4420   -0.4790 C.3     1  UNL1        0.0470
      7  C          6.5660   -0.3400    0.0120 C.2     1  UNL1       -0.0470
      8  C          6.0330   -0.3630    1.2860 C.2     1  UNL1        0.0040
      9  C          6.2510    0.7530   -0.7730 C.2     1  UNL1        0.0040
     10  C          5.2270    0.6680    1.7330 C.2     1  UNL1        0.0000
     11  C          5.4480    1.7810   -0.3300 C.2     1  UNL1        0.0000
     12  C          4.9170    1.7560    0.9430 C.2     1  UNL1        0.0000
@<TRIPOS>BOND
     1     5     4    1
     2     4     2    1
     3     2     3    2
     4     2     1    1
     5     1     6    1
     6     9    11    1
     7     9     7    2
     8     6     7    1
     9    11    12    2
    10     7     8    1
    11    12    10    1
    12     8    10    2
