@<TRIPOS>MOLECULE
/home/cewinharhar/GITHUB/reincatalyze/data/processed/docking_pred/2023-Apr-25-2033_maxeplen5_maxtrainstep200_exh16_gamma099_lrac3e-4_lrcr1e-3/a7c8c9f10e55c2841f25afbe7e611a3f864293db_ligand_2.pdbqt
 12 12 0 0 0
SMALL
GASTEIGER

@<TRIPOS>ATOM
      1  C          8.4560   -0.6520   -2.1120 C.3     1  UNL1        0.1270
      2  C          8.4610   -1.9180   -2.8890 C.2     1  UNL1        0.3030
      3  O          9.5490   -2.5130   -3.0840 O.2     1  UNL1       -0.2520
      4  O          7.2990   -2.4780   -3.4150 O.3     1  UNL1       -0.4810
      5  H          6.3740   -2.0450   -3.2700 H       1  UNL1        0.2960
      6  C          7.0530   -0.1130   -2.1340 C.3     1  UNL1        0.0470
      7  C          6.4850    0.0500   -0.7700 C.2     1  UNL1       -0.0470
      8  C          5.8390    1.2130   -0.3980 C.2     1  UNL1        0.0040
      9  C          6.5720   -0.9440    0.1860 C.2     1  UNL1        0.0040
     10  C          5.3150    1.3540    0.8730 C.2     1  UNL1        0.0000
     11  C          6.0500   -0.8070    1.4530 C.2     1  UNL1        0.0000
     12  C          5.4060    0.3570    1.8220 C.2     1  UNL1        0.0000
@<TRIPOS>BOND
     1     4     5    1
     2     4     2    1
     3     3     2    2
     4     2     1    1
     5     6     1    1
     6     6     7    1
     7     7     8    2
     8     7     9    1
     9     8    10    1
    10     9    11    2
    11    10    12    2
    12    11    12    1
