@<TRIPOS>MOLECULE
/home/cewinharhar/GITHUB/reincatalyze/data/processed/docking_pred/2023-Apr-25-2033_maxeplen5_maxtrainstep200_exh16_gamma099_lrac3e-4_lrcr1e-3/a7c8c9f10e55c2841f25afbe7e611a3f864293db_ligand_2.pdbqt
 12 12 0 0 0
SMALL
GASTEIGER

@<TRIPOS>ATOM
      1  C          5.4020    2.9120    0.0060 C.3     1  UNL1        0.1270
      2  C          6.2050    3.8750    0.8040 C.2     1  UNL1        0.3030
      3  O          6.8470    4.7750    0.2110 O.2     1  UNL1       -0.2520
      4  O          6.2730    3.8200    2.1930 O.3     1  UNL1       -0.4810
      5  H          5.9660    2.9880    2.7210 H       1  UNL1        0.2960
      6  C          4.8990    1.8520    0.9470 C.3     1  UNL1        0.0470
      7  C          5.7240    0.6160    0.9030 C.2     1  UNL1       -0.0470
      8  C          6.4390    0.2730   -0.2280 C.2     1  UNL1        0.0040
      9  C          5.8170   -0.2440    1.9810 C.2     1  UNL1        0.0040
     10  C          7.2020   -0.8780   -0.2580 C.2     1  UNL1        0.0000
     11  C          6.5770   -1.3920    1.9530 C.2     1  UNL1        0.0000
     12  C          7.2900   -1.7330    0.8210 C.2     1  UNL1        0.0000
@<TRIPOS>BOND
     1    10     8    1
     2    10    12    2
     3     8     7    2
     4     1     2    1
     5     1     6    1
     6     3     2    2
     7     2     4    1
     8    12    11    1
     9     7     6    1
    10     7     9    1
    11    11     9    2
    12     4     5    1
