@<TRIPOS>MOLECULE
/home/cewinharhar/GITHUB/reincatalyze/data/processed/docking_pred/2023-Apr-25-2033_maxeplen5_maxtrainstep200_exh16_gamma099_lrac3e-4_lrcr1e-3/a9d08a951453574d65a810177cdd831b7fbb923c_ligand_2.pdbqt
 12 12 0 0 0
SMALL
GASTEIGER

@<TRIPOS>ATOM
      1  C          8.4510   -0.5540   -2.2290 C.3     1  UNL1        0.1270
      2  C          8.4690   -1.8660   -2.9270 C.2     1  UNL1        0.3030
      3  O          9.5600   -2.4690   -3.0690 O.2     1  UNL1       -0.2520
      4  O          7.3150   -2.4580   -3.4340 O.3     1  UNL1       -0.4810
      5  H          7.3530   -3.2820   -4.0530 H       1  UNL1        0.2960
      6  C          7.0270   -0.0740   -2.2040 C.3     1  UNL1        0.0470
      7  C          6.4970    0.0580   -0.8210 C.2     1  UNL1       -0.0470
      8  C          5.8620    1.2120   -0.4050 C.2     1  UNL1        0.0040
      9  C          6.6100   -0.9580    0.1090 C.2     1  UNL1        0.0040
     10  C          5.3730    1.3240    0.8830 C.2     1  UNL1        0.0000
     11  C          6.1230   -0.8490    1.3930 C.2     1  UNL1        0.0000
     12  C          5.4900    0.3050    1.8060 C.2     1  UNL1        0.0000
@<TRIPOS>BOND
     1     5     4    1
     2     4     2    1
     3     3     2    2
     4     2     1    1
     5     1     6    1
     6     6     7    1
     7     7     8    2
     8     7     9    1
     9     8    10    1
    10     9    11    2
    11    10    12    2
    12    11    12    1
