@<TRIPOS>MOLECULE
/home/cewinharhar/GITHUB/reincatalyze/data/processed/docking_pred/2023-Apr-25-2033_maxeplen5_maxtrainstep200_exh16_gamma099_lrac3e-4_lrcr1e-3/a9d08a951453574d65a810177cdd831b7fbb923c_ligand_2.pdbqt
 12 12 0 0 0
SMALL
GASTEIGER

@<TRIPOS>ATOM
      1  C          7.9800   -2.3210    0.8420 C.3     1  UNL1        0.1270
      2  C          8.8130   -3.4380    0.3250 C.2     1  UNL1        0.3030
      3  O          8.7000   -3.7800   -0.8770 O.2     1  UNL1       -0.2520
      4  O          9.7200   -4.1270    1.1260 O.3     1  UNL1       -0.4810
      5  H         10.4900   -3.6450    1.6140 H       1  UNL1        0.2960
      6  C          7.5010   -1.5280   -0.3420 C.3     1  UNL1        0.0470
      7  C          6.6280   -0.3910    0.0510 C.2     1  UNL1       -0.0470
      8  C          6.0750   -0.3180    1.3150 C.2     1  UNL1        0.0040
      9  C          6.3310    0.6430   -0.8170 C.2     1  UNL1        0.0040
     10  C          5.2650    0.7440    1.6700 C.2     1  UNL1        0.0000
     11  C          5.5240    1.7020   -0.4650 C.2     1  UNL1        0.0000
     12  C          4.9710    1.7720    0.7980 C.2     1  UNL1        0.0000
@<TRIPOS>BOND
     1     3     2    2
     2     9    11    1
     3     9     7    2
     4    11    12    2
     5     6     7    1
     6     6     1    1
     7     7     8    1
     8     2     1    1
     9     2     4    1
    10    12    10    1
    11     4     5    1
    12     8    10    2
