@<TRIPOS>MOLECULE
/home/cewinharhar/GITHUB/reincatalyze/data/processed/docking_pred/2023-Apr-25-2033_maxeplen5_maxtrainstep200_exh16_gamma099_lrac3e-4_lrcr1e-3/a9d08a951453574d65a810177cdd831b7fbb923c_ligand_2.pdbqt
 12 12 0 0 0
SMALL
GASTEIGER

@<TRIPOS>ATOM
      1  C          8.4760   -0.6180   -2.1670 C.3     1  UNL1        0.1270
      2  C          8.4780   -1.9020   -2.9160 C.2     1  UNL1        0.3030
      3  O          9.5620   -2.5090   -3.0870 O.2     1  UNL1       -0.2520
      4  O          7.3160   -2.4630   -3.4390 O.3     1  UNL1       -0.4810
      5  H          7.0980   -2.4230   -4.4460 H       1  UNL1        0.2960
      6  C          7.0690   -0.0860   -2.1840 C.3     1  UNL1        0.0470
      7  C          6.5030    0.0660   -0.8190 C.2     1  UNL1       -0.0470
      8  C          6.6070   -0.9470    0.1160 C.2     1  UNL1        0.0040
      9  C          5.8510    1.2170   -0.4170 C.2     1  UNL1        0.0040
     10  C          6.0760   -0.7950    1.3830 C.2     1  UNL1        0.0000
     11  C          5.3220    1.3700    0.8450 C.2     1  UNL1        0.0000
     12  C          5.4260    0.3570    1.7770 C.2     1  UNL1        0.0000
@<TRIPOS>BOND
     1     5     4    1
     2     4     2    1
     3     3     2    2
     4     2     1    1
     5     6     1    1
     6     6     7    1
     7     7     9    2
     8     7     8    1
     9     9    11    1
    10     8    10    2
    11    11    12    2
    12    10    12    1
