@<TRIPOS>MOLECULE
/home/cewinharhar/GITHUB/reincatalyze/data/processed/docking_pred/2023-Apr-25-2033_maxeplen5_maxtrainstep200_exh16_gamma099_lrac3e-4_lrcr1e-3/a9d08a951453574d65a810177cdd831b7fbb923c_ligand_2.pdbqt
 12 12 0 0 0
SMALL
GASTEIGER

@<TRIPOS>ATOM
      1  C          5.0110    1.7800    0.7100 C.3     1  UNL1        0.1270
      2  C          4.4720    1.1120    1.9240 C.2     1  UNL1        0.3030
      3  O          5.1470    0.2110    2.4770 O.2     1  UNL1       -0.2520
      4  O          3.2390    1.4490    2.4770 O.3     1  UNL1       -0.4810
      5  H          2.6340    0.7450    2.9270 H       1  UNL1        0.2960
      6  C          6.5110    1.7520    0.8070 C.3     1  UNL1        0.0470
      7  C          7.1370    0.9940   -0.3080 C.2     1  UNL1       -0.0470
      8  C          8.4530    1.2100   -0.6690 C.2     1  UNL1        0.0040
      9  C          6.4420    0.0450   -1.0340 C.2     1  UNL1        0.0040
     10  C          9.0260    0.5000   -1.7070 C.2     1  UNL1        0.0000
     11  C          7.0110   -0.6640   -2.0690 C.2     1  UNL1        0.0000
     12  C          8.3260   -0.4460   -2.4270 C.2     1  UNL1        0.0000
@<TRIPOS>BOND
     1    12    11    2
     2    12    10    1
     3    11     9    1
     4    10     8    2
     5     9     7    2
     6     8     7    1
     7     7     6    1
     8     1     6    1
     9     1     2    1
    10     2     3    2
    11     2     4    1
    12     4     5    1
