@<TRIPOS>MOLECULE
/home/cewinharhar/GITHUB/reincatalyze/data/processed/docking_pred/2023-Apr-25-2033_maxeplen5_maxtrainstep200_exh16_gamma099_lrac3e-4_lrcr1e-3/a9d08a951453574d65a810177cdd831b7fbb923c_ligand_2.pdbqt
 12 12 0 0 0
SMALL
GASTEIGER

@<TRIPOS>ATOM
      1  C          5.4630    2.9740    0.0480 C.3     1  UNL1        0.1270
      2  C          6.2980    3.8750    0.8840 C.2     1  UNL1        0.3030
      3  O          6.9730    4.7750    0.3280 O.2     1  UNL1       -0.2520
      4  O          6.3630    3.7610    2.2700 O.3     1  UNL1       -0.4810
      5  H          5.5180    3.8040    2.8600 H       1  UNL1        0.2960
      6  C          4.9260    1.8930    0.9450 C.3     1  UNL1        0.0470
      7  C          5.7610    0.6640    0.9170 C.2     1  UNL1       -0.0470
      8  C          6.5280    0.3450   -0.1880 C.2     1  UNL1        0.0040
      9  C          5.8150   -0.2130    1.9840 C.2     1  UNL1        0.0040
     10  C          7.3010   -0.8000   -0.2030 C.2     1  UNL1        0.0000
     11  C          6.5850   -1.3550    1.9700 C.2     1  UNL1        0.0000
     12  C          7.3490   -1.6710    0.8650 C.2     1  UNL1        0.0000
@<TRIPOS>BOND
     1    10     8    1
     2    10    12    2
     3     8     7    2
     4     1     2    1
     5     1     6    1
     6     3     2    2
     7    12    11    1
     8     2     4    1
     9     7     6    1
    10     7     9    1
    11    11     9    2
    12     4     5    1
