@<TRIPOS>MOLECULE
/home/cewinharhar/GITHUB/reincatalyze/data/processed/docking_pred/2023-Apr-25-2033_maxeplen5_maxtrainstep200_exh16_gamma099_lrac3e-4_lrcr1e-3/ab317eb7565d030be4138c7249420e244018cf00_ligand_2.pdbqt
 12 12 0 0 0
SMALL
GASTEIGER

@<TRIPOS>ATOM
      1  C          4.9820    1.7890    0.6950 C.3     1  UNL1        0.1270
      2  C          4.4620    1.1250    1.9180 C.2     1  UNL1        0.3030
      3  O          5.1510    0.2340    2.4710 O.2     1  UNL1       -0.2520
      4  O          3.2310    1.4530    2.4810 O.3     1  UNL1       -0.4810
      5  H          2.4300    1.7490    1.9030 H       1  UNL1        0.2960
      6  C          6.4820    1.8020    0.7900 C.3     1  UNL1        0.0470
      7  C          7.1280    1.0510   -0.3180 C.2     1  UNL1       -0.0470
      8  C          6.4140    0.1480   -1.0810 C.2     1  UNL1        0.0040
      9  C          8.4630    1.2170   -0.6390 C.2     1  UNL1        0.0040
     10  C          7.0250   -0.5450   -2.1090 C.2     1  UNL1        0.0000
     11  C          9.0730    0.5280   -1.6630 C.2     1  UNL1        0.0000
     12  C          8.3570   -0.3750   -2.4240 C.2     1  UNL1        0.0000
@<TRIPOS>BOND
     1    12    10    2
     2    12    11    1
     3    10     8    1
     4    11     9    2
     5     8     7    2
     6     9     7    1
     7     7     6    1
     8     1     6    1
     9     1     2    1
    10     5     4    1
    11     2     3    2
    12     2     4    1
