MODEL 1
REMARK VINA RESULT:      -7.3      0.000      0.000
REMARK SMILES O=C(O)CCc1ccccc1
REMARK SMILES IDX 4 1 2 2 1 3 3 4 5 6 6 7 7 8 11 9 8 10 10 11 9 12
REMARK H PARENT 3 5
REMARK Flexibility Score: inf
ROOT
ATOM      1  C   UNL     1       8.458  -0.706  -2.004  1.00  0.00     0.127 C 
ENDROOT
BRANCH   1   2
ATOM      2  C   UNL     1       8.424  -1.924  -2.855  1.00  0.00     0.303 C 
ATOM      3  O   UNL     1       7.315  -2.401  -3.197  1.00  0.00    -0.252 OA
BRANCH   2   4
ATOM      4  O   UNL     1       9.581  -2.561  -3.294  1.00  0.00    -0.481 OA
ATOM      5  H   UNL     1      10.265  -2.089  -3.905  1.00  0.00     0.296 HD
ENDBRANCH   2   4
ENDBRANCH   1   2
BRANCH   1   6
ATOM      6  C   UNL     1       7.100  -0.065  -2.077  1.00  0.00     0.047 C 
BRANCH   6   7
ATOM      7  C   UNL     1       6.484   0.114  -0.736  1.00  0.00    -0.047 A 
ATOM      8  C   UNL     1       5.798   1.268  -0.412  1.00  0.00     0.004 A 
ATOM      9  C   UNL     1       6.563  -0.857   0.245  1.00  0.00     0.004 A 
ATOM     10  C   UNL     1       5.229   1.423   0.838  1.00  0.00     0.000 A 
ATOM     11  C   UNL     1       5.996  -0.705   1.491  1.00  0.00     0.000 A 
ATOM     12  C   UNL     1       5.312   0.450   1.812  1.00  0.00     0.000 A 
ENDBRANCH   6   7
ENDBRANCH   1   6
TORSDOF 4
ENDMDL
MODEL 2
REMARK VINA RESULT:      -7.2      0.118      1.423
REMARK SMILES O=C(O)CCc1ccccc1
REMARK SMILES IDX 4 1 2 2 1 3 3 4 5 6 6 7 7 8 11 9 8 10 10 11 9 12
REMARK H PARENT 3 5
REMARK Flexibility Score: inf
ROOT
ATOM      1  C   UNL     1       8.434  -0.574  -2.183  1.00  0.00     0.127 C 
ENDROOT
BRANCH   1   2
ATOM      2  C   UNL     1       8.437  -1.878  -2.895  1.00  0.00     0.303 C 
ATOM      3  O   UNL     1       7.343  -2.415  -3.194  1.00  0.00    -0.252 OA
BRANCH   2   4
ATOM      4  O   UNL     1       9.613  -2.534  -3.248  1.00  0.00    -0.481 OA
ATOM      5  H   UNL     1       9.993  -2.493  -4.206  1.00  0.00     0.296 HD
ENDBRANCH   2   4
ENDBRANCH   1   2
BRANCH   1   6
ATOM      6  C   UNL     1       7.019  -0.064  -2.177  1.00  0.00     0.047 C 
BRANCH   6   7
ATOM      7  C   UNL     1       6.478   0.092  -0.801  1.00  0.00    -0.047 A 
ATOM      8  C   UNL     1       6.596  -0.919   0.133  1.00  0.00     0.004 A 
ATOM      9  C   UNL     1       5.836   1.245  -0.390  1.00  0.00     0.004 A 
ATOM     10  C   UNL     1       6.089  -0.763   1.409  1.00  0.00     0.000 A 
ATOM     11  C   UNL     1       5.330   1.402   0.881  1.00  0.00     0.000 A 
ATOM     12  C   UNL     1       5.449   0.390   1.812  1.00  0.00     0.000 A 
ENDBRANCH   6   7
ENDBRANCH   1   6
TORSDOF 4
ENDMDL
MODEL 3
REMARK VINA RESULT:      -7.1      0.611      1.052
REMARK SMILES O=C(O)CCc1ccccc1
REMARK SMILES IDX 4 1 2 2 1 3 3 4 5 6 6 7 7 8 11 9 8 10 10 11 9 12
REMARK H PARENT 3 5
REMARK Flexibility Score: inf
ROOT
ATOM      1  C   UNL     1       8.320  -0.810  -1.937  1.00  0.00     0.127 C 
ENDROOT
BRANCH   1   2
ATOM      2  C   UNL     1       8.369  -1.974  -2.860  1.00  0.00     0.303 C 
ATOM      3  O   UNL     1       7.297  -2.435  -3.321  1.00  0.00    -0.252 OA
BRANCH   2   4
ATOM      4  O   UNL     1       9.565  -2.579  -3.237  1.00  0.00    -0.481 OA
ATOM      5  H   UNL     1       9.810  -3.535  -2.935  1.00  0.00     0.296 HD
ENDBRANCH   2   4
ENDBRANCH   1   2
BRANCH   1   6
ATOM      6  C   UNL     1       7.679  -1.273  -0.658  1.00  0.00     0.047 C 
BRANCH   6   7
ATOM      7  C   UNL     1       6.736  -0.268  -0.101  1.00  0.00    -0.047 A 
ATOM      8  C   UNL     1       6.328   0.821  -0.846  1.00  0.00     0.004 A 
ATOM      9  C   UNL     1       6.222  -0.372   1.179  1.00  0.00     0.004 A 
ATOM     10  C   UNL     1       5.451   1.749  -0.317  1.00  0.00     0.000 A 
ATOM     11  C   UNL     1       5.348   0.551   1.707  1.00  0.00     0.000 A 
ATOM     12  C   UNL     1       4.943   1.639   0.961  1.00  0.00     0.000 A 
ENDBRANCH   6   7
ENDBRANCH   1   6
TORSDOF 4
ENDMDL
MODEL 4
REMARK VINA RESULT:      -6.8      3.302      5.186
REMARK SMILES O=C(O)CCc1ccccc1
REMARK SMILES IDX 4 1 2 2 1 3 3 4 5 6 6 7 7 8 11 9 8 10 10 11 9 12
REMARK H PARENT 3 5
REMARK Flexibility Score: inf
ROOT
ATOM      1  C   UNL     1       4.982   1.789   0.695  1.00  0.00     0.127 C 
ENDROOT
BRANCH   1   2
ATOM      2  C   UNL     1       4.462   1.125   1.918  1.00  0.00     0.303 C 
ATOM      3  O   UNL     1       5.151   0.234   2.471  1.00  0.00    -0.252 OA
BRANCH   2   4
ATOM      4  O   UNL     1       3.231   1.453   2.481  1.00  0.00    -0.481 OA
ATOM      5  H   UNL     1       2.430   1.749   1.903  1.00  0.00     0.296 HD
ENDBRANCH   2   4
ENDBRANCH   1   2
BRANCH   1   6
ATOM      6  C   UNL     1       6.482   1.802   0.790  1.00  0.00     0.047 C 
BRANCH   6   7
ATOM      7  C   UNL     1       7.128   1.051  -0.318  1.00  0.00    -0.047 A 
ATOM      8  C   UNL     1       6.414   0.148  -1.081  1.00  0.00     0.004 A 
ATOM      9  C   UNL     1       8.463   1.217  -0.639  1.00  0.00     0.004 A 
ATOM     10  C   UNL     1       7.025  -0.545  -2.109  1.00  0.00     0.000 A 
ATOM     11  C   UNL     1       9.073   0.528  -1.663  1.00  0.00     0.000 A 
ATOM     12  C   UNL     1       8.357  -0.375  -2.424  1.00  0.00     0.000 A 
ENDBRANCH   6   7
ENDBRANCH   1   6
TORSDOF 4
ENDMDL
MODEL 5
REMARK VINA RESULT:      -6.6      1.926      2.584
REMARK SMILES O=C(O)CCc1ccccc1
REMARK SMILES IDX 4 1 2 2 1 3 3 4 5 6 6 7 7 8 11 9 8 10 10 11 9 12
REMARK H PARENT 3 5
REMARK Flexibility Score: inf
ROOT
ATOM      1  C   UNL     1       8.293   0.002  -2.171  1.00  0.00     0.127 C 
ENDROOT
BRANCH   1   2
ATOM      2  C   UNL     1       9.390   0.286  -1.209  1.00  0.00     0.303 C 
ATOM      3  O   UNL     1       9.482  -0.402  -0.164  1.00  0.00    -0.252 OA
BRANCH   2   4
ATOM      4  O   UNL     1      10.328   1.293  -1.422  1.00  0.00    -0.481 OA
ATOM      5  H   UNL     1      11.323   1.171  -1.178  1.00  0.00     0.296 HD
ENDBRANCH   2   4
ENDBRANCH   1   2
BRANCH   1   6
ATOM      6  C   UNL     1       7.215  -0.733  -1.423  1.00  0.00     0.047 C 
BRANCH   6   7
ATOM      7  C   UNL     1       6.403   0.169  -0.565  1.00  0.00    -0.047 A 
ATOM      8  C   UNL     1       6.129  -0.150   0.750  1.00  0.00     0.004 A 
ATOM      9  C   UNL     1       5.888   1.363  -1.035  1.00  0.00     0.004 A 
ATOM     10  C   UNL     1       5.373   0.697   1.539  1.00  0.00     0.000 A 
ATOM     11  C   UNL     1       5.134   2.208  -0.251  1.00  0.00     0.000 A 
ATOM     12  C   UNL     1       4.861   1.886   1.063  1.00  0.00     0.000 A 
ENDBRANCH   6   7
ENDBRANCH   1   6
TORSDOF 4
ENDMDL
