@<TRIPOS>MOLECULE
/home/cewinharhar/GITHUB/reincatalyze/data/processed/docking_pred/2023-Apr-25-2033_maxeplen5_maxtrainstep200_exh16_gamma099_lrac3e-4_lrcr1e-3/ab317eb7565d030be4138c7249420e244018cf00_ligand_2.pdbqt
 12 12 0 0 0
SMALL
GASTEIGER

@<TRIPOS>ATOM
      1  C          8.3200   -0.8100   -1.9370 C.3     1  UNL1        0.1270
      2  C          8.3690   -1.9740   -2.8600 C.2     1  UNL1        0.3030
      3  O          7.2970   -2.4350   -3.3210 O.2     1  UNL1       -0.2520
      4  O          9.5650   -2.5790   -3.2370 O.3     1  UNL1       -0.4810
      5  H          9.8100   -3.5350   -2.9350 H       1  UNL1        0.2960
      6  C          7.6790   -1.2730   -0.6580 C.3     1  UNL1        0.0470
      7  C          6.7360   -0.2680   -0.1010 C.2     1  UNL1       -0.0470
      8  C          6.3280    0.8210   -0.8460 C.2     1  UNL1        0.0040
      9  C          6.2220   -0.3720    1.1790 C.2     1  UNL1        0.0040
     10  C          5.4510    1.7490   -0.3170 C.2     1  UNL1        0.0000
     11  C          5.3480    0.5510    1.7070 C.2     1  UNL1        0.0000
     12  C          4.9430    1.6390    0.9610 C.2     1  UNL1        0.0000
@<TRIPOS>BOND
     1     3     2    2
     2     4     5    1
     3     4     2    1
     4     2     1    1
     5     1     6    1
     6     8    10    1
     7     8     7    2
     8     6     7    1
     9    10    12    2
    10     7     9    1
    11    12    11    1
    12     9    11    2
