@<TRIPOS>MOLECULE
/home/cewinharhar/GITHUB/reincatalyze/data/processed/docking_pred/2023-Apr-25-2033_maxeplen5_maxtrainstep200_exh16_gamma099_lrac3e-4_lrcr1e-3/ab317eb7565d030be4138c7249420e244018cf00_ligand_2.pdbqt
 12 12 0 0 0
SMALL
GASTEIGER

@<TRIPOS>ATOM
      1  C          8.4340   -0.5740   -2.1830 C.3     1  UNL1        0.1270
      2  C          8.4370   -1.8780   -2.8950 C.2     1  UNL1        0.3030
      3  O          7.3430   -2.4150   -3.1940 O.2     1  UNL1       -0.2520
      4  O          9.6130   -2.5340   -3.2480 O.3     1  UNL1       -0.4810
      5  H          9.9930   -2.4930   -4.2060 H       1  UNL1        0.2960
      6  C          7.0190   -0.0640   -2.1770 C.3     1  UNL1        0.0470
      7  C          6.4780    0.0920   -0.8010 C.2     1  UNL1       -0.0470
      8  C          6.5960   -0.9190    0.1330 C.2     1  UNL1        0.0040
      9  C          5.8360    1.2450   -0.3900 C.2     1  UNL1        0.0040
     10  C          6.0890   -0.7630    1.4090 C.2     1  UNL1        0.0000
     11  C          5.3300    1.4020    0.8810 C.2     1  UNL1        0.0000
     12  C          5.4490    0.3900    1.8120 C.2     1  UNL1        0.0000
@<TRIPOS>BOND
     1     5     4    1
     2     4     2    1
     3     3     2    2
     4     2     1    1
     5     1     6    1
     6     6     7    1
     7     7     9    2
     8     7     8    1
     9     9    11    1
    10     8    10    2
    11    11    12    2
    12    10    12    1
