@<TRIPOS>MOLECULE
/home/cewinharhar/GITHUB/reincatalyze/data/processed/docking_pred/2023-Apr-25-2033_maxeplen5_maxtrainstep200_exh16_gamma099_lrac3e-4_lrcr1e-3/ab317eb7565d030be4138c7249420e244018cf00_ligand_2.pdbqt
 12 12 0 0 0
SMALL
GASTEIGER

@<TRIPOS>ATOM
      1  C          8.2930    0.0020   -2.1710 C.3     1  UNL1        0.1270
      2  C          9.3900    0.2860   -1.2090 C.2     1  UNL1        0.3030
      3  O          9.4820   -0.4020   -0.1640 O.2     1  UNL1       -0.2520
      4  O         10.3280    1.2930   -1.4220 O.3     1  UNL1       -0.4810
      5  H         11.3230    1.1710   -1.1780 H       1  UNL1        0.2960
      6  C          7.2150   -0.7330   -1.4230 C.3     1  UNL1        0.0470
      7  C          6.4030    0.1690   -0.5650 C.2     1  UNL1       -0.0470
      8  C          6.1290   -0.1500    0.7500 C.2     1  UNL1        0.0040
      9  C          5.8880    1.3630   -1.0350 C.2     1  UNL1        0.0040
     10  C          5.3730    0.6970    1.5390 C.2     1  UNL1        0.0000
     11  C          5.1340    2.2080   -0.2510 C.2     1  UNL1        0.0000
     12  C          4.8610    1.8860    1.0630 C.2     1  UNL1        0.0000
@<TRIPOS>BOND
     1     1     6    1
     2     1     2    1
     3     6     7    1
     4     4     2    1
     5     4     5    1
     6     2     3    2
     7     9     7    2
     8     9    11    1
     9     7     8    1
    10    11    12    2
    11     8    10    2
    12    12    10    1
