@<TRIPOS>MOLECULE
/home/cewinharhar/GITHUB/reincatalyze/data/processed/docking_pred/2023-Apr-25-2033_maxeplen5_maxtrainstep200_exh16_gamma099_lrac3e-4_lrcr1e-3/ab317eb7565d030be4138c7249420e244018cf00_ligand_2.pdbqt
 12 12 0 0 0
SMALL
GASTEIGER

@<TRIPOS>ATOM
      1  C          8.4580   -0.7060   -2.0040 C.3     1  UNL1        0.1270
      2  C          8.4240   -1.9240   -2.8550 C.2     1  UNL1        0.3030
      3  O          7.3150   -2.4010   -3.1970 O.2     1  UNL1       -0.2520
      4  O          9.5810   -2.5610   -3.2940 O.3     1  UNL1       -0.4810
      5  H         10.2650   -2.0890   -3.9050 H       1  UNL1        0.2960
      6  C          7.1000   -0.0650   -2.0770 C.3     1  UNL1        0.0470
      7  C          6.4840    0.1140   -0.7360 C.2     1  UNL1       -0.0470
      8  C          5.7980    1.2680   -0.4120 C.2     1  UNL1        0.0040
      9  C          6.5630   -0.8570    0.2450 C.2     1  UNL1        0.0040
     10  C          5.2290    1.4230    0.8380 C.2     1  UNL1        0.0000
     11  C          5.9960   -0.7050    1.4910 C.2     1  UNL1        0.0000
     12  C          5.3120    0.4500    1.8120 C.2     1  UNL1        0.0000
@<TRIPOS>BOND
     1     5     4    1
     2     4     2    1
     3     3     2    2
     4     2     1    1
     5     6     1    1
     6     6     7    1
     7     7     8    2
     8     7     9    1
     9     8    10    1
    10     9    11    2
    11    10    12    2
    12    11    12    1
