@<TRIPOS>MOLECULE
/home/cewinharhar/GITHUB/reincatalyze/data/processed/docking_pred/2023-Apr-25-2033_maxeplen5_maxtrainstep200_exh16_gamma099_lrac3e-4_lrcr1e-3/ab5903e155d5198269deee73f32ad6fb308dffee_ligand_2.pdbqt
 12 12 0 0 0
SMALL
GASTEIGER

@<TRIPOS>ATOM
      1  C          5.4500    2.8970   -0.0040 C.3     1  UNL1        0.1270
      2  C          6.2530    3.8330    0.8250 C.2     1  UNL1        0.3030
      3  O          6.8790    4.7650    0.2640 O.2     1  UNL1       -0.2520
      4  O          6.3400    3.7180    2.2100 O.3     1  UNL1       -0.4810
      5  H          7.0520    4.2290    2.7540 H       1  UNL1        0.2960
      6  C          4.8750    1.8560    0.9160 C.3     1  UNL1        0.0470
      7  C          5.6880    0.6120    0.9430 C.2     1  UNL1       -0.0470
      8  C          6.4120    0.2060   -0.1610 C.2     1  UNL1        0.0040
      9  C          5.7610   -0.1940    2.0640 C.2     1  UNL1        0.0040
     10  C          7.1640   -0.9530   -0.1250 C.2     1  UNL1        0.0000
     11  C          6.5100   -1.3490    2.1030 C.2     1  UNL1        0.0000
     12  C          7.2310   -1.7530    0.9980 C.2     1  UNL1        0.0000
@<TRIPOS>BOND
     1     8    10    1
     2     8     7    2
     3    10    12    2
     4     1     2    1
     5     1     6    1
     6     3     2    2
     7     2     4    1
     8     6     7    1
     9     7     9    1
    10    12    11    1
    11     9    11    2
    12     4     5    1
