@<TRIPOS>MOLECULE
/home/cewinharhar/GITHUB/reincatalyze/data/processed/docking_pred/2023-Apr-25-2033_maxeplen5_maxtrainstep200_exh16_gamma099_lrac3e-4_lrcr1e-3/ab5903e155d5198269deee73f32ad6fb308dffee_ligand_2.pdbqt
 12 12 0 0 0
SMALL
GASTEIGER

@<TRIPOS>ATOM
      1  C          8.2130    0.2580   -2.2910 C.3     1  UNL1        0.1270
      2  C          9.3410    0.3400   -1.3270 C.2     1  UNL1        0.3030
      3  O          9.3770   -0.4560   -0.3570 O.2     1  UNL1       -0.2520
      4  O         10.3680    1.2710   -1.4560 O.3     1  UNL1       -0.4810
      5  H         10.8200    1.7010   -0.6340 H       1  UNL1        0.2960
      6  C          7.1090   -0.5220   -1.6310 C.3     1  UNL1        0.0470
      7  C          6.3350    0.2990   -0.6630 C.2     1  UNL1       -0.0470
      8  C          5.8060    1.5230   -1.0250 C.2     1  UNL1        0.0040
      9  C          6.1050   -0.1170    0.6350 C.2     1  UNL1        0.0040
     10  C          5.0870    2.2770   -0.1170 C.2     1  UNL1        0.0000
     11  C          5.3890    0.6330    1.5420 C.2     1  UNL1        0.0000
     12  C          4.8620    1.8560    1.1770 C.2     1  UNL1        0.0000
@<TRIPOS>BOND
     1     1     6    1
     2     1     2    1
     3     6     7    1
     4     4     2    1
     5     4     5    1
     6     2     3    2
     7     8     7    2
     8     8    10    1
     9     7     9    1
    10    10    12    2
    11     9    11    2
    12    12    11    1
