@<TRIPOS>MOLECULE
/home/cewinharhar/GITHUB/reincatalyze/data/processed/docking_pred/2023-Apr-25-2033_maxeplen5_maxtrainstep200_exh16_gamma099_lrac3e-4_lrcr1e-3/ab5903e155d5198269deee73f32ad6fb308dffee_ligand_2.pdbqt
 12 12 0 0 0
SMALL
GASTEIGER

@<TRIPOS>ATOM
      1  C          8.4460   -0.6840   -2.0550 C.3     1  UNL1        0.1270
      2  C          8.4210   -1.9260   -2.8710 C.2     1  UNL1        0.3030
      3  O          7.3160   -2.4090   -3.2180 O.2     1  UNL1       -0.2520
      4  O          9.5830   -2.5800   -3.2720 O.3     1  UNL1       -0.4810
      5  H          9.8920   -3.4590   -2.8300 H       1  UNL1        0.2960
      6  C          7.0650   -0.0910   -2.0910 C.3     1  UNL1        0.0470
      7  C          6.4800    0.0680   -0.7340 C.2     1  UNL1       -0.0470
      8  C          6.5880   -0.9320    0.2130 C.2     1  UNL1        0.0040
      9  C          5.8060    1.2130   -0.3520 C.2     1  UNL1        0.0040
     10  C          6.0410   -0.7740    1.4720 C.2     1  UNL1        0.0000
     11  C          5.2600    1.3730    0.9020 C.2     1  UNL1        0.0000
     12  C          5.3690    0.3720    1.8460 C.2     1  UNL1        0.0000
@<TRIPOS>BOND
     1     4     2    1
     2     4     5    1
     3     3     2    2
     4     2     1    1
     5     6     1    1
     6     6     7    1
     7     7     9    2
     8     7     8    1
     9     9    11    1
    10     8    10    2
    11    11    12    2
    12    10    12    1
