@<TRIPOS>MOLECULE
/home/cewinharhar/GITHUB/reincatalyze/data/processed/docking_pred/2023-Apr-25-2033_maxeplen5_maxtrainstep200_exh16_gamma099_lrac3e-4_lrcr1e-3/ab5903e155d5198269deee73f32ad6fb308dffee_ligand_2.pdbqt
 12 12 0 0 0
SMALL
GASTEIGER

@<TRIPOS>ATOM
      1  C          8.4520   -0.5690   -2.2410 C.3     1  UNL1        0.1270
      2  C          8.4820   -1.8880   -2.9250 C.2     1  UNL1        0.3030
      3  O          9.5810   -2.4750   -3.0760 O.2     1  UNL1       -0.2520
      4  O          7.3320   -2.5050   -3.4100 O.3     1  UNL1       -0.4810
      5  H          6.7770   -2.0960   -4.1770 H       1  UNL1        0.2960
      6  C          7.0210   -0.1080   -2.2120 C.3     1  UNL1        0.0470
      7  C          6.4980    0.0320   -0.8270 C.2     1  UNL1       -0.0470
      8  C          5.8670    1.1890   -0.4140 C.2     1  UNL1        0.0040
      9  C          6.6150   -0.9790    0.1080 C.2     1  UNL1        0.0040
     10  C          5.3840    1.3080    0.8750 C.2     1  UNL1        0.0000
     11  C          6.1350   -0.8620    1.3940 C.2     1  UNL1        0.0000
     12  C          5.5050    0.2950    1.8040 C.2     1  UNL1        0.0000
@<TRIPOS>BOND
     1     5     4    1
     2     4     2    1
     3     3     2    2
     4     2     1    1
     5     1     6    1
     6     6     7    1
     7     7     8    2
     8     7     9    1
     9     8    10    1
    10     9    11    2
    11    10    12    2
    12    11    12    1
