MODEL 1
REMARK VINA RESULT:      -7.3      0.000      0.000
REMARK SMILES O=C(O)CCc1ccccc1
REMARK SMILES IDX 4 1 2 2 1 3 3 4 5 6 6 7 7 8 11 9 8 10 10 11 9 12
REMARK H PARENT 3 5
REMARK Flexibility Score: inf
ROOT
ATOM      1  C   UNL     1       8.452  -0.569  -2.241  1.00  0.00     0.127 C 
ENDROOT
BRANCH   1   2
ATOM      2  C   UNL     1       8.482  -1.888  -2.925  1.00  0.00     0.303 C 
ATOM      3  O   UNL     1       9.581  -2.475  -3.076  1.00  0.00    -0.252 OA
BRANCH   2   4
ATOM      4  O   UNL     1       7.332  -2.505  -3.410  1.00  0.00    -0.481 OA
ATOM      5  H   UNL     1       6.777  -2.096  -4.177  1.00  0.00     0.296 HD
ENDBRANCH   2   4
ENDBRANCH   1   2
BRANCH   1   6
ATOM      6  C   UNL     1       7.021  -0.108  -2.212  1.00  0.00     0.047 C 
BRANCH   6   7
ATOM      7  C   UNL     1       6.498   0.032  -0.827  1.00  0.00    -0.047 A 
ATOM      8  C   UNL     1       5.867   1.189  -0.414  1.00  0.00     0.004 A 
ATOM      9  C   UNL     1       6.615  -0.979   0.108  1.00  0.00     0.004 A 
ATOM     10  C   UNL     1       5.384   1.308   0.875  1.00  0.00     0.000 A 
ATOM     11  C   UNL     1       6.135  -0.862   1.394  1.00  0.00     0.000 A 
ATOM     12  C   UNL     1       5.505   0.295   1.804  1.00  0.00     0.000 A 
ENDBRANCH   6   7
ENDBRANCH   1   6
TORSDOF 4
ENDMDL
MODEL 2
REMARK VINA RESULT:      -7.3      0.157      1.721
REMARK SMILES O=C(O)CCc1ccccc1
REMARK SMILES IDX 4 1 2 2 1 3 3 4 5 6 6 7 7 8 11 9 8 10 10 11 9 12
REMARK H PARENT 3 5
REMARK Flexibility Score: inf
ROOT
ATOM      1  C   UNL     1       8.446  -0.684  -2.055  1.00  0.00     0.127 C 
ENDROOT
BRANCH   1   2
ATOM      2  C   UNL     1       8.421  -1.926  -2.871  1.00  0.00     0.303 C 
ATOM      3  O   UNL     1       7.316  -2.409  -3.218  1.00  0.00    -0.252 OA
BRANCH   2   4
ATOM      4  O   UNL     1       9.583  -2.580  -3.272  1.00  0.00    -0.481 OA
ATOM      5  H   UNL     1       9.892  -3.459  -2.830  1.00  0.00     0.296 HD
ENDBRANCH   2   4
ENDBRANCH   1   2
BRANCH   1   6
ATOM      6  C   UNL     1       7.065  -0.091  -2.091  1.00  0.00     0.047 C 
BRANCH   6   7
ATOM      7  C   UNL     1       6.480   0.068  -0.734  1.00  0.00    -0.047 A 
ATOM      8  C   UNL     1       6.588  -0.932   0.213  1.00  0.00     0.004 A 
ATOM      9  C   UNL     1       5.806   1.213  -0.352  1.00  0.00     0.004 A 
ATOM     10  C   UNL     1       6.041  -0.774   1.472  1.00  0.00     0.000 A 
ATOM     11  C   UNL     1       5.260   1.373   0.902  1.00  0.00     0.000 A 
ATOM     12  C   UNL     1       5.369   0.372   1.846  1.00  0.00     0.000 A 
ENDBRANCH   6   7
ENDBRANCH   1   6
TORSDOF 4
ENDMDL
MODEL 3
REMARK VINA RESULT:      -6.8      3.396      5.101
REMARK SMILES O=C(O)CCc1ccccc1
REMARK SMILES IDX 4 1 2 2 1 3 3 4 5 6 6 7 7 8 11 9 8 10 10 11 9 12
REMARK H PARENT 3 5
REMARK Flexibility Score: inf
ROOT
ATOM      1  C   UNL     1       4.978   1.803   0.697  1.00  0.00     0.127 C 
ENDROOT
BRANCH   1   2
ATOM      2  C   UNL     1       4.468   1.131   1.920  1.00  0.00     0.303 C 
ATOM      3  O   UNL     1       5.167   0.246   2.470  1.00  0.00    -0.252 OA
BRANCH   2   4
ATOM      4  O   UNL     1       3.235   1.445   2.486  1.00  0.00    -0.481 OA
ATOM      5  H   UNL     1       3.118   1.565   3.504  1.00  0.00     0.296 HD
ENDBRANCH   2   4
ENDBRANCH   1   2
BRANCH   1   6
ATOM      6  C   UNL     1       6.479   1.826   0.786  1.00  0.00     0.047 C 
BRANCH   6   7
ATOM      7  C   UNL     1       7.125   1.067  -0.317  1.00  0.00    -0.047 A 
ATOM      8  C   UNL     1       6.407   0.172  -1.086  1.00  0.00     0.004 A 
ATOM      9  C   UNL     1       8.464   1.218  -0.627  1.00  0.00     0.004 A 
ATOM     10  C   UNL     1       7.018  -0.528  -2.109  1.00  0.00     0.000 A 
ATOM     11  C   UNL     1       9.075   0.522  -1.646  1.00  0.00     0.000 A 
ATOM     12  C   UNL     1       8.355  -0.373  -2.413  1.00  0.00     0.000 A 
ENDBRANCH   6   7
ENDBRANCH   1   6
TORSDOF 4
ENDMDL
MODEL 4
REMARK VINA RESULT:      -6.7      3.847      4.925
REMARK SMILES O=C(O)CCc1ccccc1
REMARK SMILES IDX 4 1 2 2 1 3 3 4 5 6 6 7 7 8 11 9 8 10 10 11 9 12
REMARK H PARENT 3 5
REMARK Flexibility Score: inf
ROOT
ATOM      1  C   UNL     1       5.450   2.897  -0.004  1.00  0.00     0.127 C 
ENDROOT
BRANCH   1   2
ATOM      2  C   UNL     1       6.253   3.833   0.825  1.00  0.00     0.303 C 
ATOM      3  O   UNL     1       6.879   4.765   0.264  1.00  0.00    -0.252 OA
BRANCH   2   4
ATOM      4  O   UNL     1       6.340   3.718   2.210  1.00  0.00    -0.481 OA
ATOM      5  H   UNL     1       7.052   4.229   2.754  1.00  0.00     0.296 HD
ENDBRANCH   2   4
ENDBRANCH   1   2
BRANCH   1   6
ATOM      6  C   UNL     1       4.875   1.856   0.916  1.00  0.00     0.047 C 
BRANCH   6   7
ATOM      7  C   UNL     1       5.688   0.612   0.943  1.00  0.00    -0.047 A 
ATOM      8  C   UNL     1       6.412   0.206  -0.161  1.00  0.00     0.004 A 
ATOM      9  C   UNL     1       5.761  -0.194   2.064  1.00  0.00     0.004 A 
ATOM     10  C   UNL     1       7.164  -0.953  -0.125  1.00  0.00     0.000 A 
ATOM     11  C   UNL     1       6.510  -1.349   2.103  1.00  0.00     0.000 A 
ATOM     12  C   UNL     1       7.231  -1.753   0.998  1.00  0.00     0.000 A 
ENDBRANCH   6   7
ENDBRANCH   1   6
TORSDOF 4
ENDMDL
MODEL 5
REMARK VINA RESULT:      -6.6      1.894      2.302
REMARK SMILES O=C(O)CCc1ccccc1
REMARK SMILES IDX 4 1 2 2 1 3 3 4 5 6 6 7 7 8 11 9 8 10 10 11 9 12
REMARK H PARENT 3 5
REMARK Flexibility Score: inf
ROOT
ATOM      1  C   UNL     1       8.213   0.258  -2.291  1.00  0.00     0.127 C 
ENDROOT
BRANCH   1   2
ATOM      2  C   UNL     1       9.341   0.340  -1.327  1.00  0.00     0.303 C 
ATOM      3  O   UNL     1       9.377  -0.456  -0.357  1.00  0.00    -0.252 OA
BRANCH   2   4
ATOM      4  O   UNL     1      10.368   1.271  -1.456  1.00  0.00    -0.481 OA
ATOM      5  H   UNL     1      10.820   1.701  -0.634  1.00  0.00     0.296 HD
ENDBRANCH   2   4
ENDBRANCH   1   2
BRANCH   1   6
ATOM      6  C   UNL     1       7.109  -0.522  -1.631  1.00  0.00     0.047 C 
BRANCH   6   7
ATOM      7  C   UNL     1       6.335   0.299  -0.663  1.00  0.00    -0.047 A 
ATOM      8  C   UNL     1       5.806   1.523  -1.025  1.00  0.00     0.004 A 
ATOM      9  C   UNL     1       6.105  -0.117   0.635  1.00  0.00     0.004 A 
ATOM     10  C   UNL     1       5.087   2.277  -0.117  1.00  0.00     0.000 A 
ATOM     11  C   UNL     1       5.389   0.633   1.542  1.00  0.00     0.000 A 
ATOM     12  C   UNL     1       4.862   1.856   1.177  1.00  0.00     0.000 A 
ENDBRANCH   6   7
ENDBRANCH   1   6
TORSDOF 4
ENDMDL
