@<TRIPOS>MOLECULE
/home/cewinharhar/GITHUB/reincatalyze/data/processed/docking_pred/2023-Apr-25-2033_maxeplen5_maxtrainstep200_exh16_gamma099_lrac3e-4_lrcr1e-3/ab955c776f37f5544fae82246801d9a2769dfb79_ligand_2.pdbqt
 12 12 0 0 0
SMALL
GASTEIGER

@<TRIPOS>ATOM
      1  C          8.5120   -0.6750   -2.0790 C.3     1  UNL1        0.1270
      2  C          8.4870   -1.9190   -2.8920 C.2     1  UNL1        0.3030
      3  O          9.5590   -2.5380   -3.0970 O.2     1  UNL1       -0.2520
      4  O          7.3130   -2.4300   -3.4390 O.3     1  UNL1       -0.4810
      5  H          6.4070   -2.3530   -2.9520 H       1  UNL1        0.2960
      6  C          7.1390   -0.0670   -2.1400 C.3     1  UNL1        0.0470
      7  C          6.5300    0.0970   -0.7930 C.2     1  UNL1       -0.0470
      8  C          5.8420    1.2460   -0.4540 C.2     1  UNL1        0.0040
      9  C          6.6200   -0.8820    0.1780 C.2     1  UNL1        0.0040
     10  C          5.2800    1.3880    0.8000 C.2     1  UNL1        0.0000
     11  C          6.0610   -0.7430    1.4290 C.2     1  UNL1        0.0000
     12  C          5.3740    0.4060    1.7650 C.2     1  UNL1        0.0000
@<TRIPOS>BOND
     1     4     5    1
     2     4     2    1
     3     3     2    2
     4     2     1    1
     5     6     1    1
     6     6     7    1
     7     7     8    2
     8     7     9    1
     9     8    10    1
    10     9    11    2
    11    10    12    2
    12    11    12    1
