@<TRIPOS>MOLECULE
/home/cewinharhar/GITHUB/reincatalyze/data/processed/docking_pred/2023-Apr-25-2033_maxeplen5_maxtrainstep200_exh16_gamma099_lrac3e-4_lrcr1e-3/ab955c776f37f5544fae82246801d9a2769dfb79_ligand_2.pdbqt
 12 12 0 0 0
SMALL
GASTEIGER

@<TRIPOS>ATOM
      1  C          8.2380   -1.6170    1.1580 C.3     1  UNL1        0.1270
      2  C          8.5210   -2.8220    0.3360 C.2     1  UNL1        0.3030
      3  O          9.1730   -3.7690    0.8410 O.2     1  UNL1       -0.2520
      4  O          8.0900   -2.9460   -0.9820 O.3     1  UNL1       -0.4810
      5  H          7.4110   -2.2890   -1.3970 H       1  UNL1        0.2960
      6  C          6.7460   -1.5240    1.3260 C.3     1  UNL1        0.0470
      7  C          6.1950   -0.2470    0.8010 C.2     1  UNL1       -0.0470
      8  C          5.4390    0.5880    1.6010 C.2     1  UNL1        0.0040
      9  C          6.4090    0.1660   -0.5010 C.2     1  UNL1        0.0040
     10  C          4.9320    1.7730    1.1030 C.2     1  UNL1        0.0000
     11  C          5.9040    1.3460   -0.9990 C.2     1  UNL1        0.0000
     12  C          5.1490    2.1790   -0.1980 C.2     1  UNL1        0.0000
@<TRIPOS>BOND
     1     5     4    1
     2    11     9    1
     3    11    12    2
     4     4     2    1
     5     9     7    2
     6    12    10    1
     7     2     3    2
     8     2     1    1
     9     7     6    1
    10     7     8    1
    11    10     8    2
    12     1     6    1
