@<TRIPOS>MOLECULE
/home/cewinharhar/GITHUB/reincatalyze/data/processed/docking_pred/2023-Apr-25-2033_maxeplen5_maxtrainstep200_exh16_gamma099_lrac3e-4_lrcr1e-3/ab955c776f37f5544fae82246801d9a2769dfb79_ligand_2.pdbqt
 12 12 0 0 0
SMALL
GASTEIGER

@<TRIPOS>ATOM
      1  C          5.0360    1.7700    0.7420 C.3     1  UNL1        0.1270
      2  C          4.4630    1.1020    1.9390 C.2     1  UNL1        0.3030
      3  O          5.1090    0.1800    2.4930 O.2     1  UNL1       -0.2520
      4  O          3.2280    1.4590    2.4750 O.3     1  UNL1       -0.4810
      5  H          2.3680    1.4610    1.9070 H       1  UNL1        0.2960
      6  C          6.5330    1.6800    0.8460 C.3     1  UNL1        0.0470
      7  C          7.1370    0.9350   -0.2900 C.2     1  UNL1       -0.0470
      8  C          8.4270    1.1950   -0.7110 C.2     1  UNL1        0.0040
      9  C          6.4470   -0.0470   -0.9760 C.2     1  UNL1        0.0040
     10  C          8.9790    0.4970   -1.7680 C.2     1  UNL1        0.0000
     11  C          6.9950   -0.7450   -2.0290 C.2     1  UNL1        0.0000
     12  C          8.2830   -0.4820   -2.4480 C.2     1  UNL1        0.0000
@<TRIPOS>BOND
     1    12    11    2
     2    12    10    1
     3    11     9    1
     4    10     8    2
     5     9     7    2
     6     8     7    1
     7     7     6    1
     8     1     6    1
     9     1     2    1
    10     5     4    1
    11     2     4    1
    12     2     3    2
