@<TRIPOS>MOLECULE
/home/cewinharhar/GITHUB/reincatalyze/data/processed/docking_pred/2023-Apr-25-2033_maxeplen5_maxtrainstep200_exh16_gamma099_lrac3e-4_lrcr1e-3/ab955c776f37f5544fae82246801d9a2769dfb79_ligand_2.pdbqt
 12 12 0 0 0
SMALL
GASTEIGER

@<TRIPOS>ATOM
      1  C          8.2190    0.1200   -2.2100 C.3     1  UNL1        0.1270
      2  C          9.3480    0.3290   -1.2660 C.2     1  UNL1        0.3030
      3  O          9.4360   -0.3980   -0.2470 O.2     1  UNL1       -0.2520
      4  O         10.3190    1.3060   -1.4680 O.3     1  UNL1       -0.4810
      5  H         10.8300    1.7360   -0.6820 H       1  UNL1        0.2960
      6  C          7.1500   -0.6420   -1.4760 C.3     1  UNL1        0.0470
      7  C          6.3510    0.2280   -0.5740 C.2     1  UNL1       -0.0470
      8  C          6.0800   -0.1480    0.7280 C.2     1  UNL1        0.0040
      9  C          5.8440    1.4460   -0.9860 C.2     1  UNL1        0.0040
     10  C          5.3370    0.6690    1.5580 C.2     1  UNL1        0.0000
     11  C          5.1030    2.2620   -0.1600 C.2     1  UNL1        0.0000
     12  C          4.8330    1.8840    1.1390 C.2     1  UNL1        0.0000
@<TRIPOS>BOND
     1     1     6    1
     2     1     2    1
     3     6     7    1
     4     4     2    1
     5     4     5    1
     6     2     3    2
     7     9     7    2
     8     9    11    1
     9     7     8    1
    10    11    12    2
    11     8    10    2
    12    12    10    1
