MODEL 1
REMARK VINA RESULT:      -7.3      0.000      0.000
REMARK SMILES O=C(O)CCc1ccccc1
REMARK SMILES IDX 4 1 2 2 1 3 3 4 5 6 6 7 7 8 11 9 8 10 10 11 9 12
REMARK H PARENT 3 5
REMARK Flexibility Score: inf
ROOT
ATOM      1  C   UNL     1       8.512  -0.675  -2.079  1.00  0.00     0.127 C 
ENDROOT
BRANCH   1   2
ATOM      2  C   UNL     1       8.487  -1.919  -2.892  1.00  0.00     0.303 C 
ATOM      3  O   UNL     1       9.559  -2.538  -3.097  1.00  0.00    -0.252 OA
BRANCH   2   4
ATOM      4  O   UNL     1       7.313  -2.430  -3.439  1.00  0.00    -0.481 OA
ATOM      5  H   UNL     1       6.407  -2.353  -2.952  1.00  0.00     0.296 HD
ENDBRANCH   2   4
ENDBRANCH   1   2
BRANCH   1   6
ATOM      6  C   UNL     1       7.139  -0.067  -2.140  1.00  0.00     0.047 C 
BRANCH   6   7
ATOM      7  C   UNL     1       6.530   0.097  -0.793  1.00  0.00    -0.047 A 
ATOM      8  C   UNL     1       5.842   1.246  -0.454  1.00  0.00     0.004 A 
ATOM      9  C   UNL     1       6.620  -0.882   0.178  1.00  0.00     0.004 A 
ATOM     10  C   UNL     1       5.280   1.388   0.800  1.00  0.00     0.000 A 
ATOM     11  C   UNL     1       6.061  -0.743   1.429  1.00  0.00     0.000 A 
ATOM     12  C   UNL     1       5.374   0.406   1.765  1.00  0.00     0.000 A 
ENDBRANCH   6   7
ENDBRANCH   1   6
TORSDOF 4
ENDMDL
MODEL 2
REMARK VINA RESULT:      -7.2      0.137      1.719
REMARK SMILES O=C(O)CCc1ccccc1
REMARK SMILES IDX 4 1 2 2 1 3 3 4 5 6 6 7 7 8 11 9 8 10 10 11 9 12
REMARK H PARENT 3 5
REMARK Flexibility Score: inf
ROOT
ATOM      1  C   UNL     1       8.430  -0.597  -2.166  1.00  0.00     0.127 C 
ENDROOT
BRANCH   1   2
ATOM      2  C   UNL     1       8.411  -1.891  -2.895  1.00  0.00     0.303 C 
ATOM      3  O   UNL     1       7.308  -2.403  -3.205  1.00  0.00    -0.252 OA
BRANCH   2   4
ATOM      4  O   UNL     1       9.576  -2.565  -3.252  1.00  0.00    -0.481 OA
ATOM      5  H   UNL     1      10.434  -2.509  -2.681  1.00  0.00     0.296 HD
ENDBRANCH   2   4
ENDBRANCH   1   2
BRANCH   1   6
ATOM      6  C   UNL     1       7.023  -0.065  -2.150  1.00  0.00     0.047 C 
BRANCH   6   7
ATOM      7  C   UNL     1       6.480   0.061  -0.773  1.00  0.00    -0.047 A 
ATOM      8  C   UNL     1       6.594  -0.970   0.139  1.00  0.00     0.004 A 
ATOM      9  C   UNL     1       5.839   1.206  -0.337  1.00  0.00     0.004 A 
ATOM     10  C   UNL     1       6.085  -0.842   1.417  1.00  0.00     0.000 A 
ATOM     11  C   UNL     1       5.331   1.336   0.936  1.00  0.00     0.000 A 
ATOM     12  C   UNL     1       5.446   0.304   1.845  1.00  0.00     0.000 A 
ENDBRANCH   6   7
ENDBRANCH   1   6
TORSDOF 4
ENDMDL
MODEL 3
REMARK VINA RESULT:      -6.8      3.377      5.075
REMARK SMILES O=C(O)CCc1ccccc1
REMARK SMILES IDX 4 1 2 2 1 3 3 4 5 6 6 7 7 8 11 9 8 10 10 11 9 12
REMARK H PARENT 3 5
REMARK Flexibility Score: inf
ROOT
ATOM      1  C   UNL     1       5.036   1.770   0.742  1.00  0.00     0.127 C 
ENDROOT
BRANCH   1   2
ATOM      2  C   UNL     1       4.463   1.102   1.939  1.00  0.00     0.303 C 
ATOM      3  O   UNL     1       5.109   0.180   2.493  1.00  0.00    -0.252 OA
BRANCH   2   4
ATOM      4  O   UNL     1       3.228   1.459   2.475  1.00  0.00    -0.481 OA
ATOM      5  H   UNL     1       2.368   1.461   1.907  1.00  0.00     0.296 HD
ENDBRANCH   2   4
ENDBRANCH   1   2
BRANCH   1   6
ATOM      6  C   UNL     1       6.533   1.680   0.846  1.00  0.00     0.047 C 
BRANCH   6   7
ATOM      7  C   UNL     1       7.137   0.935  -0.290  1.00  0.00    -0.047 A 
ATOM      8  C   UNL     1       8.427   1.195  -0.711  1.00  0.00     0.004 A 
ATOM      9  C   UNL     1       6.447  -0.047  -0.976  1.00  0.00     0.004 A 
ATOM     10  C   UNL     1       8.979   0.497  -1.768  1.00  0.00     0.000 A 
ATOM     11  C   UNL     1       6.995  -0.745  -2.029  1.00  0.00     0.000 A 
ATOM     12  C   UNL     1       8.283  -0.482  -2.448  1.00  0.00     0.000 A 
ENDBRANCH   6   7
ENDBRANCH   1   6
TORSDOF 4
ENDMDL
MODEL 4
REMARK VINA RESULT:      -6.6      1.926      2.643
REMARK SMILES O=C(O)CCc1ccccc1
REMARK SMILES IDX 4 1 2 2 1 3 3 4 5 6 6 7 7 8 11 9 8 10 10 11 9 12
REMARK H PARENT 3 5
REMARK Flexibility Score: inf
ROOT
ATOM      1  C   UNL     1       8.219   0.120  -2.210  1.00  0.00     0.127 C 
ENDROOT
BRANCH   1   2
ATOM      2  C   UNL     1       9.348   0.329  -1.266  1.00  0.00     0.303 C 
ATOM      3  O   UNL     1       9.436  -0.398  -0.247  1.00  0.00    -0.252 OA
BRANCH   2   4
ATOM      4  O   UNL     1      10.319   1.306  -1.468  1.00  0.00    -0.481 OA
ATOM      5  H   UNL     1      10.830   1.736  -0.682  1.00  0.00     0.296 HD
ENDBRANCH   2   4
ENDBRANCH   1   2
BRANCH   1   6
ATOM      6  C   UNL     1       7.150  -0.642  -1.476  1.00  0.00     0.047 C 
BRANCH   6   7
ATOM      7  C   UNL     1       6.351   0.228  -0.574  1.00  0.00    -0.047 A 
ATOM      8  C   UNL     1       6.080  -0.148   0.728  1.00  0.00     0.004 A 
ATOM      9  C   UNL     1       5.844   1.446  -0.986  1.00  0.00     0.004 A 
ATOM     10  C   UNL     1       5.337   0.669   1.558  1.00  0.00     0.000 A 
ATOM     11  C   UNL     1       5.103   2.262  -0.160  1.00  0.00     0.000 A 
ATOM     12  C   UNL     1       4.833   1.884   1.139  1.00  0.00     0.000 A 
ENDBRANCH   6   7
ENDBRANCH   1   6
TORSDOF 4
ENDMDL
MODEL 5
REMARK VINA RESULT:      -6.5      1.895      2.827
REMARK SMILES O=C(O)CCc1ccccc1
REMARK SMILES IDX 4 1 2 2 1 3 3 4 5 6 6 7 7 8 11 9 8 10 10 11 9 12
REMARK H PARENT 3 5
REMARK Flexibility Score: inf
ROOT
ATOM      1  C   UNL     1       8.238  -1.617   1.158  1.00  0.00     0.127 C 
ENDROOT
BRANCH   1   2
ATOM      2  C   UNL     1       8.521  -2.822   0.336  1.00  0.00     0.303 C 
ATOM      3  O   UNL     1       9.173  -3.769   0.841  1.00  0.00    -0.252 OA
BRANCH   2   4
ATOM      4  O   UNL     1       8.090  -2.946  -0.982  1.00  0.00    -0.481 OA
ATOM      5  H   UNL     1       7.411  -2.289  -1.397  1.00  0.00     0.296 HD
ENDBRANCH   2   4
ENDBRANCH   1   2
BRANCH   1   6
ATOM      6  C   UNL     1       6.746  -1.524   1.326  1.00  0.00     0.047 C 
BRANCH   6   7
ATOM      7  C   UNL     1       6.195  -0.247   0.801  1.00  0.00    -0.047 A 
ATOM      8  C   UNL     1       5.439   0.588   1.601  1.00  0.00     0.004 A 
ATOM      9  C   UNL     1       6.409   0.166  -0.501  1.00  0.00     0.004 A 
ATOM     10  C   UNL     1       4.932   1.773   1.103  1.00  0.00     0.000 A 
ATOM     11  C   UNL     1       5.904   1.346  -0.999  1.00  0.00     0.000 A 
ATOM     12  C   UNL     1       5.149   2.179  -0.198  1.00  0.00     0.000 A 
ENDBRANCH   6   7
ENDBRANCH   1   6
TORSDOF 4
ENDMDL
