@<TRIPOS>MOLECULE
/home/cewinharhar/GITHUB/reincatalyze/data/processed/docking_pred/2023-Apr-25-2033_maxeplen5_maxtrainstep200_exh16_gamma099_lrac3e-4_lrcr1e-3/ab955c776f37f5544fae82246801d9a2769dfb79_ligand_2.pdbqt
 12 12 0 0 0
SMALL
GASTEIGER

@<TRIPOS>ATOM
      1  C          8.4300   -0.5970   -2.1660 C.3     1  UNL1        0.1270
      2  C          8.4110   -1.8910   -2.8950 C.2     1  UNL1        0.3030
      3  O          7.3080   -2.4030   -3.2050 O.2     1  UNL1       -0.2520
      4  O          9.5760   -2.5650   -3.2520 O.3     1  UNL1       -0.4810
      5  H         10.4340   -2.5090   -2.6810 H       1  UNL1        0.2960
      6  C          7.0230   -0.0650   -2.1500 C.3     1  UNL1        0.0470
      7  C          6.4800    0.0610   -0.7730 C.2     1  UNL1       -0.0470
      8  C          6.5940   -0.9700    0.1390 C.2     1  UNL1        0.0040
      9  C          5.8390    1.2060   -0.3370 C.2     1  UNL1        0.0040
     10  C          6.0850   -0.8420    1.4170 C.2     1  UNL1        0.0000
     11  C          5.3310    1.3360    0.9360 C.2     1  UNL1        0.0000
     12  C          5.4460    0.3040    1.8450 C.2     1  UNL1        0.0000
@<TRIPOS>BOND
     1     4     2    1
     2     4     5    1
     3     3     2    2
     4     2     1    1
     5     1     6    1
     6     6     7    1
     7     7     9    2
     8     7     8    1
     9     9    11    1
    10     8    10    2
    11    11    12    2
    12    10    12    1
