@<TRIPOS>MOLECULE
/home/cewinharhar/GITHUB/reincatalyze/data/processed/docking_pred/2023-Apr-25-2033_maxeplen5_maxtrainstep200_exh16_gamma099_lrac3e-4_lrcr1e-3/ae2b7ca0e57384ee3cd7889808440c06f68d274f_ligand_2.pdbqt
 12 12 0 0 0
SMALL
GASTEIGER

@<TRIPOS>ATOM
      1  C          6.0850    1.4290    1.2300 C.3     1  UNL1        0.1270
      2  C          5.2140    0.5260    2.0260 C.2     1  UNL1        0.3030
      3  O          5.6350   -0.6140    2.3380 O.2     1  UNL1       -0.2520
      4  O          3.9380    0.8960    2.4450 O.3     1  UNL1       -0.4810
      5  H          3.7910    1.5790    3.2040 H       1  UNL1        0.2960
      6  C          5.7440    1.2250   -0.2200 C.3     1  UNL1        0.0470
      7  C          6.8350    0.5500   -0.9700 C.2     1  UNL1       -0.0470
      8  C          6.5850   -0.5640   -1.7490 C.2     1  UNL1        0.0040
      9  C          8.1420    0.9980   -0.9290 C.2     1  UNL1        0.0040
     10  C          7.6070   -1.1840   -2.4420 C.2     1  UNL1        0.0000
     11  C          9.1620    0.3820   -1.6200 C.2     1  UNL1        0.0000
     12  C          8.9100   -0.7310   -2.3960 C.2     1  UNL1        0.0000
@<TRIPOS>BOND
     1    10    12    2
     2    10     8    1
     3    12    11    1
     4     8     7    2
     5    11     9    2
     6     7     9    1
     7     7     6    1
     8     6     1    1
     9     1     2    1
    10     2     3    2
    11     2     4    1
    12     4     5    1
