@<TRIPOS>MOLECULE
/home/cewinharhar/GITHUB/reincatalyze/data/processed/docking_pred/2023-Apr-25-2033_maxeplen5_maxtrainstep200_exh16_gamma099_lrac3e-4_lrcr1e-3/ae2b7ca0e57384ee3cd7889808440c06f68d274f_ligand_2.pdbqt
 12 12 0 0 0
SMALL
GASTEIGER

@<TRIPOS>ATOM
      1  C          5.9190   -0.7530    1.7630 C.3     1  UNL1        0.1270
      2  C          5.2780    0.5680    1.9900 C.2     1  UNL1        0.3030
      3  O          4.1210    0.6130    2.4730 O.2     1  UNL1       -0.2520
      4  O          5.9150    1.7690    1.6880 O.3     1  UNL1       -0.4810
      5  H          5.3880    2.6040    1.3890 H       1  UNL1        0.2960
      6  C          7.3730   -0.5070    1.4700 C.3     1  UNL1        0.0470
      7  C          7.6510   -0.4180    0.0130 C.2     1  UNL1       -0.0470
      8  C          6.9590   -1.1950   -0.8970 C.2     1  UNL1        0.0040
      9  C          8.6060    0.4390   -0.5030 C.2     1  UNL1        0.0040
     10  C          7.2260   -1.1040   -2.2490 C.2     1  UNL1        0.0000
     11  C          8.8730    0.5310   -1.8510 C.2     1  UNL1        0.0000
     12  C          8.1800   -0.2470   -2.7570 C.2     1  UNL1        0.0000
@<TRIPOS>BOND
     1    12    10    2
     2    12    11    1
     3    10     8    1
     4    11     9    2
     5     8     7    2
     6     9     7    1
     7     7     6    1
     8     5     4    1
     9     6     1    1
    10     4     2    1
    11     1     2    1
    12     2     3    2
