@<TRIPOS>MOLECULE
/home/cewinharhar/GITHUB/reincatalyze/data/processed/docking_pred/2023-Apr-25-2033_maxeplen5_maxtrainstep200_exh16_gamma099_lrac3e-4_lrcr1e-3/ae2b7ca0e57384ee3cd7889808440c06f68d274f_ligand_2.pdbqt
 12 12 0 0 0
SMALL
GASTEIGER

@<TRIPOS>ATOM
      1  C          8.4850   -0.5820   -2.2480 C.3     1  UNL1        0.1270
      2  C          8.4870   -1.8990   -2.9360 C.2     1  UNL1        0.3030
      3  O          9.5740   -2.5080   -3.0880 O.2     1  UNL1       -0.2520
      4  O          7.3250   -2.4900   -3.4240 O.3     1  UNL1       -0.4810
      5  H          6.7480   -3.1170   -2.8430 H       1  UNL1        0.2960
      6  C          7.0530   -0.1390   -2.1240 C.3     1  UNL1        0.0470
      7  C          6.5850   -0.1180   -0.7130 C.2     1  UNL1       -0.0470
      8  C          5.8950    0.9650   -0.2040 C.2     1  UNL1        0.0040
      9  C          6.8140   -1.1710    0.1530 C.2     1  UNL1        0.0040
     10  C          5.4650    0.9740    1.1090 C.2     1  UNL1        0.0000
     11  C          6.3860   -1.1650    1.4620 C.2     1  UNL1        0.0000
     12  C          5.6970   -0.0810    1.9690 C.2     1  UNL1        0.0000
@<TRIPOS>BOND
     1     4     2    1
     2     4     5    1
     3     3     2    2
     4     2     1    1
     5     1     6    1
     6     6     7    1
     7     7     8    2
     8     7     9    1
     9     8    10    1
    10     9    11    2
    11    10    12    2
    12    11    12    1
