@<TRIPOS>MOLECULE
/home/cewinharhar/GITHUB/reincatalyze/data/processed/docking_pred/2023-Apr-25-2033_maxeplen5_maxtrainstep200_exh16_gamma099_lrac3e-4_lrcr1e-3/ae2b7ca0e57384ee3cd7889808440c06f68d274f_ligand_2.pdbqt
 12 12 0 0 0
SMALL
GASTEIGER

@<TRIPOS>ATOM
      1  C          8.4730   -0.5700   -2.2170 C.3     1  UNL1        0.1270
      2  C          8.4670   -1.8720   -2.9330 C.2     1  UNL1        0.3030
      3  O          9.5490   -2.4870   -3.0950 O.2     1  UNL1       -0.2520
      4  O          7.3020   -2.4430   -3.4370 O.3     1  UNL1       -0.4810
      5  H          7.2860   -2.9430   -4.3400 H       1  UNL1        0.2960
      6  C          7.0450   -0.1110   -2.1020 C.3     1  UNL1        0.0470
      7  C          6.5610   -0.1070   -0.6970 C.2     1  UNL1       -0.0470
      8  C          6.7580   -1.1960    0.1300 C.2     1  UNL1        0.0040
      9  C          5.8980    0.9750   -0.1500 C.2     1  UNL1        0.0040
     10  C          6.3040   -1.1820    1.4360 C.2     1  UNL1        0.0000
     11  C          5.4450    0.9920    1.1500 C.2     1  UNL1        0.0000
     12  C          5.6420   -0.0980    1.9740 C.2     1  UNL1        0.0000
@<TRIPOS>BOND
     1     5     4    1
     2     4     2    1
     3     3     2    2
     4     2     1    1
     5     1     6    1
     6     6     7    1
     7     7     9    2
     8     7     8    1
     9     9    11    1
    10     8    10    2
    11    11    12    2
    12    10    12    1
