@<TRIPOS>MOLECULE
/home/cewinharhar/GITHUB/reincatalyze/data/processed/docking_pred/2023-Apr-25-2033_maxeplen5_maxtrainstep200_exh16_gamma099_lrac3e-4_lrcr1e-3/ae2b7ca0e57384ee3cd7889808440c06f68d274f_ligand_2.pdbqt
 12 12 0 0 0
SMALL
GASTEIGER

@<TRIPOS>ATOM
      1  C          8.1440    0.9200   -1.9510 C.3     1  UNL1        0.1270
      2  C          9.3930    0.1270   -1.8100 C.2     1  UNL1        0.3030
      3  O          9.4480   -1.0230   -2.3070 O.2     1  UNL1       -0.2520
      4  O         10.5150    0.6140   -1.1440 O.3     1  UNL1       -0.4810
      5  H         11.4490    0.1970   -1.2760 H       1  UNL1        0.2960
      6  C          6.9870   -0.0300   -1.8070 C.3     1  UNL1        0.0470
      7  C          6.4850   -0.1070   -0.4100 C.2     1  UNL1       -0.0470
      8  C          5.7740    0.9350    0.1520 C.2     1  UNL1        0.0040
      9  C          6.7020   -1.2130    0.3890 C.2     1  UNL1        0.0040
     10  C          5.3120    0.8540    1.4520 C.2     1  UNL1        0.0000
     11  C          6.2420   -1.2970    1.6850 C.2     1  UNL1        0.0000
     12  C          5.5320   -0.2540    2.2450 C.2     1  UNL1        0.0000
@<TRIPOS>BOND
     1     3     2    2
     2     1     2    1
     3     1     6    1
     4     2     4    1
     5     6     7    1
     6     5     4    1
     7     7     8    2
     8     7     9    1
     9     8    10    1
    10     9    11    2
    11    10    12    2
    12    11    12    1
