@<TRIPOS>MOLECULE
/home/cewinharhar/GITHUB/reincatalyze/data/processed/docking_pred/2023-Apr-25-2033_maxeplen5_maxtrainstep200_exh16_gamma099_lrac3e-4_lrcr1e-3/af0dd28332db5651a88784e76b435690c0a42449_ligand_2.pdbqt
 12 12 0 0 0
SMALL
GASTEIGER

@<TRIPOS>ATOM
      1  C          8.4490   -0.5750   -2.2050 C.3     1  UNL1        0.1270
      2  C          8.4620   -1.8790   -2.9170 C.2     1  UNL1        0.3030
      3  O          9.5530   -2.4790   -3.0750 O.2     1  UNL1       -0.2520
      4  O          7.3050   -2.4680   -3.4200 O.3     1  UNL1       -0.4810
      5  H          7.3400   -3.2680   -4.0690 H       1  UNL1        0.2960
      6  C          7.0260   -0.0900   -2.1760 C.3     1  UNL1        0.0470
      7  C          6.4940    0.0250   -0.7920 C.2     1  UNL1       -0.0470
      8  C          6.6100   -1.0170    0.1070 C.2     1  UNL1        0.0040
      9  C          5.8640    1.1690   -0.3390 C.2     1  UNL1        0.0040
     10  C          6.1110   -0.8990    1.3910 C.2     1  UNL1        0.0000
     11  C          5.3670    1.2890    0.9400 C.2     1  UNL1        0.0000
     12  C          5.4830    0.2460    1.8360 C.2     1  UNL1        0.0000
@<TRIPOS>BOND
     1     5     4    1
     2     4     2    1
     3     3     2    2
     4     2     1    1
     5     1     6    1
     6     6     7    1
     7     7     9    2
     8     7     8    1
     9     9    11    1
    10     8    10    2
    11    11    12    2
    12    10    12    1
