MODEL 1
REMARK VINA RESULT:      -7.3      0.000      0.000
REMARK SMILES O=C(O)CCc1ccccc1
REMARK SMILES IDX 4 1 2 2 1 3 3 4 5 6 6 7 7 8 11 9 8 10 10 11 9 12
REMARK H PARENT 3 5
REMARK Flexibility Score: inf
ROOT
ATOM      1  C   UNL     1       8.449  -0.575  -2.205  1.00  0.00     0.127 C 
ENDROOT
BRANCH   1   2
ATOM      2  C   UNL     1       8.462  -1.879  -2.917  1.00  0.00     0.303 C 
ATOM      3  O   UNL     1       9.553  -2.479  -3.075  1.00  0.00    -0.252 OA
BRANCH   2   4
ATOM      4  O   UNL     1       7.305  -2.468  -3.420  1.00  0.00    -0.481 OA
ATOM      5  H   UNL     1       7.340  -3.268  -4.069  1.00  0.00     0.296 HD
ENDBRANCH   2   4
ENDBRANCH   1   2
BRANCH   1   6
ATOM      6  C   UNL     1       7.026  -0.090  -2.176  1.00  0.00     0.047 C 
BRANCH   6   7
ATOM      7  C   UNL     1       6.494   0.025  -0.792  1.00  0.00    -0.047 A 
ATOM      8  C   UNL     1       6.610  -1.017   0.107  1.00  0.00     0.004 A 
ATOM      9  C   UNL     1       5.864   1.169  -0.339  1.00  0.00     0.004 A 
ATOM     10  C   UNL     1       6.111  -0.899   1.391  1.00  0.00     0.000 A 
ATOM     11  C   UNL     1       5.367   1.289   0.940  1.00  0.00     0.000 A 
ATOM     12  C   UNL     1       5.483   0.246   1.836  1.00  0.00     0.000 A 
ENDBRANCH   6   7
ENDBRANCH   1   6
TORSDOF 4
ENDMDL
MODEL 2
REMARK VINA RESULT:      -7.3      0.213      1.726
REMARK SMILES O=C(O)CCc1ccccc1
REMARK SMILES IDX 4 1 2 2 1 3 3 4 5 6 6 7 7 8 11 9 8 10 10 11 9 12
REMARK H PARENT 3 5
REMARK Flexibility Score: inf
ROOT
ATOM      1  C   UNL     1       8.389  -0.735  -1.984  1.00  0.00     0.127 C 
ENDROOT
BRANCH   1   2
ATOM      2  C   UNL     1       8.391  -1.941  -2.853  1.00  0.00     0.303 C 
ATOM      3  O   UNL     1       7.298  -2.402  -3.263  1.00  0.00    -0.252 OA
BRANCH   2   4
ATOM      4  O   UNL     1       9.565  -2.584  -3.235  1.00  0.00    -0.481 OA
ATOM      5  H   UNL     1      10.480  -2.331  -2.832  1.00  0.00     0.296 HD
ENDBRANCH   2   4
ENDBRANCH   1   2
BRANCH   1   6
ATOM      6  C   UNL     1       7.012  -0.133  -2.049  1.00  0.00     0.047 C 
BRANCH   6   7
ATOM      7  C   UNL     1       6.419   0.075  -0.702  1.00  0.00    -0.047 A 
ATOM      8  C   UNL     1       5.752   1.243  -0.387  1.00  0.00     0.004 A 
ATOM      9  C   UNL     1       6.503  -0.880   0.294  1.00  0.00     0.004 A 
ATOM     10  C   UNL     1       5.204   1.425   0.869  1.00  0.00     0.000 A 
ATOM     11  C   UNL     1       5.958  -0.701   1.546  1.00  0.00     0.000 A 
ATOM     12  C   UNL     1       5.292   0.468   1.858  1.00  0.00     0.000 A 
ENDBRANCH   6   7
ENDBRANCH   1   6
TORSDOF 4
ENDMDL
MODEL 3
REMARK VINA RESULT:      -6.8      3.388      5.078
REMARK SMILES O=C(O)CCc1ccccc1
REMARK SMILES IDX 4 1 2 2 1 3 3 4 5 6 6 7 7 8 11 9 8 10 10 11 9 12
REMARK H PARENT 3 5
REMARK Flexibility Score: inf
ROOT
ATOM      1  C   UNL     1       4.976   1.805   0.699  1.00  0.00     0.127 C 
ENDROOT
BRANCH   1   2
ATOM      2  C   UNL     1       4.459   1.125   1.915  1.00  0.00     0.303 C 
ATOM      3  O   UNL     1       5.146   0.222   2.450  1.00  0.00    -0.252 OA
BRANCH   2   4
ATOM      4  O   UNL     1       3.234   1.452   2.490  1.00  0.00    -0.481 OA
ATOM      5  H   UNL     1       2.955   2.431   2.657  1.00  0.00     0.296 HD
ENDBRANCH   2   4
ENDBRANCH   1   2
BRANCH   1   6
ATOM      6  C   UNL     1       6.477   1.822   0.793  1.00  0.00     0.047 C 
BRANCH   6   7
ATOM      7  C   UNL     1       7.124   1.066  -0.311  1.00  0.00    -0.047 A 
ATOM      8  C   UNL     1       6.409   0.166  -1.077  1.00  0.00     0.004 A 
ATOM      9  C   UNL     1       8.461   1.225  -0.626  1.00  0.00     0.004 A 
ATOM     10  C   UNL     1       7.020  -0.531  -2.102  1.00  0.00     0.000 A 
ATOM     11  C   UNL     1       9.072   0.531  -1.647  1.00  0.00     0.000 A 
ATOM     12  C   UNL     1       8.355  -0.368  -2.411  1.00  0.00     0.000 A 
ENDBRANCH   6   7
ENDBRANCH   1   6
TORSDOF 4
ENDMDL
MODEL 4
REMARK VINA RESULT:      -6.8      1.041      1.989
REMARK SMILES O=C(O)CCc1ccccc1
REMARK SMILES IDX 4 1 2 2 1 3 3 4 5 6 6 7 7 8 11 9 8 10 10 11 9 12
REMARK H PARENT 3 5
REMARK Flexibility Score: inf
ROOT
ATOM      1  C   UNL     1       7.346  -1.308  -2.246  1.00  0.00     0.127 C 
ENDROOT
BRANCH   1   2
ATOM      2  C   UNL     1       8.810  -1.348  -2.502  1.00  0.00     0.303 C 
ATOM      3  O   UNL     1       9.289  -2.298  -3.167  1.00  0.00    -0.252 OA
BRANCH   2   4
ATOM      4  O   UNL     1       9.678  -0.366  -2.031  1.00  0.00    -0.481 OA
ATOM      5  H   UNL     1      10.694  -0.528  -1.959  1.00  0.00     0.296 HD
ENDBRANCH   2   4
ENDBRANCH   1   2
BRANCH   1   6
ATOM      6  C   UNL     1       7.142  -1.467  -0.764  1.00  0.00     0.047 C 
BRANCH   6   7
ATOM      7  C   UNL     1       6.406  -0.322  -0.167  1.00  0.00    -0.047 A 
ATOM      8  C   UNL     1       6.135   0.816  -0.902  1.00  0.00     0.004 A 
ATOM      9  C   UNL     1       5.960  -0.337   1.141  1.00  0.00     0.004 A 
ATOM     10  C   UNL     1       5.450   1.874  -0.336  1.00  0.00     0.000 A 
ATOM     11  C   UNL     1       5.277   0.716   1.707  1.00  0.00     0.000 A 
ATOM     12  C   UNL     1       5.008   1.852   0.971  1.00  0.00     0.000 A 
ENDBRANCH   6   7
ENDBRANCH   1   6
TORSDOF 4
ENDMDL
MODEL 5
REMARK VINA RESULT:      -6.6      1.876      2.852
REMARK SMILES O=C(O)CCc1ccccc1
REMARK SMILES IDX 4 1 2 2 1 3 3 4 5 6 6 7 7 8 11 9 8 10 10 11 9 12
REMARK H PARENT 3 5
REMARK Flexibility Score: inf
ROOT
ATOM      1  C   UNL     1       8.202  -1.539   1.123  1.00  0.00     0.127 C 
ENDROOT
BRANCH   1   2
ATOM      2  C   UNL     1       8.474  -2.749   0.305  1.00  0.00     0.303 C 
ATOM      3  O   UNL     1       9.102  -3.707   0.818  1.00  0.00    -0.252 OA
BRANCH   2   4
ATOM      4  O   UNL     1       8.057  -2.866  -1.018  1.00  0.00    -0.481 OA
ATOM      5  H   UNL     1       8.681  -3.225  -1.756  1.00  0.00     0.296 HD
ENDBRANCH   2   4
ENDBRANCH   1   2
BRANCH   1   6
ATOM      6  C   UNL     1       6.713  -1.441   1.306  1.00  0.00     0.047 C 
BRANCH   6   7
ATOM      7  C   UNL     1       6.159  -0.166   0.780  1.00  0.00    -0.047 A 
ATOM      8  C   UNL     1       6.396   0.234  -0.521  1.00  0.00     0.004 A 
ATOM      9  C   UNL     1       5.384   0.675   1.556  1.00  0.00     0.004 A 
ATOM     10  C   UNL     1       5.876   1.421  -1.001  1.00  0.00     0.000 A 
ATOM     11  C   UNL     1       4.864   1.858   1.080  1.00  0.00     0.000 A 
ATOM     12  C   UNL     1       5.103   2.256  -0.220  1.00  0.00     0.000 A 
ENDBRANCH   6   7
ENDBRANCH   1   6
TORSDOF 4
ENDMDL
