@<TRIPOS>MOLECULE
/home/cewinharhar/GITHUB/reincatalyze/data/processed/docking_pred/2023-Apr-25-2033_maxeplen5_maxtrainstep200_exh16_gamma099_lrac3e-4_lrcr1e-3/af0dd28332db5651a88784e76b435690c0a42449_ligand_2.pdbqt
 12 12 0 0 0
SMALL
GASTEIGER

@<TRIPOS>ATOM
      1  C          4.9760    1.8050    0.6990 C.3     1  UNL1        0.1270
      2  C          4.4590    1.1250    1.9150 C.2     1  UNL1        0.3030
      3  O          5.1460    0.2220    2.4500 O.2     1  UNL1       -0.2520
      4  O          3.2340    1.4520    2.4900 O.3     1  UNL1       -0.4810
      5  H          2.9550    2.4310    2.6570 H       1  UNL1        0.2960
      6  C          6.4770    1.8220    0.7930 C.3     1  UNL1        0.0470
      7  C          7.1240    1.0660   -0.3110 C.2     1  UNL1       -0.0470
      8  C          6.4090    0.1660   -1.0770 C.2     1  UNL1        0.0040
      9  C          8.4610    1.2250   -0.6260 C.2     1  UNL1        0.0040
     10  C          7.0200   -0.5310   -2.1020 C.2     1  UNL1        0.0000
     11  C          9.0720    0.5310   -1.6470 C.2     1  UNL1        0.0000
     12  C          8.3550   -0.3680   -2.4110 C.2     1  UNL1        0.0000
@<TRIPOS>BOND
     1    12    10    2
     2    12    11    1
     3    10     8    1
     4    11     9    2
     5     8     7    2
     6     9     7    1
     7     7     6    1
     8     1     6    1
     9     1     2    1
    10     2     3    2
    11     2     4    1
    12     4     5    1
