@<TRIPOS>MOLECULE
/home/cewinharhar/GITHUB/reincatalyze/data/processed/docking_pred/2023-Apr-25-2033_maxeplen5_maxtrainstep200_exh16_gamma099_lrac3e-4_lrcr1e-3/af0dd28332db5651a88784e76b435690c0a42449_ligand_2.pdbqt
 12 12 0 0 0
SMALL
GASTEIGER

@<TRIPOS>ATOM
      1  C          8.2020   -1.5390    1.1230 C.3     1  UNL1        0.1270
      2  C          8.4740   -2.7490    0.3050 C.2     1  UNL1        0.3030
      3  O          9.1020   -3.7070    0.8180 O.2     1  UNL1       -0.2520
      4  O          8.0570   -2.8660   -1.0180 O.3     1  UNL1       -0.4810
      5  H          8.6810   -3.2250   -1.7560 H       1  UNL1        0.2960
      6  C          6.7130   -1.4410    1.3060 C.3     1  UNL1        0.0470
      7  C          6.1590   -0.1660    0.7800 C.2     1  UNL1       -0.0470
      8  C          6.3960    0.2340   -0.5210 C.2     1  UNL1        0.0040
      9  C          5.3840    0.6750    1.5560 C.2     1  UNL1        0.0040
     10  C          5.8760    1.4210   -1.0010 C.2     1  UNL1        0.0000
     11  C          4.8640    1.8580    1.0800 C.2     1  UNL1        0.0000
     12  C          5.1030    2.2560   -0.2200 C.2     1  UNL1        0.0000
@<TRIPOS>BOND
     1     5     4    1
     2     4     2    1
     3    10     8    1
     4    10    12    2
     5     8     7    2
     6    12    11    1
     7     2     3    2
     8     2     1    1
     9     7     6    1
    10     7     9    1
    11    11     9    2
    12     1     6    1
