@<TRIPOS>MOLECULE
/home/cewinharhar/GITHUB/reincatalyze/data/processed/docking_pred/2023-Apr-25-2033_maxeplen5_maxtrainstep200_exh16_gamma099_lrac3e-4_lrcr1e-3/af0dd28332db5651a88784e76b435690c0a42449_ligand_2.pdbqt
 12 12 0 0 0
SMALL
GASTEIGER

@<TRIPOS>ATOM
      1  C          8.3890   -0.7350   -1.9840 C.3     1  UNL1        0.1270
      2  C          8.3910   -1.9410   -2.8530 C.2     1  UNL1        0.3030
      3  O          7.2980   -2.4020   -3.2630 O.2     1  UNL1       -0.2520
      4  O          9.5650   -2.5840   -3.2350 O.3     1  UNL1       -0.4810
      5  H         10.4800   -2.3310   -2.8320 H       1  UNL1        0.2960
      6  C          7.0120   -0.1330   -2.0490 C.3     1  UNL1        0.0470
      7  C          6.4190    0.0750   -0.7020 C.2     1  UNL1       -0.0470
      8  C          5.7520    1.2430   -0.3870 C.2     1  UNL1        0.0040
      9  C          6.5030   -0.8800    0.2940 C.2     1  UNL1        0.0040
     10  C          5.2040    1.4250    0.8690 C.2     1  UNL1        0.0000
     11  C          5.9580   -0.7010    1.5460 C.2     1  UNL1        0.0000
     12  C          5.2920    0.4680    1.8580 C.2     1  UNL1        0.0000
@<TRIPOS>BOND
     1     3     2    2
     2     4     2    1
     3     4     5    1
     4     2     1    1
     5     6     1    1
     6     6     7    1
     7     7     8    2
     8     7     9    1
     9     8    10    1
    10     9    11    2
    11    10    12    2
    12    11    12    1
