@<TRIPOS>MOLECULE
/home/cewinharhar/GITHUB/reincatalyze/data/processed/docking_pred/2023-Apr-25-2033_maxeplen5_maxtrainstep200_exh16_gamma099_lrac3e-4_lrcr1e-3/af0dd28332db5651a88784e76b435690c0a42449_ligand_2.pdbqt
 12 12 0 0 0
SMALL
GASTEIGER

@<TRIPOS>ATOM
      1  C          7.3460   -1.3080   -2.2460 C.3     1  UNL1        0.1270
      2  C          8.8100   -1.3480   -2.5020 C.2     1  UNL1        0.3030
      3  O          9.2890   -2.2980   -3.1670 O.2     1  UNL1       -0.2520
      4  O          9.6780   -0.3660   -2.0310 O.3     1  UNL1       -0.4810
      5  H         10.6940   -0.5280   -1.9590 H       1  UNL1        0.2960
      6  C          7.1420   -1.4670   -0.7640 C.3     1  UNL1        0.0470
      7  C          6.4060   -0.3220   -0.1670 C.2     1  UNL1       -0.0470
      8  C          6.1350    0.8160   -0.9020 C.2     1  UNL1        0.0040
      9  C          5.9600   -0.3370    1.1410 C.2     1  UNL1        0.0040
     10  C          5.4500    1.8740   -0.3360 C.2     1  UNL1        0.0000
     11  C          5.2770    0.7160    1.7070 C.2     1  UNL1        0.0000
     12  C          5.0080    1.8520    0.9710 C.2     1  UNL1        0.0000
@<TRIPOS>BOND
     1     3     2    2
     2     2     1    1
     3     2     4    1
     4     1     6    1
     5     4     5    1
     6     8    10    1
     7     8     7    2
     8     6     7    1
     9    10    12    2
    10     7     9    1
    11    12    11    1
    12     9    11    2
