MODEL 1
REMARK VINA RESULT:      -7.3      0.000      0.000
REMARK SMILES O=C(O)CCc1ccccc1
REMARK SMILES IDX 4 1 2 2 1 3 3 4 5 6 6 7 7 8 11 9 8 10 10 11 9 12
REMARK H PARENT 3 5
REMARK Flexibility Score: inf
ROOT
ATOM      1  C   UNL     1       8.446  -0.592  -2.195  1.00  0.00     0.127 C 
ENDROOT
BRANCH   1   2
ATOM      2  C   UNL     1       8.459  -1.890  -2.918  1.00  0.00     0.303 C 
ATOM      3  O   UNL     1       9.552  -2.481  -3.097  1.00  0.00    -0.252 OA
BRANCH   2   4
ATOM      4  O   UNL     1       7.299  -2.484  -3.409  1.00  0.00    -0.481 OA
ATOM      5  H   UNL     1       6.364  -2.214  -3.069  1.00  0.00     0.296 HD
ENDBRANCH   2   4
ENDBRANCH   1   2
BRANCH   1   6
ATOM      6  C   UNL     1       7.025  -0.099  -2.177  1.00  0.00     0.047 C 
BRANCH   6   7
ATOM      7  C   UNL     1       6.487   0.031  -0.798  1.00  0.00    -0.047 A 
ATOM      8  C   UNL     1       6.615  -0.994   0.119  1.00  0.00     0.004 A 
ATOM      9  C   UNL     1       5.840   1.174  -0.366  1.00  0.00     0.004 A 
ATOM     10  C   UNL     1       6.111  -0.862   1.399  1.00  0.00     0.000 A 
ATOM     11  C   UNL     1       5.337   1.307   0.909  1.00  0.00     0.000 A 
ATOM     12  C   UNL     1       5.465   0.281   1.824  1.00  0.00     0.000 A 
ENDBRANCH   6   7
ENDBRANCH   1   6
TORSDOF 4
ENDMDL
MODEL 2
REMARK VINA RESULT:      -7.3      0.096      1.717
REMARK SMILES O=C(O)CCc1ccccc1
REMARK SMILES IDX 4 1 2 2 1 3 3 4 5 6 6 7 7 8 11 9 8 10 10 11 9 12
REMARK H PARENT 3 5
REMARK Flexibility Score: inf
ROOT
ATOM      1  C   UNL     1       8.436  -0.608  -2.147  1.00  0.00     0.127 C 
ENDROOT
BRANCH   1   2
ATOM      2  C   UNL     1       8.417  -1.892  -2.893  1.00  0.00     0.303 C 
ATOM      3  O   UNL     1       7.314  -2.402  -3.208  1.00  0.00    -0.252 OA
BRANCH   2   4
ATOM      4  O   UNL     1       9.583  -2.559  -3.262  1.00  0.00    -0.481 OA
ATOM      5  H   UNL     1      10.507  -2.103  -3.223  1.00  0.00     0.296 HD
ENDBRANCH   2   4
ENDBRANCH   1   2
BRANCH   1   6
ATOM      6  C   UNL     1       7.031  -0.070  -2.136  1.00  0.00     0.047 C 
BRANCH   6   7
ATOM      7  C   UNL     1       6.482   0.056  -0.761  1.00  0.00    -0.047 A 
ATOM      8  C   UNL     1       5.835   1.205  -0.351  1.00  0.00     0.004 A 
ATOM      9  C   UNL     1       6.588  -0.962   0.169  1.00  0.00     0.004 A 
ATOM     10  C   UNL     1       5.329   1.312   0.930  1.00  0.00     0.000 A 
ATOM     11  C   UNL     1       6.084  -0.858   1.446  1.00  0.00     0.000 A 
ATOM     12  C   UNL     1       5.439   0.292   1.853  1.00  0.00     0.000 A 
ENDBRANCH   6   7
ENDBRANCH   1   6
TORSDOF 4
ENDMDL
MODEL 3
REMARK VINA RESULT:      -6.8      3.389      5.082
REMARK SMILES O=C(O)CCc1ccccc1
REMARK SMILES IDX 4 1 2 2 1 3 3 4 5 6 6 7 7 8 11 9 8 10 10 11 9 12
REMARK H PARENT 3 5
REMARK Flexibility Score: inf
ROOT
ATOM      1  C   UNL     1       4.980   1.772   0.707  1.00  0.00     0.127 C 
ENDROOT
BRANCH   1   2
ATOM      2  C   UNL     1       4.448   1.110   1.927  1.00  0.00     0.303 C 
ATOM      3  O   UNL     1       5.123   0.206   2.476  1.00  0.00    -0.252 OA
BRANCH   2   4
ATOM      4  O   UNL     1       3.222   1.454   2.489  1.00  0.00    -0.481 OA
ATOM      5  H   UNL     1       2.495   1.949   1.949  1.00  0.00     0.296 HD
ENDBRANCH   2   4
ENDBRANCH   1   2
BRANCH   1   6
ATOM      6  C   UNL     1       6.480   1.768   0.808  1.00  0.00     0.047 C 
BRANCH   6   7
ATOM      7  C   UNL     1       7.122   1.020  -0.304  1.00  0.00    -0.047 A 
ATOM      8  C   UNL     1       6.413   0.100  -1.050  1.00  0.00     0.004 A 
ATOM      9  C   UNL     1       8.449   1.206  -0.645  1.00  0.00     0.004 A 
ATOM     10  C   UNL     1       7.020  -0.590  -2.082  1.00  0.00     0.000 A 
ATOM     11  C   UNL     1       9.056   0.519  -1.673  1.00  0.00     0.000 A 
ATOM     12  C   UNL     1       8.345  -0.400  -2.417  1.00  0.00     0.000 A 
ENDBRANCH   6   7
ENDBRANCH   1   6
TORSDOF 4
ENDMDL
MODEL 4
REMARK VINA RESULT:      -6.6      1.963      2.355
REMARK SMILES O=C(O)CCc1ccccc1
REMARK SMILES IDX 4 1 2 2 1 3 3 4 5 6 6 7 7 8 11 9 8 10 10 11 9 12
REMARK H PARENT 3 5
REMARK Flexibility Score: inf
ROOT
ATOM      1  C   UNL     1       8.283   0.203  -2.161  1.00  0.00     0.127 C 
ENDROOT
BRANCH   1   2
ATOM      2  C   UNL     1       9.423   0.370  -1.223  1.00  0.00     0.303 C 
ATOM      3  O   UNL     1       9.490  -0.361  -0.205  1.00  0.00    -0.252 OA
BRANCH   2   4
ATOM      4  O   UNL     1      10.428   1.311  -1.428  1.00  0.00    -0.481 OA
ATOM      5  H   UNL     1      10.588   2.089  -0.770  1.00  0.00     0.296 HD
ENDBRANCH   2   4
ENDBRANCH   1   2
BRANCH   1   6
ATOM      6  C   UNL     1       7.228  -0.603  -1.453  1.00  0.00     0.047 C 
BRANCH   6   7
ATOM      7  C   UNL     1       6.395   0.227  -0.544  1.00  0.00    -0.047 A 
ATOM      8  C   UNL     1       6.121  -0.182   0.747  1.00  0.00     0.004 A 
ATOM      9  C   UNL     1       5.859   1.438  -0.939  1.00  0.00     0.004 A 
ATOM     10  C   UNL     1       5.345   0.597   1.584  1.00  0.00     0.000 A 
ATOM     11  C   UNL     1       5.085   2.216  -0.106  1.00  0.00     0.000 A 
ATOM     12  C   UNL     1       4.812   1.805   1.183  1.00  0.00     0.000 A 
ENDBRANCH   6   7
ENDBRANCH   1   6
TORSDOF 4
ENDMDL
MODEL 5
REMARK VINA RESULT:      -6.6      1.871      2.877
REMARK SMILES O=C(O)CCc1ccccc1
REMARK SMILES IDX 4 1 2 2 1 3 3 4 5 6 6 7 7 8 11 9 8 10 10 11 9 12
REMARK H PARENT 3 5
REMARK Flexibility Score: inf
ROOT
ATOM      1  C   UNL     1       8.237  -1.549   1.087  1.00  0.00     0.127 C 
ENDROOT
BRANCH   1   2
ATOM      2  C   UNL     1       8.488  -2.773   0.281  1.00  0.00     0.303 C 
ATOM      3  O   UNL     1       9.101  -3.735   0.803  1.00  0.00    -0.252 OA
BRANCH   2   4
ATOM      4  O   UNL     1       8.066  -2.897  -1.041  1.00  0.00    -0.481 OA
ATOM      5  H   UNL     1       8.700  -2.714  -1.833  1.00  0.00     0.296 HD
ENDBRANCH   2   4
ENDBRANCH   1   2
BRANCH   1   6
ATOM      6  C   UNL     1       6.754  -1.454   1.315  1.00  0.00     0.047 C 
BRANCH   6   7
ATOM      7  C   UNL     1       6.180  -0.186   0.793  1.00  0.00    -0.047 A 
ATOM      8  C   UNL     1       5.403   0.630   1.592  1.00  0.00     0.004 A 
ATOM      9  C   UNL     1       6.393   0.237  -0.506  1.00  0.00     0.004 A 
ATOM     10  C   UNL     1       4.874   1.806   1.096  1.00  0.00     0.000 A 
ATOM     11  C   UNL     1       5.867   1.409  -1.002  1.00  0.00     0.000 A 
ATOM     12  C   UNL     1       5.090   2.223  -0.201  1.00  0.00     0.000 A 
ENDBRANCH   6   7
ENDBRANCH   1   6
TORSDOF 4
ENDMDL
