@<TRIPOS>MOLECULE
/home/cewinharhar/GITHUB/reincatalyze/data/processed/docking_pred/2023-Apr-25-2033_maxeplen5_maxtrainstep200_exh16_gamma099_lrac3e-4_lrcr1e-3/af895cae38f50b8ad608cacdd29f7ae1ddca485c_ligand_2.pdbqt
 12 12 0 0 0
SMALL
GASTEIGER

@<TRIPOS>ATOM
      1  C          4.9800    1.7720    0.7070 C.3     1  UNL1        0.1270
      2  C          4.4480    1.1100    1.9270 C.2     1  UNL1        0.3030
      3  O          5.1230    0.2060    2.4760 O.2     1  UNL1       -0.2520
      4  O          3.2220    1.4540    2.4890 O.3     1  UNL1       -0.4810
      5  H          2.4950    1.9490    1.9490 H       1  UNL1        0.2960
      6  C          6.4800    1.7680    0.8080 C.3     1  UNL1        0.0470
      7  C          7.1220    1.0200   -0.3040 C.2     1  UNL1       -0.0470
      8  C          6.4130    0.1000   -1.0500 C.2     1  UNL1        0.0040
      9  C          8.4490    1.2060   -0.6450 C.2     1  UNL1        0.0040
     10  C          7.0200   -0.5900   -2.0820 C.2     1  UNL1        0.0000
     11  C          9.0560    0.5190   -1.6730 C.2     1  UNL1        0.0000
     12  C          8.3450   -0.4000   -2.4170 C.2     1  UNL1        0.0000
@<TRIPOS>BOND
     1    12    10    2
     2    12    11    1
     3    10     8    1
     4    11     9    2
     5     8     7    2
     6     9     7    1
     7     7     6    1
     8     1     6    1
     9     1     2    1
    10     2     3    2
    11     2     4    1
    12     5     4    1
