@<TRIPOS>MOLECULE
/home/cewinharhar/GITHUB/reincatalyze/data/processed/docking_pred/2023-Apr-25-2033_maxeplen5_maxtrainstep200_exh16_gamma099_lrac3e-4_lrcr1e-3/af895cae38f50b8ad608cacdd29f7ae1ddca485c_ligand_2.pdbqt
 12 12 0 0 0
SMALL
GASTEIGER

@<TRIPOS>ATOM
      1  C          8.4360   -0.6080   -2.1470 C.3     1  UNL1        0.1270
      2  C          8.4170   -1.8920   -2.8930 C.2     1  UNL1        0.3030
      3  O          7.3140   -2.4020   -3.2080 O.2     1  UNL1       -0.2520
      4  O          9.5830   -2.5590   -3.2620 O.3     1  UNL1       -0.4810
      5  H         10.5070   -2.1030   -3.2230 H       1  UNL1        0.2960
      6  C          7.0310   -0.0700   -2.1360 C.3     1  UNL1        0.0470
      7  C          6.4820    0.0560   -0.7610 C.2     1  UNL1       -0.0470
      8  C          5.8350    1.2050   -0.3510 C.2     1  UNL1        0.0040
      9  C          6.5880   -0.9620    0.1690 C.2     1  UNL1        0.0040
     10  C          5.3290    1.3120    0.9300 C.2     1  UNL1        0.0000
     11  C          6.0840   -0.8580    1.4460 C.2     1  UNL1        0.0000
     12  C          5.4390    0.2920    1.8530 C.2     1  UNL1        0.0000
@<TRIPOS>BOND
     1     4     5    1
     2     4     2    1
     3     3     2    2
     4     2     1    1
     5     1     6    1
     6     6     7    1
     7     7     8    2
     8     7     9    1
     9     8    10    1
    10     9    11    2
    11    10    12    2
    12    11    12    1
