@<TRIPOS>MOLECULE
/home/cewinharhar/GITHUB/reincatalyze/data/processed/docking_pred/2023-Apr-25-2033_maxeplen5_maxtrainstep200_exh16_gamma099_lrac3e-4_lrcr1e-3/af895cae38f50b8ad608cacdd29f7ae1ddca485c_ligand_2.pdbqt
 12 12 0 0 0
SMALL
GASTEIGER

@<TRIPOS>ATOM
      1  C          8.2370   -1.5490    1.0870 C.3     1  UNL1        0.1270
      2  C          8.4880   -2.7730    0.2810 C.2     1  UNL1        0.3030
      3  O          9.1010   -3.7350    0.8030 O.2     1  UNL1       -0.2520
      4  O          8.0660   -2.8970   -1.0410 O.3     1  UNL1       -0.4810
      5  H          8.7000   -2.7140   -1.8330 H       1  UNL1        0.2960
      6  C          6.7540   -1.4540    1.3150 C.3     1  UNL1        0.0470
      7  C          6.1800   -0.1860    0.7930 C.2     1  UNL1       -0.0470
      8  C          5.4030    0.6300    1.5920 C.2     1  UNL1        0.0040
      9  C          6.3930    0.2370   -0.5060 C.2     1  UNL1        0.0040
     10  C          4.8740    1.8060    1.0960 C.2     1  UNL1        0.0000
     11  C          5.8670    1.4090   -1.0020 C.2     1  UNL1        0.0000
     12  C          5.0900    2.2230   -0.2010 C.2     1  UNL1        0.0000
@<TRIPOS>BOND
     1     5     4    1
     2     4     2    1
     3    11     9    1
     4    11    12    2
     5     9     7    2
     6    12    10    1
     7     2     3    2
     8     2     1    1
     9     7     6    1
    10     7     8    1
    11     1     6    1
    12    10     8    2
