@<TRIPOS>MOLECULE
/home/cewinharhar/GITHUB/reincatalyze/data/processed/docking_pred/2023-Apr-25-2033_maxeplen5_maxtrainstep200_exh16_gamma099_lrac3e-4_lrcr1e-3/af895cae38f50b8ad608cacdd29f7ae1ddca485c_ligand_2.pdbqt
 12 12 0 0 0
SMALL
GASTEIGER

@<TRIPOS>ATOM
      1  C          8.2830    0.2030   -2.1610 C.3     1  UNL1        0.1270
      2  C          9.4230    0.3700   -1.2230 C.2     1  UNL1        0.3030
      3  O          9.4900   -0.3610   -0.2050 O.2     1  UNL1       -0.2520
      4  O         10.4280    1.3110   -1.4280 O.3     1  UNL1       -0.4810
      5  H         10.5880    2.0890   -0.7700 H       1  UNL1        0.2960
      6  C          7.2280   -0.6030   -1.4530 C.3     1  UNL1        0.0470
      7  C          6.3950    0.2270   -0.5440 C.2     1  UNL1       -0.0470
      8  C          6.1210   -0.1820    0.7470 C.2     1  UNL1        0.0040
      9  C          5.8590    1.4380   -0.9390 C.2     1  UNL1        0.0040
     10  C          5.3450    0.5970    1.5840 C.2     1  UNL1        0.0000
     11  C          5.0850    2.2160   -0.1060 C.2     1  UNL1        0.0000
     12  C          4.8120    1.8050    1.1830 C.2     1  UNL1        0.0000
@<TRIPOS>BOND
     1     1     6    1
     2     1     2    1
     3     6     7    1
     4     4     2    1
     5     4     5    1
     6     2     3    2
     7     9     7    2
     8     9    11    1
     9     7     8    1
    10    11    12    2
    11     8    10    2
    12    12    10    1
