@<TRIPOS>MOLECULE
/home/cewinharhar/GITHUB/reincatalyze/data/processed/docking_pred/2023-Apr-25-2033_maxeplen5_maxtrainstep200_exh16_gamma099_lrac3e-4_lrcr1e-3/af895cae38f50b8ad608cacdd29f7ae1ddca485c_ligand_2.pdbqt
 12 12 0 0 0
SMALL
GASTEIGER

@<TRIPOS>ATOM
      1  C          8.4460   -0.5920   -2.1950 C.3     1  UNL1        0.1270
      2  C          8.4590   -1.8900   -2.9180 C.2     1  UNL1        0.3030
      3  O          9.5520   -2.4810   -3.0970 O.2     1  UNL1       -0.2520
      4  O          7.2990   -2.4840   -3.4090 O.3     1  UNL1       -0.4810
      5  H          6.3640   -2.2140   -3.0690 H       1  UNL1        0.2960
      6  C          7.0250   -0.0990   -2.1770 C.3     1  UNL1        0.0470
      7  C          6.4870    0.0310   -0.7980 C.2     1  UNL1       -0.0470
      8  C          6.6150   -0.9940    0.1190 C.2     1  UNL1        0.0040
      9  C          5.8400    1.1740   -0.3660 C.2     1  UNL1        0.0040
     10  C          6.1110   -0.8620    1.3990 C.2     1  UNL1        0.0000
     11  C          5.3370    1.3070    0.9090 C.2     1  UNL1        0.0000
     12  C          5.4650    0.2810    1.8240 C.2     1  UNL1        0.0000
@<TRIPOS>BOND
     1     4     5    1
     2     4     2    1
     3     3     2    2
     4     2     1    1
     5     1     6    1
     6     6     7    1
     7     7     9    2
     8     7     8    1
     9     9    11    1
    10     8    10    2
    11    11    12    2
    12    10    12    1
