@<TRIPOS>MOLECULE
/home/cewinharhar/GITHUB/reincatalyze/data/processed/docking_pred/2023-Apr-25-2033_maxeplen5_maxtrainstep200_exh16_gamma099_lrac3e-4_lrcr1e-3/af9628f04dddfdfce7c60ac864c84e5664a7a69f_ligand_2.pdbqt
 12 12 0 0 0
SMALL
GASTEIGER

@<TRIPOS>ATOM
      1  C          8.4420   -0.6940   -2.0300 C.3     1  UNL1        0.1270
      2  C          8.4140   -1.9250   -2.8620 C.2     1  UNL1        0.3030
      3  O          7.3080   -2.4060   -3.2070 O.2     1  UNL1       -0.2520
      4  O          9.5740   -2.5730   -3.2770 O.3     1  UNL1       -0.4810
      5  H         10.4960   -2.3550   -2.8680 H       1  UNL1        0.2960
      6  C          7.0680   -0.0850   -2.0770 C.3     1  UNL1        0.0470
      7  C          6.4750    0.0800   -0.7240 C.2     1  UNL1       -0.0470
      8  C          6.5630   -0.9210    0.2230 C.2     1  UNL1        0.0040
      9  C          5.8120    1.2340   -0.3470 C.2     1  UNL1        0.0040
     10  C          6.0080   -0.7570    1.4780 C.2     1  UNL1        0.0000
     11  C          5.2580    1.4000    0.9020 C.2     1  UNL1        0.0000
     12  C          5.3470    0.3970    1.8470 C.2     1  UNL1        0.0000
@<TRIPOS>BOND
     1     4     5    1
     2     4     2    1
     3     3     2    2
     4     2     1    1
     5     6     1    1
     6     6     7    1
     7     7     9    2
     8     7     8    1
     9     9    11    1
    10     8    10    2
    11    11    12    2
    12    10    12    1
