MODEL 1
REMARK VINA RESULT:      -7.3      0.000      0.000
REMARK SMILES O=C(O)CCc1ccccc1
REMARK SMILES IDX 4 1 2 2 1 3 3 4 5 6 6 7 7 8 11 9 8 10 10 11 9 12
REMARK H PARENT 3 5
REMARK Flexibility Score: inf
ROOT
ATOM      1  C   UNL     1       8.453  -0.682  -2.052  1.00  0.00     0.127 C 
ENDROOT
BRANCH   1   2
ATOM      2  C   UNL     1       8.418  -1.920  -2.872  1.00  0.00     0.303 C 
ATOM      3  O   UNL     1       7.309  -2.394  -3.220  1.00  0.00    -0.252 OA
BRANCH   2   4
ATOM      4  O   UNL     1       9.574  -2.583  -3.275  1.00  0.00    -0.481 OA
ATOM      5  H   UNL     1       9.538  -3.459  -3.819  1.00  0.00     0.296 HD
ENDBRANCH   2   4
ENDBRANCH   1   2
BRANCH   1   6
ATOM      6  C   UNL     1       7.083  -0.064  -2.106  1.00  0.00     0.047 C 
BRANCH   6   7
ATOM      7  C   UNL     1       6.484   0.109  -0.757  1.00  0.00    -0.047 A 
ATOM      8  C   UNL     1       5.819   1.269  -0.412  1.00  0.00     0.004 A 
ATOM      9  C   UNL     1       6.560  -0.874   0.213  1.00  0.00     0.004 A 
ATOM     10  C   UNL     1       5.266   1.419   0.845  1.00  0.00     0.000 A 
ATOM     11  C   UNL     1       6.010  -0.727   1.467  1.00  0.00     0.000 A 
ATOM     12  C   UNL     1       5.346   0.435   1.808  1.00  0.00     0.000 A 
ENDBRANCH   6   7
ENDBRANCH   1   6
TORSDOF 4
ENDMDL
MODEL 2
REMARK VINA RESULT:      -7.2      0.043      1.420
REMARK SMILES O=C(O)CCc1ccccc1
REMARK SMILES IDX 4 1 2 2 1 3 3 4 5 6 6 7 7 8 11 9 8 10 10 11 9 12
REMARK H PARENT 3 5
REMARK Flexibility Score: inf
ROOT
ATOM      1  C   UNL     1       8.442  -0.694  -2.030  1.00  0.00     0.127 C 
ENDROOT
BRANCH   1   2
ATOM      2  C   UNL     1       8.414  -1.925  -2.862  1.00  0.00     0.303 C 
ATOM      3  O   UNL     1       7.308  -2.406  -3.207  1.00  0.00    -0.252 OA
BRANCH   2   4
ATOM      4  O   UNL     1       9.574  -2.573  -3.277  1.00  0.00    -0.481 OA
ATOM      5  H   UNL     1      10.496  -2.355  -2.868  1.00  0.00     0.296 HD
ENDBRANCH   2   4
ENDBRANCH   1   2
BRANCH   1   6
ATOM      6  C   UNL     1       7.068  -0.085  -2.077  1.00  0.00     0.047 C 
BRANCH   6   7
ATOM      7  C   UNL     1       6.475   0.080  -0.724  1.00  0.00    -0.047 A 
ATOM      8  C   UNL     1       6.563  -0.921   0.223  1.00  0.00     0.004 A 
ATOM      9  C   UNL     1       5.812   1.234  -0.347  1.00  0.00     0.004 A 
ATOM     10  C   UNL     1       6.008  -0.757   1.478  1.00  0.00     0.000 A 
ATOM     11  C   UNL     1       5.258   1.400   0.902  1.00  0.00     0.000 A 
ATOM     12  C   UNL     1       5.347   0.397   1.847  1.00  0.00     0.000 A 
ENDBRANCH   6   7
ENDBRANCH   1   6
TORSDOF 4
ENDMDL
MODEL 3
REMARK VINA RESULT:      -7.2      0.624      1.449
REMARK SMILES O=C(O)CCc1ccccc1
REMARK SMILES IDX 4 1 2 2 1 3 3 4 5 6 6 7 7 8 11 9 8 10 10 11 9 12
REMARK H PARENT 3 5
REMARK Flexibility Score: inf
ROOT
ATOM      1  C   UNL     1       8.335  -0.919  -1.850  1.00  0.00     0.127 C 
ENDROOT
BRANCH   1   2
ATOM      2  C   UNL     1       8.426  -2.019  -2.845  1.00  0.00     0.303 C 
ATOM      3  O   UNL     1       9.548  -2.517  -3.106  1.00  0.00    -0.252 OA
BRANCH   2   4
ATOM      4  O   UNL     1       7.309  -2.525  -3.504  1.00  0.00    -0.481 OA
ATOM      5  H   UNL     1       7.340  -3.418  -4.021  1.00  0.00     0.296 HD
ENDBRANCH   2   4
ENDBRANCH   1   2
BRANCH   1   6
ATOM      6  C   UNL     1       7.490  -1.412  -0.707  1.00  0.00     0.047 C 
BRANCH   6   7
ATOM      7  C   UNL     1       6.624  -0.345  -0.140  1.00  0.00    -0.047 A 
ATOM      8  C   UNL     1       6.264   0.757  -0.890  1.00  0.00     0.004 A 
ATOM      9  C   UNL     1       6.140  -0.402   1.154  1.00  0.00     0.004 A 
ATOM     10  C   UNL     1       5.458   1.743  -0.353  1.00  0.00     0.000 A 
ATOM     11  C   UNL     1       5.336   0.580   1.691  1.00  0.00     0.000 A 
ATOM     12  C   UNL     1       4.978   1.681   0.939  1.00  0.00     0.000 A 
ENDBRANCH   6   7
ENDBRANCH   1   6
TORSDOF 4
ENDMDL
MODEL 4
REMARK VINA RESULT:      -6.8      3.306      5.188
REMARK SMILES O=C(O)CCc1ccccc1
REMARK SMILES IDX 4 1 2 2 1 3 3 4 5 6 6 7 7 8 11 9 8 10 10 11 9 12
REMARK H PARENT 3 5
REMARK Flexibility Score: inf
ROOT
ATOM      1  C   UNL     1       5.031   1.814   0.750  1.00  0.00     0.127 C 
ENDROOT
BRANCH   1   2
ATOM      2  C   UNL     1       4.461   1.123   1.935  1.00  0.00     0.303 C 
ATOM      3  O   UNL     1       5.112   0.196   2.476  1.00  0.00    -0.252 OA
BRANCH   2   4
ATOM      4  O   UNL     1       3.224   1.464   2.476  1.00  0.00    -0.481 OA
ATOM      5  H   UNL     1       2.528   2.006   1.942  1.00  0.00     0.296 HD
ENDBRANCH   2   4
ENDBRANCH   1   2
BRANCH   1   6
ATOM      6  C   UNL     1       6.529   1.733   0.856  1.00  0.00     0.047 C 
BRANCH   6   7
ATOM      7  C   UNL     1       7.139   0.989  -0.277  1.00  0.00    -0.047 A 
ATOM      8  C   UNL     1       6.424   0.033  -0.973  1.00  0.00     0.004 A 
ATOM      9  C   UNL     1       8.439   1.215  -0.690  1.00  0.00     0.004 A 
ATOM     10  C   UNL     1       7.001  -0.652  -2.025  1.00  0.00     0.000 A 
ATOM     11  C   UNL     1       9.016   0.533  -1.738  1.00  0.00     0.000 A 
ATOM     12  C   UNL     1       8.299  -0.422  -2.431  1.00  0.00     0.000 A 
ENDBRANCH   6   7
ENDBRANCH   1   6
TORSDOF 4
ENDMDL
MODEL 5
REMARK VINA RESULT:      -6.6      3.832      4.952
REMARK SMILES O=C(O)CCc1ccccc1
REMARK SMILES IDX 4 1 2 2 1 3 3 4 5 6 6 7 7 8 11 9 8 10 10 11 9 12
REMARK H PARENT 3 5
REMARK Flexibility Score: inf
ROOT
ATOM      1  C   UNL     1       5.462   2.897   0.003  1.00  0.00     0.127 C 
ENDROOT
BRANCH   1   2
ATOM      2  C   UNL     1       6.257   3.844   0.826  1.00  0.00     0.303 C 
ATOM      3  O   UNL     1       6.885   4.771   0.259  1.00  0.00    -0.252 OA
BRANCH   2   4
ATOM      4  O   UNL     1       6.335   3.745   2.213  1.00  0.00    -0.481 OA
ATOM      5  H   UNL     1       5.536   3.426   2.781  1.00  0.00     0.296 HD
ENDBRANCH   2   4
ENDBRANCH   1   2
BRANCH   1   6
ATOM      6  C   UNL     1       4.888   1.862   0.930  1.00  0.00     0.047 C 
BRANCH   6   7
ATOM      7  C   UNL     1       5.697   0.615   0.959  1.00  0.00    -0.047 A 
ATOM      8  C   UNL     1       6.411   0.200  -0.148  1.00  0.00     0.004 A 
ATOM      9  C   UNL     1       5.777  -0.183   2.085  1.00  0.00     0.004 A 
ATOM     10  C   UNL     1       7.160  -0.961  -0.110  1.00  0.00     0.000 A 
ATOM     11  C   UNL     1       6.523  -1.340   2.126  1.00  0.00     0.000 A 
ATOM     12  C   UNL     1       7.235  -1.753   1.017  1.00  0.00     0.000 A 
ENDBRANCH   6   7
ENDBRANCH   1   6
TORSDOF 4
ENDMDL
