@<TRIPOS>MOLECULE
/home/cewinharhar/GITHUB/reincatalyze/data/processed/docking_pred/2023-Apr-25-2033_maxeplen5_maxtrainstep200_exh16_gamma099_lrac3e-4_lrcr1e-3/af9628f04dddfdfce7c60ac864c84e5664a7a69f_ligand_2.pdbqt
 12 12 0 0 0
SMALL
GASTEIGER

@<TRIPOS>ATOM
      1  C          5.4620    2.8970    0.0030 C.3     1  UNL1        0.1270
      2  C          6.2570    3.8440    0.8260 C.2     1  UNL1        0.3030
      3  O          6.8850    4.7710    0.2590 O.2     1  UNL1       -0.2520
      4  O          6.3350    3.7450    2.2130 O.3     1  UNL1       -0.4810
      5  H          5.5360    3.4260    2.7810 H       1  UNL1        0.2960
      6  C          4.8880    1.8620    0.9300 C.3     1  UNL1        0.0470
      7  C          5.6970    0.6150    0.9590 C.2     1  UNL1       -0.0470
      8  C          6.4110    0.2000   -0.1480 C.2     1  UNL1        0.0040
      9  C          5.7770   -0.1830    2.0850 C.2     1  UNL1        0.0040
     10  C          7.1600   -0.9610   -0.1100 C.2     1  UNL1        0.0000
     11  C          6.5230   -1.3400    2.1260 C.2     1  UNL1        0.0000
     12  C          7.2350   -1.7530    1.0170 C.2     1  UNL1        0.0000
@<TRIPOS>BOND
     1     8    10    1
     2     8     7    2
     3    10    12    2
     4     1     2    1
     5     1     6    1
     6     3     2    2
     7     2     4    1
     8     6     7    1
     9     7     9    1
    10    12    11    1
    11     9    11    2
    12     4     5    1
