@<TRIPOS>MOLECULE
/home/cewinharhar/GITHUB/reincatalyze/data/processed/docking_pred/2023-Apr-25-2033_maxeplen5_maxtrainstep200_exh16_gamma099_lrac3e-4_lrcr1e-3/af9628f04dddfdfce7c60ac864c84e5664a7a69f_ligand_2.pdbqt
 12 12 0 0 0
SMALL
GASTEIGER

@<TRIPOS>ATOM
      1  C          5.0310    1.8140    0.7500 C.3     1  UNL1        0.1270
      2  C          4.4610    1.1230    1.9350 C.2     1  UNL1        0.3030
      3  O          5.1120    0.1960    2.4760 O.2     1  UNL1       -0.2520
      4  O          3.2240    1.4640    2.4760 O.3     1  UNL1       -0.4810
      5  H          2.5280    2.0060    1.9420 H       1  UNL1        0.2960
      6  C          6.5290    1.7330    0.8560 C.3     1  UNL1        0.0470
      7  C          7.1390    0.9890   -0.2770 C.2     1  UNL1       -0.0470
      8  C          6.4240    0.0330   -0.9730 C.2     1  UNL1        0.0040
      9  C          8.4390    1.2150   -0.6900 C.2     1  UNL1        0.0040
     10  C          7.0010   -0.6520   -2.0250 C.2     1  UNL1        0.0000
     11  C          9.0160    0.5330   -1.7380 C.2     1  UNL1        0.0000
     12  C          8.2990   -0.4220   -2.4310 C.2     1  UNL1        0.0000
@<TRIPOS>BOND
     1    12    10    2
     2    12    11    1
     3    10     8    1
     4    11     9    2
     5     8     7    2
     6     9     7    1
     7     7     6    1
     8     1     6    1
     9     1     2    1
    10     2     3    2
    11     2     4    1
    12     5     4    1
