@<TRIPOS>MOLECULE
/home/cewinharhar/GITHUB/reincatalyze/data/processed/docking_pred/2023-Apr-25-2033_maxeplen5_maxtrainstep200_exh16_gamma099_lrac3e-4_lrcr1e-3/af9628f04dddfdfce7c60ac864c84e5664a7a69f_ligand_2.pdbqt
 12 12 0 0 0
SMALL
GASTEIGER

@<TRIPOS>ATOM
      1  C          8.3350   -0.9190   -1.8500 C.3     1  UNL1        0.1270
      2  C          8.4260   -2.0190   -2.8450 C.2     1  UNL1        0.3030
      3  O          9.5480   -2.5170   -3.1060 O.2     1  UNL1       -0.2520
      4  O          7.3090   -2.5250   -3.5040 O.3     1  UNL1       -0.4810
      5  H          7.3400   -3.4180   -4.0210 H       1  UNL1        0.2960
      6  C          7.4900   -1.4120   -0.7070 C.3     1  UNL1        0.0470
      7  C          6.6240   -0.3450   -0.1400 C.2     1  UNL1       -0.0470
      8  C          6.2640    0.7570   -0.8900 C.2     1  UNL1        0.0040
      9  C          6.1400   -0.4020    1.1540 C.2     1  UNL1        0.0040
     10  C          5.4580    1.7430   -0.3530 C.2     1  UNL1        0.0000
     11  C          5.3360    0.5800    1.6910 C.2     1  UNL1        0.0000
     12  C          4.9780    1.6810    0.9390 C.2     1  UNL1        0.0000
@<TRIPOS>BOND
     1     5     4    1
     2     4     2    1
     3     3     2    2
     4     2     1    1
     5     1     6    1
     6     8    10    1
     7     8     7    2
     8     6     7    1
     9    10    12    2
    10     7     9    1
    11    12    11    1
    12     9    11    2
