MODEL 1
REMARK VINA RESULT:      -7.3      0.000      0.000
REMARK SMILES O=C(O)CCc1ccccc1
REMARK SMILES IDX 4 1 2 2 1 3 3 4 5 6 6 7 7 8 11 9 8 10 10 11 9 12
REMARK H PARENT 3 5
REMARK Flexibility Score: inf
ROOT
ATOM      1  C   UNL     1       8.492  -0.657  -2.098  1.00  0.00     0.127 C 
ENDROOT
BRANCH   1   2
ATOM      2  C   UNL     1       8.485  -1.912  -2.894  1.00  0.00     0.303 C 
ATOM      3  O   UNL     1       9.570  -2.505  -3.113  1.00  0.00    -0.252 OA
BRANCH   2   4
ATOM      4  O   UNL     1       7.315  -2.463  -3.411  1.00  0.00    -0.481 OA
ATOM      5  H   UNL     1       6.447  -2.515  -2.856  1.00  0.00     0.296 HD
ENDBRANCH   2   4
ENDBRANCH   1   2
BRANCH   1   6
ATOM      6  C   UNL     1       7.104  -0.081  -2.149  1.00  0.00     0.047 C 
BRANCH   6   7
ATOM      7  C   UNL     1       6.510   0.088  -0.797  1.00  0.00    -0.047 A 
ATOM      8  C   UNL     1       5.828   1.239  -0.454  1.00  0.00     0.004 A 
ATOM      9  C   UNL     1       6.608  -0.889   0.176  1.00  0.00     0.004 A 
ATOM     10  C   UNL     1       5.279   1.385   0.806  1.00  0.00     0.000 A 
ATOM     11  C   UNL     1       6.062  -0.745   1.433  1.00  0.00     0.000 A 
ATOM     12  C   UNL     1       5.381   0.406   1.773  1.00  0.00     0.000 A 
ENDBRANCH   6   7
ENDBRANCH   1   6
TORSDOF 4
ENDMDL
MODEL 2
REMARK VINA RESULT:      -7.2      0.117      1.719
REMARK SMILES O=C(O)CCc1ccccc1
REMARK SMILES IDX 4 1 2 2 1 3 3 4 5 6 6 7 7 8 11 9 8 10 10 11 9 12
REMARK H PARENT 3 5
REMARK Flexibility Score: inf
ROOT
ATOM      1  C   UNL     1       8.429  -0.604  -2.153  1.00  0.00     0.127 C 
ENDROOT
BRANCH   1   2
ATOM      2  C   UNL     1       8.414  -1.898  -2.882  1.00  0.00     0.303 C 
ATOM      3  O   UNL     1       7.313  -2.411  -3.199  1.00  0.00    -0.252 OA
BRANCH   2   4
ATOM      4  O   UNL     1       9.581  -2.572  -3.233  1.00  0.00    -0.481 OA
ATOM      5  H   UNL     1      10.215  -2.217  -3.965  1.00  0.00     0.296 HD
ENDBRANCH   2   4
ENDBRANCH   1   2
BRANCH   1   6
ATOM      6  C   UNL     1       7.022  -0.072  -2.146  1.00  0.00     0.047 C 
BRANCH   6   7
ATOM      7  C   UNL     1       6.473   0.062  -0.771  1.00  0.00    -0.047 A 
ATOM      8  C   UNL     1       6.591  -0.962   0.149  1.00  0.00     0.004 A 
ATOM      9  C   UNL     1       5.824   1.206  -0.346  1.00  0.00     0.004 A 
ATOM     10  C   UNL     1       6.077  -0.827   1.425  1.00  0.00     0.000 A 
ATOM     11  C   UNL     1       5.311   1.343   0.924  1.00  0.00     0.000 A 
ATOM     12  C   UNL     1       5.430   0.319   1.841  1.00  0.00     0.000 A 
ENDBRANCH   6   7
ENDBRANCH   1   6
TORSDOF 4
ENDMDL
MODEL 3
REMARK VINA RESULT:      -7.1      0.850      1.765
REMARK SMILES O=C(O)CCc1ccccc1
REMARK SMILES IDX 4 1 2 2 1 3 3 4 5 6 6 7 7 8 11 9 8 10 10 11 9 12
REMARK H PARENT 3 5
REMARK Flexibility Score: inf
ROOT
ATOM      1  C   UNL     1       7.290  -1.281  -2.264  1.00  0.00     0.127 C 
ENDROOT
BRANCH   1   2
ATOM      2  C   UNL     1       8.743  -1.389  -2.556  1.00  0.00     0.303 C 
ATOM      3  O   UNL     1       9.519  -0.496  -2.137  1.00  0.00    -0.252 OA
BRANCH   2   4
ATOM      4  O   UNL     1       9.284  -2.448  -3.279  1.00  0.00    -0.481 OA
ATOM      5  H   UNL     1       9.924  -3.132  -2.847  1.00  0.00     0.296 HD
ENDBRANCH   2   4
ENDBRANCH   1   2
BRANCH   1   6
ATOM      6  C   UNL     1       6.997   0.160  -1.952  1.00  0.00     0.047 C 
BRANCH   6   7
ATOM      7  C   UNL     1       6.349   0.333  -0.625  1.00  0.00    -0.047 A 
ATOM      8  C   UNL     1       6.456  -0.635   0.355  1.00  0.00     0.004 A 
ATOM      9  C   UNL     1       5.616   1.460  -0.306  1.00  0.00     0.004 A 
ATOM     10  C   UNL     1       5.851  -0.464   1.585  1.00  0.00     0.000 A 
ATOM     11  C   UNL     1       5.011   1.633   0.920  1.00  0.00     0.000 A 
ATOM     12  C   UNL     1       5.119   0.664   1.897  1.00  0.00     0.000 A 
ENDBRANCH   6   7
ENDBRANCH   1   6
TORSDOF 4
ENDMDL
MODEL 4
REMARK VINA RESULT:      -6.8      3.368      5.077
REMARK SMILES O=C(O)CCc1ccccc1
REMARK SMILES IDX 4 1 2 2 1 3 3 4 5 6 6 7 7 8 11 9 8 10 10 11 9 12
REMARK H PARENT 3 5
REMARK Flexibility Score: inf
ROOT
ATOM      1  C   UNL     1       4.984   1.790   0.648  1.00  0.00     0.127 C 
ENDROOT
BRANCH   1   2
ATOM      2  C   UNL     1       4.486   1.138   1.887  1.00  0.00     0.303 C 
ATOM      3  O   UNL     1       5.193   0.266   2.447  1.00  0.00    -0.252 OA
BRANCH   2   4
ATOM      4  O   UNL     1       3.256   1.458   2.457  1.00  0.00    -0.481 OA
ATOM      5  H   UNL     1       2.396   1.529   1.892  1.00  0.00     0.296 HD
ENDBRANCH   2   4
ENDBRANCH   1   2
BRANCH   1   6
ATOM      6  C   UNL     1       6.484   1.833   0.731  1.00  0.00     0.047 C 
BRANCH   6   7
ATOM      7  C   UNL     1       7.135   1.045  -0.348  1.00  0.00    -0.047 A 
ATOM      8  C   UNL     1       8.480   1.191  -0.630  1.00  0.00     0.004 A 
ATOM      9  C   UNL     1       6.436   0.133  -1.117  1.00  0.00     0.004 A 
ATOM     10  C   UNL     1       9.075   0.454  -1.635  1.00  0.00     0.000 A 
ATOM     11  C   UNL     1       7.027  -0.603  -2.120  1.00  0.00     0.000 A 
ATOM     12  C   UNL     1       8.371  -0.454  -2.399  1.00  0.00     0.000 A 
ENDBRANCH   6   7
ENDBRANCH   1   6
TORSDOF 4
ENDMDL
MODEL 5
REMARK VINA RESULT:      -6.5      3.730      4.987
REMARK SMILES O=C(O)CCc1ccccc1
REMARK SMILES IDX 4 1 2 2 1 3 3 4 5 6 6 7 7 8 11 9 8 10 10 11 9 12
REMARK H PARENT 3 5
REMARK Flexibility Score: inf
ROOT
ATOM      1  C   UNL     1       5.350   2.957   0.065  1.00  0.00     0.127 C 
ENDROOT
BRANCH   1   2
ATOM      2  C   UNL     1       6.224   3.864   0.852  1.00  0.00     0.303 C 
ATOM      3  O   UNL     1       6.884   4.749   0.255  1.00  0.00    -0.252 OA
BRANCH   2   4
ATOM      4  O   UNL     1       6.343   3.773   2.236  1.00  0.00    -0.481 OA
ATOM      5  H   UNL     1       6.007   2.949   2.758  1.00  0.00     0.296 HD
ENDBRANCH   2   4
ENDBRANCH   1   2
BRANCH   1   6
ATOM      6  C   UNL     1       5.237   1.664   0.825  1.00  0.00     0.047 C 
BRANCH   6   7
ATOM      7  C   UNL     1       6.031   0.570   0.206  1.00  0.00    -0.047 A 
ATOM      8  C   UNL     1       6.332   0.580  -1.143  1.00  0.00     0.004 A 
ATOM      9  C   UNL     1       6.504  -0.501   0.939  1.00  0.00     0.004 A 
ATOM     10  C   UNL     1       7.070  -0.442  -1.708  1.00  0.00     0.000 A 
ATOM     11  C   UNL     1       7.240  -1.521   0.378  1.00  0.00     0.000 A 
ATOM     12  C   UNL     1       7.539  -1.509  -0.969  1.00  0.00     0.000 A 
ENDBRANCH   6   7
ENDBRANCH   1   6
TORSDOF 4
ENDMDL
