@<TRIPOS>MOLECULE
/home/cewinharhar/GITHUB/reincatalyze/data/processed/docking_pred/2023-Apr-25-2033_maxeplen5_maxtrainstep200_exh16_gamma099_lrac3e-4_lrcr1e-3/b0253e2818c1de1129519fa2afa58b59888d8d60_ligand_2.pdbqt
 12 12 0 0 0
SMALL
GASTEIGER

@<TRIPOS>ATOM
      1  C          4.9840    1.7900    0.6480 C.3     1  UNL1        0.1270
      2  C          4.4860    1.1380    1.8870 C.2     1  UNL1        0.3030
      3  O          5.1930    0.2660    2.4470 O.2     1  UNL1       -0.2520
      4  O          3.2560    1.4580    2.4570 O.3     1  UNL1       -0.4810
      5  H          2.3960    1.5290    1.8920 H       1  UNL1        0.2960
      6  C          6.4840    1.8330    0.7310 C.3     1  UNL1        0.0470
      7  C          7.1350    1.0450   -0.3480 C.2     1  UNL1       -0.0470
      8  C          8.4800    1.1910   -0.6300 C.2     1  UNL1        0.0040
      9  C          6.4360    0.1330   -1.1170 C.2     1  UNL1        0.0040
     10  C          9.0750    0.4540   -1.6350 C.2     1  UNL1        0.0000
     11  C          7.0270   -0.6030   -2.1200 C.2     1  UNL1        0.0000
     12  C          8.3710   -0.4540   -2.3990 C.2     1  UNL1        0.0000
@<TRIPOS>BOND
     1    12    11    2
     2    12    10    1
     3    11     9    1
     4    10     8    2
     5     9     7    2
     6     8     7    1
     7     7     6    1
     8     1     6    1
     9     1     2    1
    10     2     3    2
    11     2     4    1
    12     5     4    1
