@<TRIPOS>MOLECULE
/home/cewinharhar/GITHUB/reincatalyze/data/processed/docking_pred/2023-Apr-25-2033_maxeplen5_maxtrainstep200_exh16_gamma099_lrac3e-4_lrcr1e-3/b0253e2818c1de1129519fa2afa58b59888d8d60_ligand_2.pdbqt
 12 12 0 0 0
SMALL
GASTEIGER

@<TRIPOS>ATOM
      1  C          7.2900   -1.2810   -2.2640 C.3     1  UNL1        0.1270
      2  C          8.7430   -1.3890   -2.5560 C.2     1  UNL1        0.3030
      3  O          9.5190   -0.4960   -2.1370 O.2     1  UNL1       -0.2520
      4  O          9.2840   -2.4480   -3.2790 O.3     1  UNL1       -0.4810
      5  H          9.9240   -3.1320   -2.8470 H       1  UNL1        0.2960
      6  C          6.9970    0.1600   -1.9520 C.3     1  UNL1        0.0470
      7  C          6.3490    0.3330   -0.6250 C.2     1  UNL1       -0.0470
      8  C          6.4560   -0.6350    0.3550 C.2     1  UNL1        0.0040
      9  C          5.6160    1.4600   -0.3060 C.2     1  UNL1        0.0040
     10  C          5.8510   -0.4640    1.5850 C.2     1  UNL1        0.0000
     11  C          5.0110    1.6330    0.9200 C.2     1  UNL1        0.0000
     12  C          5.1190    0.6640    1.8970 C.2     1  UNL1        0.0000
@<TRIPOS>BOND
     1     4     5    1
     2     4     2    1
     3     2     1    1
     4     2     3    2
     5     1     6    1
     6     6     7    1
     7     7     9    2
     8     7     8    1
     9     9    11    1
    10     8    10    2
    11    11    12    2
    12    10    12    1
