@<TRIPOS>MOLECULE
/home/cewinharhar/GITHUB/reincatalyze/data/processed/docking_pred/2023-Apr-25-2033_maxeplen5_maxtrainstep200_exh16_gamma099_lrac3e-4_lrcr1e-3/b0253e2818c1de1129519fa2afa58b59888d8d60_ligand_2.pdbqt
 12 12 0 0 0
SMALL
GASTEIGER

@<TRIPOS>ATOM
      1  C          5.3500    2.9570    0.0650 C.3     1  UNL1        0.1270
      2  C          6.2240    3.8640    0.8520 C.2     1  UNL1        0.3030
      3  O          6.8840    4.7490    0.2550 O.2     1  UNL1       -0.2520
      4  O          6.3430    3.7730    2.2360 O.3     1  UNL1       -0.4810
      5  H          6.0070    2.9490    2.7580 H       1  UNL1        0.2960
      6  C          5.2370    1.6640    0.8250 C.3     1  UNL1        0.0470
      7  C          6.0310    0.5700    0.2060 C.2     1  UNL1       -0.0470
      8  C          6.3320    0.5800   -1.1430 C.2     1  UNL1        0.0040
      9  C          6.5040   -0.5010    0.9390 C.2     1  UNL1        0.0040
     10  C          7.0700   -0.4420   -1.7080 C.2     1  UNL1        0.0000
     11  C          7.2400   -1.5210    0.3780 C.2     1  UNL1        0.0000
     12  C          7.5390   -1.5090   -0.9690 C.2     1  UNL1        0.0000
@<TRIPOS>BOND
     1    10     8    1
     2    10    12    2
     3     8     7    2
     4    12    11    1
     5     1     6    1
     6     1     2    1
     7     7     6    1
     8     7     9    1
     9     3     2    2
    10    11     9    2
    11     2     4    1
    12     4     5    1
