@<TRIPOS>MOLECULE
/home/cewinharhar/GITHUB/reincatalyze/data/processed/docking_pred/2023-Apr-25-2033_maxeplen5_maxtrainstep200_exh16_gamma099_lrac3e-4_lrcr1e-3/b0253e2818c1de1129519fa2afa58b59888d8d60_ligand_2.pdbqt
 12 12 0 0 0
SMALL
GASTEIGER

@<TRIPOS>ATOM
      1  C          8.4920   -0.6570   -2.0980 C.3     1  UNL1        0.1270
      2  C          8.4850   -1.9120   -2.8940 C.2     1  UNL1        0.3030
      3  O          9.5700   -2.5050   -3.1130 O.2     1  UNL1       -0.2520
      4  O          7.3150   -2.4630   -3.4110 O.3     1  UNL1       -0.4810
      5  H          6.4470   -2.5150   -2.8560 H       1  UNL1        0.2960
      6  C          7.1040   -0.0810   -2.1490 C.3     1  UNL1        0.0470
      7  C          6.5100    0.0880   -0.7970 C.2     1  UNL1       -0.0470
      8  C          5.8280    1.2390   -0.4540 C.2     1  UNL1        0.0040
      9  C          6.6080   -0.8890    0.1760 C.2     1  UNL1        0.0040
     10  C          5.2790    1.3850    0.8060 C.2     1  UNL1        0.0000
     11  C          6.0620   -0.7450    1.4330 C.2     1  UNL1        0.0000
     12  C          5.3810    0.4060    1.7730 C.2     1  UNL1        0.0000
@<TRIPOS>BOND
     1     4     2    1
     2     4     5    1
     3     3     2    2
     4     2     1    1
     5     6     1    1
     6     6     7    1
     7     7     8    2
     8     7     9    1
     9     8    10    1
    10     9    11    2
    11    10    12    2
    12    11    12    1
