MODEL 1
REMARK VINA RESULT:      -7.3      0.000      0.000
REMARK SMILES O=C(O)CCc1ccccc1
REMARK SMILES IDX 4 1 2 2 1 3 3 4 5 6 6 7 7 8 11 9 8 10 10 11 9 12
REMARK H PARENT 3 5
REMARK Flexibility Score: inf
ROOT
ATOM      1  C   UNL     1       8.446  -0.685  -2.037  1.00  0.00     0.127 C 
ENDROOT
BRANCH   1   2
ATOM      2  C   UNL     1       8.418  -1.916  -2.868  1.00  0.00     0.303 C 
ATOM      3  O   UNL     1       7.311  -2.399  -3.210  1.00  0.00    -0.252 OA
BRANCH   2   4
ATOM      4  O   UNL     1       9.578  -2.562  -3.286  1.00  0.00    -0.481 OA
ATOM      5  H   UNL     1       9.627  -3.589  -3.377  1.00  0.00     0.296 HD
ENDBRANCH   2   4
ENDBRANCH   1   2
BRANCH   1   6
ATOM      6  C   UNL     1       7.074  -0.071  -2.091  1.00  0.00     0.047 C 
BRANCH   6   7
ATOM      7  C   UNL     1       6.475   0.099  -0.741  1.00  0.00    -0.047 A 
ATOM      8  C   UNL     1       5.816   1.262  -0.392  1.00  0.00     0.004 A 
ATOM      9  C   UNL     1       6.543  -0.889   0.223  1.00  0.00     0.004 A 
ATOM     10  C   UNL     1       5.262   1.409   0.865  1.00  0.00     0.000 A 
ATOM     11  C   UNL     1       5.992  -0.745   1.477  1.00  0.00     0.000 A 
ATOM     12  C   UNL     1       5.335   0.419   1.823  1.00  0.00     0.000 A 
ENDBRANCH   6   7
ENDBRANCH   1   6
TORSDOF 4
ENDMDL
MODEL 2
REMARK VINA RESULT:      -7.2      0.107      1.422
REMARK SMILES O=C(O)CCc1ccccc1
REMARK SMILES IDX 4 1 2 2 1 3 3 4 5 6 6 7 7 8 11 9 8 10 10 11 9 12
REMARK H PARENT 3 5
REMARK Flexibility Score: inf
ROOT
ATOM      1  C   UNL     1       8.448  -0.600  -2.161  1.00  0.00     0.127 C 
ENDROOT
BRANCH   1   2
ATOM      2  C   UNL     1       8.421  -1.891  -2.897  1.00  0.00     0.303 C 
ATOM      3  O   UNL     1       7.315  -2.393  -3.211  1.00  0.00    -0.252 OA
BRANCH   2   4
ATOM      4  O   UNL     1       9.582  -2.571  -3.257  1.00  0.00    -0.481 OA
ATOM      5  H   UNL     1       9.574  -3.575  -3.489  1.00  0.00     0.296 HD
ENDBRANCH   2   4
ENDBRANCH   1   2
BRANCH   1   6
ATOM      6  C   UNL     1       7.047  -0.055  -2.151  1.00  0.00     0.047 C 
BRANCH   6   7
ATOM      7  C   UNL     1       6.495   0.066  -0.776  1.00  0.00    -0.047 A 
ATOM      8  C   UNL     1       6.615  -0.965   0.137  1.00  0.00     0.004 A 
ATOM      9  C   UNL     1       5.842   1.205  -0.343  1.00  0.00     0.004 A 
ATOM     10  C   UNL     1       6.099  -0.842   1.412  1.00  0.00     0.000 A 
ATOM     11  C   UNL     1       5.327   1.330   0.928  1.00  0.00     0.000 A 
ATOM     12  C   UNL     1       5.448   0.298   1.837  1.00  0.00     0.000 A 
ENDBRANCH   6   7
ENDBRANCH   1   6
TORSDOF 4
ENDMDL
MODEL 3
REMARK VINA RESULT:      -6.8      3.305      5.161
REMARK SMILES O=C(O)CCc1ccccc1
REMARK SMILES IDX 4 1 2 2 1 3 3 4 5 6 6 7 7 8 11 9 8 10 10 11 9 12
REMARK H PARENT 3 5
REMARK Flexibility Score: inf
ROOT
ATOM      1  C   UNL     1       4.980   1.778   0.696  1.00  0.00     0.127 C 
ENDROOT
BRANCH   1   2
ATOM      2  C   UNL     1       4.447   1.116   1.916  1.00  0.00     0.303 C 
ATOM      3  O   UNL     1       5.121   0.211   2.465  1.00  0.00    -0.252 OA
BRANCH   2   4
ATOM      4  O   UNL     1       3.222   1.463   2.480  1.00  0.00    -0.481 OA
ATOM      5  H   UNL     1       3.123   1.660   3.487  1.00  0.00     0.296 HD
ENDBRANCH   2   4
ENDBRANCH   1   2
BRANCH   1   6
ATOM      6  C   UNL     1       6.480   1.773   0.797  1.00  0.00     0.047 C 
BRANCH   6   7
ATOM      7  C   UNL     1       7.121   1.019  -0.311  1.00  0.00    -0.047 A 
ATOM      8  C   UNL     1       8.441   1.238  -0.656  1.00  0.00     0.004 A 
ATOM      9  C   UNL     1       6.438   0.069  -1.046  1.00  0.00     0.004 A 
ATOM     10  C   UNL     1       9.028   0.531  -1.688  1.00  0.00     0.000 A 
ATOM     11  C   UNL     1       7.020  -0.637  -2.075  1.00  0.00     0.000 A 
ATOM     12  C   UNL     1       8.339  -0.416  -2.418  1.00  0.00     0.000 A 
ENDBRANCH   6   7
ENDBRANCH   1   6
TORSDOF 4
ENDMDL
MODEL 4
REMARK VINA RESULT:      -6.6      1.899      2.209
REMARK SMILES O=C(O)CCc1ccccc1
REMARK SMILES IDX 4 1 2 2 1 3 3 4 5 6 6 7 7 8 11 9 8 10 10 11 9 12
REMARK H PARENT 3 5
REMARK Flexibility Score: inf
ROOT
ATOM      1  C   UNL     1       8.253   0.186  -2.279  1.00  0.00     0.127 C 
ENDROOT
BRANCH   1   2
ATOM      2  C   UNL     1       9.352   0.322  -1.288  1.00  0.00     0.303 C 
ATOM      3  O   UNL     1       9.388  -0.456  -0.304  1.00  0.00    -0.252 OA
BRANCH   2   4
ATOM      4  O   UNL     1      10.351   1.285  -1.407  1.00  0.00    -0.481 OA
ATOM      5  H   UNL     1      11.186   1.280  -0.801  1.00  0.00     0.296 HD
ENDBRANCH   2   4
ENDBRANCH   1   2
BRANCH   1   6
ATOM      6  C   UNL     1       7.138  -0.575  -1.617  1.00  0.00     0.047 C 
BRANCH   6   7
ATOM      7  C   UNL     1       6.355   0.269  -0.676  1.00  0.00    -0.047 A 
ATOM      8  C   UNL     1       5.851   1.495  -1.065  1.00  0.00     0.004 A 
ATOM      9  C   UNL     1       6.092  -0.127   0.622  1.00  0.00     0.004 A 
ATOM     10  C   UNL     1       5.125   2.271  -0.182  1.00  0.00     0.000 A 
ATOM     11  C   UNL     1       5.368   0.644   1.503  1.00  0.00     0.000 A 
ATOM     12  C   UNL     1       4.867   1.870   1.113  1.00  0.00     0.000 A 
ENDBRANCH   6   7
ENDBRANCH   1   6
TORSDOF 4
ENDMDL
MODEL 5
REMARK VINA RESULT:      -6.5      1.895      2.900
REMARK SMILES O=C(O)CCc1ccccc1
REMARK SMILES IDX 4 1 2 2 1 3 3 4 5 6 6 7 7 8 11 9 8 10 10 11 9 12
REMARK H PARENT 3 5
REMARK Flexibility Score: inf
ROOT
ATOM      1  C   UNL     1       8.166  -1.571   1.118  1.00  0.00     0.127 C 
ENDROOT
BRANCH   1   2
ATOM      2  C   UNL     1       8.466  -2.771   0.295  1.00  0.00     0.303 C 
ATOM      3  O   UNL     1       9.102  -3.723   0.809  1.00  0.00    -0.252 OA
BRANCH   2   4
ATOM      4  O   UNL     1       8.068  -2.884  -1.035  1.00  0.00    -0.481 OA
ATOM      5  H   UNL     1       7.563  -3.713  -1.383  1.00  0.00     0.296 HD
ENDBRANCH   2   4
ENDBRANCH   1   2
BRANCH   1   6
ATOM      6  C   UNL     1       6.671  -1.474   1.248  1.00  0.00     0.047 C 
BRANCH   6   7
ATOM      7  C   UNL     1       6.139  -0.184   0.737  1.00  0.00    -0.047 A 
ATOM      8  C   UNL     1       6.371   0.221  -0.563  1.00  0.00     0.004 A 
ATOM      9  C   UNL     1       5.390   0.668   1.528  1.00  0.00     0.004 A 
ATOM     10  C   UNL     1       5.872   1.423  -1.027  1.00  0.00     0.000 A 
ATOM     11  C   UNL     1       4.892   1.866   1.067  1.00  0.00     0.000 A 
ATOM     12  C   UNL     1       5.126   2.269  -0.232  1.00  0.00     0.000 A 
ENDBRANCH   6   7
ENDBRANCH   1   6
TORSDOF 4
ENDMDL
