@<TRIPOS>MOLECULE
/home/cewinharhar/GITHUB/reincatalyze/data/processed/docking_pred/2023-Apr-25-2033_maxeplen5_maxtrainstep200_exh16_gamma099_lrac3e-4_lrcr1e-3/b0dbf451e4e891e0fb60bf6ca530f921e690d9da_ligand_2.pdbqt
 12 12 0 0 0
SMALL
GASTEIGER

@<TRIPOS>ATOM
      1  C          8.2530    0.1860   -2.2790 C.3     1  UNL1        0.1270
      2  C          9.3520    0.3220   -1.2880 C.2     1  UNL1        0.3030
      3  O          9.3880   -0.4560   -0.3040 O.2     1  UNL1       -0.2520
      4  O         10.3510    1.2850   -1.4070 O.3     1  UNL1       -0.4810
      5  H         11.1860    1.2800   -0.8010 H       1  UNL1        0.2960
      6  C          7.1380   -0.5750   -1.6170 C.3     1  UNL1        0.0470
      7  C          6.3550    0.2690   -0.6760 C.2     1  UNL1       -0.0470
      8  C          5.8510    1.4950   -1.0650 C.2     1  UNL1        0.0040
      9  C          6.0920   -0.1270    0.6220 C.2     1  UNL1        0.0040
     10  C          5.1250    2.2710   -0.1820 C.2     1  UNL1        0.0000
     11  C          5.3680    0.6440    1.5030 C.2     1  UNL1        0.0000
     12  C          4.8670    1.8700    1.1130 C.2     1  UNL1        0.0000
@<TRIPOS>BOND
     1     1     6    1
     2     1     2    1
     3     6     7    1
     4     4     2    1
     5     4     5    1
     6     2     3    2
     7     8     7    2
     8     8    10    1
     9     7     9    1
    10    10    12    2
    11     9    11    2
    12    12    11    1
