@<TRIPOS>MOLECULE
/home/cewinharhar/GITHUB/reincatalyze/data/processed/docking_pred/2023-Apr-25-2033_maxeplen5_maxtrainstep200_exh16_gamma099_lrac3e-4_lrcr1e-3/b0dbf451e4e891e0fb60bf6ca530f921e690d9da_ligand_2.pdbqt
 12 12 0 0 0
SMALL
GASTEIGER

@<TRIPOS>ATOM
      1  C          8.1660   -1.5710    1.1180 C.3     1  UNL1        0.1270
      2  C          8.4660   -2.7710    0.2950 C.2     1  UNL1        0.3030
      3  O          9.1020   -3.7230    0.8090 O.2     1  UNL1       -0.2520
      4  O          8.0680   -2.8840   -1.0350 O.3     1  UNL1       -0.4810
      5  H          7.5630   -3.7130   -1.3830 H       1  UNL1        0.2960
      6  C          6.6710   -1.4740    1.2480 C.3     1  UNL1        0.0470
      7  C          6.1390   -0.1840    0.7370 C.2     1  UNL1       -0.0470
      8  C          6.3710    0.2210   -0.5630 C.2     1  UNL1        0.0040
      9  C          5.3900    0.6680    1.5280 C.2     1  UNL1        0.0040
     10  C          5.8720    1.4230   -1.0270 C.2     1  UNL1        0.0000
     11  C          4.8920    1.8660    1.0670 C.2     1  UNL1        0.0000
     12  C          5.1260    2.2690   -0.2320 C.2     1  UNL1        0.0000
@<TRIPOS>BOND
     1     5     4    1
     2     4     2    1
     3    10     8    1
     4    10    12    2
     5     8     7    2
     6    12    11    1
     7     2     3    2
     8     2     1    1
     9     7     6    1
    10     7     9    1
    11    11     9    2
    12     1     6    1
