@<TRIPOS>MOLECULE
/home/cewinharhar/GITHUB/reincatalyze/data/processed/docking_pred/2023-Apr-25-2033_maxeplen5_maxtrainstep200_exh16_gamma099_lrac3e-4_lrcr1e-3/b0dbf451e4e891e0fb60bf6ca530f921e690d9da_ligand_2.pdbqt
 12 12 0 0 0
SMALL
GASTEIGER

@<TRIPOS>ATOM
      1  C          8.4480   -0.6000   -2.1610 C.3     1  UNL1        0.1270
      2  C          8.4210   -1.8910   -2.8970 C.2     1  UNL1        0.3030
      3  O          7.3150   -2.3930   -3.2110 O.2     1  UNL1       -0.2520
      4  O          9.5820   -2.5710   -3.2570 O.3     1  UNL1       -0.4810
      5  H          9.5740   -3.5750   -3.4890 H       1  UNL1        0.2960
      6  C          7.0470   -0.0550   -2.1510 C.3     1  UNL1        0.0470
      7  C          6.4950    0.0660   -0.7760 C.2     1  UNL1       -0.0470
      8  C          6.6150   -0.9650    0.1370 C.2     1  UNL1        0.0040
      9  C          5.8420    1.2050   -0.3430 C.2     1  UNL1        0.0040
     10  C          6.0990   -0.8420    1.4120 C.2     1  UNL1        0.0000
     11  C          5.3270    1.3300    0.9280 C.2     1  UNL1        0.0000
     12  C          5.4480    0.2980    1.8370 C.2     1  UNL1        0.0000
@<TRIPOS>BOND
     1     5     4    1
     2     4     2    1
     3     3     2    2
     4     2     1    1
     5     1     6    1
     6     6     7    1
     7     7     9    2
     8     7     8    1
     9     9    11    1
    10     8    10    2
    11    11    12    2
    12    10    12    1
