@<TRIPOS>MOLECULE
/home/cewinharhar/GITHUB/reincatalyze/data/processed/docking_pred/2023-Apr-25-2033_maxeplen5_maxtrainstep200_exh16_gamma099_lrac3e-4_lrcr1e-3/b0dbf451e4e891e0fb60bf6ca530f921e690d9da_ligand_2.pdbqt
 12 12 0 0 0
SMALL
GASTEIGER

@<TRIPOS>ATOM
      1  C          4.9800    1.7780    0.6960 C.3     1  UNL1        0.1270
      2  C          4.4470    1.1160    1.9160 C.2     1  UNL1        0.3030
      3  O          5.1210    0.2110    2.4650 O.2     1  UNL1       -0.2520
      4  O          3.2220    1.4630    2.4800 O.3     1  UNL1       -0.4810
      5  H          3.1230    1.6600    3.4870 H       1  UNL1        0.2960
      6  C          6.4800    1.7730    0.7970 C.3     1  UNL1        0.0470
      7  C          7.1210    1.0190   -0.3110 C.2     1  UNL1       -0.0470
      8  C          8.4410    1.2380   -0.6560 C.2     1  UNL1        0.0040
      9  C          6.4380    0.0690   -1.0460 C.2     1  UNL1        0.0040
     10  C          9.0280    0.5310   -1.6880 C.2     1  UNL1        0.0000
     11  C          7.0200   -0.6370   -2.0750 C.2     1  UNL1        0.0000
     12  C          8.3390   -0.4160   -2.4180 C.2     1  UNL1        0.0000
@<TRIPOS>BOND
     1    12    11    2
     2    12    10    1
     3    11     9    1
     4    10     8    2
     5     9     7    2
     6     8     7    1
     7     7     6    1
     8     1     6    1
     9     1     2    1
    10     2     3    2
    11     2     4    1
    12     4     5    1
