@<TRIPOS>MOLECULE
/home/cewinharhar/GITHUB/reincatalyze/data/processed/docking_pred/2023-Apr-25-2033_maxeplen5_maxtrainstep200_exh16_gamma099_lrac3e-4_lrcr1e-3/b58c38953477011b0b30fd8623da0ee842eab33b_ligand_2.pdbqt
 12 12 0 0 0
SMALL
GASTEIGER

@<TRIPOS>ATOM
      1  C          4.9920    1.8090    0.6850 C.3     1  UNL1        0.1270
      2  C          4.4780    1.1370    1.9060 C.2     1  UNL1        0.3030
      3  O          5.1730    0.2480    2.4550 O.2     1  UNL1       -0.2520
      4  O          3.2460    1.4550    2.4720 O.3     1  UNL1       -0.4810
      5  H          2.3590    1.3060    1.9660 H       1  UNL1        0.2960
      6  C          6.4930    1.8210    0.7730 C.3     1  UNL1        0.0470
      7  C          7.1330    1.0570   -0.3300 C.2     1  UNL1       -0.0470
      8  C          8.4750    1.2080   -0.6200 C.2     1  UNL1        0.0040
      9  C          6.4250    0.1650   -1.1130 C.2     1  UNL1        0.0040
     10  C          9.0590    0.4930   -1.6470 C.2     1  UNL1        0.0000
     11  C          7.0050   -0.5490   -2.1380 C.2     1  UNL1        0.0000
     12  C          8.3460   -0.3960   -2.4260 C.2     1  UNL1        0.0000
@<TRIPOS>BOND
     1    12    11    2
     2    12    10    1
     3    11     9    1
     4    10     8    2
     5     9     7    2
     6     8     7    1
     7     7     6    1
     8     1     6    1
     9     1     2    1
    10     2     3    2
    11     2     4    1
    12     5     4    1
