@<TRIPOS>MOLECULE
/home/cewinharhar/GITHUB/reincatalyze/data/processed/docking_pred/2023-Apr-25-2033_maxeplen5_maxtrainstep200_exh16_gamma099_lrac3e-4_lrcr1e-3/b58c38953477011b0b30fd8623da0ee842eab33b_ligand_2.pdbqt
 12 12 0 0 0
SMALL
GASTEIGER

@<TRIPOS>ATOM
      1  C          8.4260   -0.5570   -2.2230 C.3     1  UNL1        0.1270
      2  C          8.4370   -1.8630   -2.9330 C.2     1  UNL1        0.3030
      3  O          9.5260   -2.4640   -3.0940 O.2     1  UNL1       -0.2520
      4  O          7.2770   -2.4520   -3.4300 O.3     1  UNL1       -0.4810
      5  H          6.6930   -3.0760   -2.8530 H       1  UNL1        0.2960
      6  C          7.0030   -0.0760   -2.1830 C.3     1  UNL1        0.0470
      7  C          6.4820    0.0400   -0.7950 C.2     1  UNL1       -0.0470
      8  C          5.8670    1.1970   -0.3560 C.2     1  UNL1        0.0040
      9  C          6.5840   -0.9930    0.1170 C.2     1  UNL1        0.0040
     10  C          5.3870    1.2940    0.9360 C.2     1  UNL1        0.0000
     11  C          6.1060   -0.8990    1.4050 C.2     1  UNL1        0.0000
     12  C          5.4930    0.2580    1.8420 C.2     1  UNL1        0.0000
@<TRIPOS>BOND
     1     4     2    1
     2     4     5    1
     3     3     2    2
     4     2     1    1
     5     1     6    1
     6     6     7    1
     7     7     8    2
     8     7     9    1
     9     8    10    1
    10     9    11    2
    11    10    12    2
    12    11    12    1
