MODEL 1
REMARK VINA RESULT:      -7.3      0.000      0.000
REMARK SMILES O=C(O)CCc1ccccc1
REMARK SMILES IDX 4 1 2 2 1 3 3 4 5 6 6 7 7 8 11 9 8 10 10 11 9 12
REMARK H PARENT 3 5
REMARK Flexibility Score: inf
ROOT
ATOM      1  C   UNL     1       8.479  -0.622  -2.139  1.00  0.00     0.127 C 
ENDROOT
BRANCH   1   2
ATOM      2  C   UNL     1       8.461  -1.892  -2.909  1.00  0.00     0.303 C 
ATOM      3  O   UNL     1       9.537  -2.510  -3.097  1.00  0.00    -0.252 OA
BRANCH   2   4
ATOM      4  O   UNL     1       7.290  -2.430  -3.436  1.00  0.00    -0.481 OA
ATOM      5  H   UNL     1       7.110  -2.452  -4.452  1.00  0.00     0.296 HD
ENDBRANCH   2   4
ENDBRANCH   1   2
BRANCH   1   6
ATOM      6  C   UNL     1       7.081  -0.068  -2.147  1.00  0.00     0.047 C 
BRANCH   6   7
ATOM      7  C   UNL     1       6.515   0.063  -0.779  1.00  0.00    -0.047 A 
ATOM      8  C   UNL     1       6.638  -0.954   0.147  1.00  0.00     0.004 A 
ATOM      9  C   UNL     1       5.844   1.200  -0.366  1.00  0.00     0.004 A 
ATOM     10  C   UNL     1       6.107  -0.822   1.416  1.00  0.00     0.000 A 
ATOM     11  C   UNL     1       5.314   1.334   0.898  1.00  0.00     0.000 A 
ATOM     12  C   UNL     1       5.438   0.315   1.821  1.00  0.00     0.000 A 
ENDBRANCH   6   7
ENDBRANCH   1   6
TORSDOF 4
ENDMDL
MODEL 2
REMARK VINA RESULT:      -7.3      0.071      1.421
REMARK SMILES O=C(O)CCc1ccccc1
REMARK SMILES IDX 4 1 2 2 1 3 3 4 5 6 6 7 7 8 11 9 8 10 10 11 9 12
REMARK H PARENT 3 5
REMARK Flexibility Score: inf
ROOT
ATOM      1  C   UNL     1       8.426  -0.557  -2.223  1.00  0.00     0.127 C 
ENDROOT
BRANCH   1   2
ATOM      2  C   UNL     1       8.437  -1.863  -2.933  1.00  0.00     0.303 C 
ATOM      3  O   UNL     1       9.526  -2.464  -3.094  1.00  0.00    -0.252 OA
BRANCH   2   4
ATOM      4  O   UNL     1       7.277  -2.452  -3.430  1.00  0.00    -0.481 OA
ATOM      5  H   UNL     1       6.693  -3.076  -2.853  1.00  0.00     0.296 HD
ENDBRANCH   2   4
ENDBRANCH   1   2
BRANCH   1   6
ATOM      6  C   UNL     1       7.003  -0.076  -2.183  1.00  0.00     0.047 C 
BRANCH   6   7
ATOM      7  C   UNL     1       6.482   0.040  -0.795  1.00  0.00    -0.047 A 
ATOM      8  C   UNL     1       5.867   1.197  -0.356  1.00  0.00     0.004 A 
ATOM      9  C   UNL     1       6.584  -0.993   0.117  1.00  0.00     0.004 A 
ATOM     10  C   UNL     1       5.387   1.294   0.936  1.00  0.00     0.000 A 
ATOM     11  C   UNL     1       6.106  -0.899   1.405  1.00  0.00     0.000 A 
ATOM     12  C   UNL     1       5.493   0.258   1.842  1.00  0.00     0.000 A 
ENDBRANCH   6   7
ENDBRANCH   1   6
TORSDOF 4
ENDMDL
MODEL 3
REMARK VINA RESULT:      -7.1      0.666      1.877
REMARK SMILES O=C(O)CCc1ccccc1
REMARK SMILES IDX 4 1 2 2 1 3 3 4 5 6 6 7 7 8 11 9 8 10 10 11 9 12
REMARK H PARENT 3 5
REMARK Flexibility Score: inf
ROOT
ATOM      1  C   UNL     1       8.369  -0.935  -1.790  1.00  0.00     0.127 C 
ENDROOT
BRANCH   1   2
ATOM      2  C   UNL     1       8.364  -2.003  -2.824  1.00  0.00     0.303 C 
ATOM      3  O   UNL     1       7.270  -2.390  -3.299  1.00  0.00    -0.252 OA
BRANCH   2   4
ATOM      4  O   UNL     1       9.534  -2.596  -3.291  1.00  0.00    -0.481 OA
ATOM      5  H   UNL     1       9.625  -2.929  -4.263  1.00  0.00     0.296 HD
ENDBRANCH   2   4
ENDBRANCH   1   2
BRANCH   1   6
ATOM      6  C   UNL     1       7.523  -1.412  -0.643  1.00  0.00     0.047 C 
BRANCH   6   7
ATOM      7  C   UNL     1       6.638  -0.344  -0.108  1.00  0.00    -0.047 A 
ATOM      8  C   UNL     1       6.310   0.761  -0.869  1.00  0.00     0.004 A 
ATOM      9  C   UNL     1       6.102  -0.402   1.165  1.00  0.00     0.004 A 
ATOM     10  C   UNL     1       5.486   1.748  -0.362  1.00  0.00     0.000 A 
ATOM     11  C   UNL     1       5.281   0.580   1.673  1.00  0.00     0.000 A 
ATOM     12  C   UNL     1       4.955   1.684   0.910  1.00  0.00     0.000 A 
ENDBRANCH   6   7
ENDBRANCH   1   6
TORSDOF 4
ENDMDL
MODEL 4
REMARK VINA RESULT:      -6.8      3.377      5.092
REMARK SMILES O=C(O)CCc1ccccc1
REMARK SMILES IDX 4 1 2 2 1 3 3 4 5 6 6 7 7 8 11 9 8 10 10 11 9 12
REMARK H PARENT 3 5
REMARK Flexibility Score: inf
ROOT
ATOM      1  C   UNL     1       4.992   1.809   0.685  1.00  0.00     0.127 C 
ENDROOT
BRANCH   1   2
ATOM      2  C   UNL     1       4.478   1.137   1.906  1.00  0.00     0.303 C 
ATOM      3  O   UNL     1       5.173   0.248   2.455  1.00  0.00    -0.252 OA
BRANCH   2   4
ATOM      4  O   UNL     1       3.246   1.455   2.472  1.00  0.00    -0.481 OA
ATOM      5  H   UNL     1       2.359   1.306   1.966  1.00  0.00     0.296 HD
ENDBRANCH   2   4
ENDBRANCH   1   2
BRANCH   1   6
ATOM      6  C   UNL     1       6.493   1.821   0.773  1.00  0.00     0.047 C 
BRANCH   6   7
ATOM      7  C   UNL     1       7.133   1.057  -0.330  1.00  0.00    -0.047 A 
ATOM      8  C   UNL     1       8.475   1.208  -0.620  1.00  0.00     0.004 A 
ATOM      9  C   UNL     1       6.425   0.165  -1.113  1.00  0.00     0.004 A 
ATOM     10  C   UNL     1       9.059   0.493  -1.647  1.00  0.00     0.000 A 
ATOM     11  C   UNL     1       7.005  -0.549  -2.138  1.00  0.00     0.000 A 
ATOM     12  C   UNL     1       8.346  -0.396  -2.426  1.00  0.00     0.000 A 
ENDBRANCH   6   7
ENDBRANCH   1   6
TORSDOF 4
ENDMDL
MODEL 5
REMARK VINA RESULT:      -6.7      3.820      4.949
REMARK SMILES O=C(O)CCc1ccccc1
REMARK SMILES IDX 4 1 2 2 1 3 3 4 5 6 6 7 7 8 11 9 8 10 10 11 9 12
REMARK H PARENT 3 5
REMARK Flexibility Score: inf
ROOT
ATOM      1  C   UNL     1       5.409   2.911   0.008  1.00  0.00     0.127 C 
ENDROOT
BRANCH   1   2
ATOM      2  C   UNL     1       6.204   3.878   0.809  1.00  0.00     0.303 C 
ATOM      3  O   UNL     1       6.879   4.755   0.217  1.00  0.00    -0.252 OA
BRANCH   2   4
ATOM      4  O   UNL     1       6.231   3.851   2.201  1.00  0.00    -0.481 OA
ATOM      5  H   UNL     1       5.779   4.584   2.769  1.00  0.00     0.296 HD
ENDBRANCH   2   4
ENDBRANCH   1   2
BRANCH   1   6
ATOM      6  C   UNL     1       4.868   1.876   0.955  1.00  0.00     0.047 C 
BRANCH   6   7
ATOM      7  C   UNL     1       5.685   0.634   0.966  1.00  0.00    -0.047 A 
ATOM      8  C   UNL     1       5.760  -0.162   2.092  1.00  0.00     0.004 A 
ATOM      9  C   UNL     1       6.403   0.216  -0.139  1.00  0.00     0.004 A 
ATOM     10  C   UNL     1       6.523  -1.315   2.092  1.00  0.00     0.000 A 
ATOM     11  C   UNL     1       7.163  -0.932  -0.142  1.00  0.00     0.000 A 
ATOM     12  C   UNL     1       7.237  -1.725   0.985  1.00  0.00     0.000 A 
ENDBRANCH   6   7
ENDBRANCH   1   6
TORSDOF 4
ENDMDL
