@<TRIPOS>MOLECULE
/home/cewinharhar/GITHUB/reincatalyze/data/processed/docking_pred/2023-Apr-25-2033_maxeplen5_maxtrainstep200_exh16_gamma099_lrac3e-4_lrcr1e-3/b58c38953477011b0b30fd8623da0ee842eab33b_ligand_2.pdbqt
 12 12 0 0 0
SMALL
GASTEIGER

@<TRIPOS>ATOM
      1  C          8.3690   -0.9350   -1.7900 C.3     1  UNL1        0.1270
      2  C          8.3640   -2.0030   -2.8240 C.2     1  UNL1        0.3030
      3  O          7.2700   -2.3900   -3.2990 O.2     1  UNL1       -0.2520
      4  O          9.5340   -2.5960   -3.2910 O.3     1  UNL1       -0.4810
      5  H          9.6250   -2.9290   -4.2630 H       1  UNL1        0.2960
      6  C          7.5230   -1.4120   -0.6430 C.3     1  UNL1        0.0470
      7  C          6.6380   -0.3440   -0.1080 C.2     1  UNL1       -0.0470
      8  C          6.3100    0.7610   -0.8690 C.2     1  UNL1        0.0040
      9  C          6.1020   -0.4020    1.1650 C.2     1  UNL1        0.0040
     10  C          5.4860    1.7480   -0.3620 C.2     1  UNL1        0.0000
     11  C          5.2810    0.5800    1.6730 C.2     1  UNL1        0.0000
     12  C          4.9550    1.6840    0.9100 C.2     1  UNL1        0.0000
@<TRIPOS>BOND
     1     5     4    1
     2     3     2    2
     3     4     2    1
     4     2     1    1
     5     1     6    1
     6     8    10    1
     7     8     7    2
     8     6     7    1
     9    10    12    2
    10     7     9    1
    11    12    11    1
    12     9    11    2
