@<TRIPOS>MOLECULE
/home/cewinharhar/GITHUB/reincatalyze/data/processed/docking_pred/2023-Apr-25-2033_maxeplen5_maxtrainstep200_exh16_gamma099_lrac3e-4_lrcr1e-3/b58c38953477011b0b30fd8623da0ee842eab33b_ligand_2.pdbqt
 12 12 0 0 0
SMALL
GASTEIGER

@<TRIPOS>ATOM
      1  C          5.4090    2.9110    0.0080 C.3     1  UNL1        0.1270
      2  C          6.2040    3.8780    0.8090 C.2     1  UNL1        0.3030
      3  O          6.8790    4.7550    0.2170 O.2     1  UNL1       -0.2520
      4  O          6.2310    3.8510    2.2010 O.3     1  UNL1       -0.4810
      5  H          5.7790    4.5840    2.7690 H       1  UNL1        0.2960
      6  C          4.8680    1.8760    0.9550 C.3     1  UNL1        0.0470
      7  C          5.6850    0.6340    0.9660 C.2     1  UNL1       -0.0470
      8  C          5.7600   -0.1620    2.0920 C.2     1  UNL1        0.0040
      9  C          6.4030    0.2160   -0.1390 C.2     1  UNL1        0.0040
     10  C          6.5230   -1.3150    2.0920 C.2     1  UNL1        0.0000
     11  C          7.1630   -0.9320   -0.1420 C.2     1  UNL1        0.0000
     12  C          7.2370   -1.7250    0.9850 C.2     1  UNL1        0.0000
@<TRIPOS>BOND
     1    11     9    1
     2    11    12    2
     3     9     7    2
     4     1     2    1
     5     1     6    1
     6     3     2    2
     7     2     4    1
     8     6     7    1
     9     7     8    1
    10    12    10    1
    11     8    10    2
    12     4     5    1
