@<TRIPOS>MOLECULE
/home/cewinharhar/GITHUB/reincatalyze/data/processed/docking_pred/2023-Apr-25-2033_maxeplen5_maxtrainstep200_exh16_gamma099_lrac3e-4_lrcr1e-3/b58c38953477011b0b30fd8623da0ee842eab33b_ligand_2.pdbqt
 12 12 0 0 0
SMALL
GASTEIGER

@<TRIPOS>ATOM
      1  C          8.4790   -0.6220   -2.1390 C.3     1  UNL1        0.1270
      2  C          8.4610   -1.8920   -2.9090 C.2     1  UNL1        0.3030
      3  O          9.5370   -2.5100   -3.0970 O.2     1  UNL1       -0.2520
      4  O          7.2900   -2.4300   -3.4360 O.3     1  UNL1       -0.4810
      5  H          7.1100   -2.4520   -4.4520 H       1  UNL1        0.2960
      6  C          7.0810   -0.0680   -2.1470 C.3     1  UNL1        0.0470
      7  C          6.5150    0.0630   -0.7790 C.2     1  UNL1       -0.0470
      8  C          6.6380   -0.9540    0.1470 C.2     1  UNL1        0.0040
      9  C          5.8440    1.2000   -0.3660 C.2     1  UNL1        0.0040
     10  C          6.1070   -0.8220    1.4160 C.2     1  UNL1        0.0000
     11  C          5.3140    1.3340    0.8980 C.2     1  UNL1        0.0000
     12  C          5.4380    0.3150    1.8210 C.2     1  UNL1        0.0000
@<TRIPOS>BOND
     1     5     4    1
     2     4     2    1
     3     3     2    2
     4     2     1    1
     5     6     1    1
     6     6     7    1
     7     7     9    2
     8     7     8    1
     9     9    11    1
    10     8    10    2
    11    11    12    2
    12    10    12    1
