@<TRIPOS>MOLECULE
/home/cewinharhar/GITHUB/reincatalyze/data/processed/docking_pred/2023-Apr-25-2033_maxeplen5_maxtrainstep200_exh16_gamma099_lrac3e-4_lrcr1e-3/b658f69152bbaa0d4df6d0fc1d77222c9f34aa3c_ligand_2.pdbqt
 12 12 0 0 0
SMALL
GASTEIGER

@<TRIPOS>ATOM
      1  C          5.3420    2.9470    0.0990 C.3     1  UNL1        0.1270
      2  C          6.2290    3.8550    0.8720 C.2     1  UNL1        0.3030
      3  O          6.8770    4.7410    0.2650 O.2     1  UNL1       -0.2520
      4  O          6.3700    3.7620    2.2540 O.3     1  UNL1       -0.4810
      5  H          5.8870    3.0350    2.8040 H       1  UNL1        0.2960
      6  C          5.2420    1.6550    0.8600 C.3     1  UNL1        0.0470
      7  C          6.0480    0.5680    0.2430 C.2     1  UNL1       -0.0470
      8  C          6.3300    0.5680   -1.1100 C.2     1  UNL1        0.0040
      9  C          6.5510   -0.4850    0.9820 C.2     1  UNL1        0.0040
     10  C          7.0790   -0.4470   -1.6740 C.2     1  UNL1        0.0000
     11  C          7.2990   -1.4970    0.4230 C.2     1  UNL1        0.0000
     12  C          7.5790   -1.4960   -0.9290 C.2     1  UNL1        0.0000
@<TRIPOS>BOND
     1    10     8    1
     2    10    12    2
     3     8     7    2
     4    12    11    1
     5     1     6    1
     6     1     2    1
     7     7     6    1
     8     7     9    1
     9     3     2    2
    10    11     9    2
    11     2     4    1
    12     4     5    1
