@<TRIPOS>MOLECULE
/home/cewinharhar/GITHUB/reincatalyze/data/processed/docking_pred/2023-Apr-25-2033_maxeplen5_maxtrainstep200_exh16_gamma099_lrac3e-4_lrcr1e-3/b658f69152bbaa0d4df6d0fc1d77222c9f34aa3c_ligand_2.pdbqt
 12 12 0 0 0
SMALL
GASTEIGER

@<TRIPOS>ATOM
      1  C          4.9850    1.7890    0.7010 C.3     1  UNL1        0.1270
      2  C          4.4760    1.1180    1.9250 C.2     1  UNL1        0.3030
      3  O          5.1780    0.2370    2.4780 O.2     1  UNL1       -0.2520
      4  O          3.2410    1.4300    2.4890 O.3     1  UNL1       -0.4810
      5  H          2.6930    0.7330    3.0160 H       1  UNL1        0.2960
      6  C          6.4870    1.8050    0.7850 C.3     1  UNL1        0.0470
      7  C          7.1250    1.0420   -0.3190 C.2     1  UNL1       -0.0470
      8  C          6.4060    0.1300   -1.0680 C.2     1  UNL1        0.0040
      9  C          8.4570    1.2030   -0.6510 C.2     1  UNL1        0.0040
     10  C          7.0100   -0.5740   -2.0930 C.2     1  UNL1        0.0000
     11  C          9.0610    0.5030   -1.6710 C.2     1  UNL1        0.0000
     12  C          8.3400   -0.4070   -2.4180 C.2     1  UNL1        0.0000
@<TRIPOS>BOND
     1    12    10    2
     2    12    11    1
     3    10     8    1
     4    11     9    2
     5     8     7    2
     6     9     7    1
     7     7     6    1
     8     1     6    1
     9     1     2    1
    10     2     3    2
    11     2     4    1
    12     4     5    1
