@<TRIPOS>MOLECULE
/home/cewinharhar/GITHUB/reincatalyze/data/processed/docking_pred/2023-Apr-25-2033_maxeplen5_maxtrainstep200_exh16_gamma099_lrac3e-4_lrcr1e-3/b658f69152bbaa0d4df6d0fc1d77222c9f34aa3c_ligand_2.pdbqt
 12 12 0 0 0
SMALL
GASTEIGER

@<TRIPOS>ATOM
      1  C          8.2420    0.1850   -2.2290 C.3     1  UNL1        0.1270
      2  C          9.3690    0.3460   -1.2740 C.2     1  UNL1        0.3030
      3  O          9.4390   -0.4120   -0.2770 O.2     1  UNL1       -0.2520
      4  O         10.3600    1.3100   -1.4420 O.3     1  UNL1       -0.4810
      5  H         10.4670    1.8310   -2.3260 H       1  UNL1        0.2960
      6  C          7.1650   -0.5970   -1.5310 C.3     1  UNL1        0.0470
      7  C          6.3630    0.2440   -0.6040 C.2     1  UNL1       -0.0470
      8  C          6.1090   -0.1620    0.6920 C.2     1  UNL1        0.0040
      9  C          5.8370    1.4640   -0.9870 C.2     1  UNL1        0.0040
     10  C          5.3620    0.6280    1.5450 C.2     1  UNL1        0.0000
     11  C          5.0930    2.2530   -0.1380 C.2     1  UNL1        0.0000
     12  C          4.8400    1.8450    1.1560 C.2     1  UNL1        0.0000
@<TRIPOS>BOND
     1     5     4    1
     2     1     6    1
     3     1     2    1
     4     6     7    1
     5     4     2    1
     6     2     3    2
     7     9     7    2
     8     9    11    1
     9     7     8    1
    10    11    12    2
    11     8    10    2
    12    12    10    1
