@<TRIPOS>MOLECULE
/home/cewinharhar/GITHUB/reincatalyze/data/processed/docking_pred/2023-Apr-25-2033_maxeplen5_maxtrainstep200_exh16_gamma099_lrac3e-4_lrcr1e-3/b658f69152bbaa0d4df6d0fc1d77222c9f34aa3c_ligand_2.pdbqt
 12 12 0 0 0
SMALL
GASTEIGER

@<TRIPOS>ATOM
      1  C          8.4040   -0.5670   -2.2010 C.3     1  UNL1        0.1270
      2  C          8.3910   -1.8780   -2.9000 C.2     1  UNL1        0.3030
      3  O          7.2910   -2.3950   -3.2110 O.2     1  UNL1       -0.2520
      4  O          9.5590   -2.5610   -3.2280 O.3     1  UNL1       -0.4810
      5  H         10.4490   -2.0680   -3.3990 H       1  UNL1        0.2960
      6  C          6.9890   -0.0600   -2.1630 C.3     1  UNL1        0.0470
      7  C          6.4630    0.0510   -0.7770 C.2     1  UNL1       -0.0470
      8  C          5.8320    1.2000   -0.3410 C.2     1  UNL1        0.0040
      9  C          6.5760   -0.9790    0.1380 C.2     1  UNL1        0.0040
     10  C          5.3460    1.2930    0.9490 C.2     1  UNL1        0.0000
     11  C          6.0930   -0.8890    1.4240 C.2     1  UNL1        0.0000
     12  C          5.4630    0.2600    1.8570 C.2     1  UNL1        0.0000
@<TRIPOS>BOND
     1     5     4    1
     2     4     2    1
     3     3     2    2
     4     2     1    1
     5     1     6    1
     6     6     7    1
     7     7     8    2
     8     7     9    1
     9     8    10    1
    10     9    11    2
    11    10    12    2
    12    11    12    1
