@<TRIPOS>MOLECULE
/home/cewinharhar/GITHUB/reincatalyze/data/processed/docking_pred/2023-Apr-25-2033_maxeplen5_maxtrainstep200_exh16_gamma099_lrac3e-4_lrcr1e-3/b658f69152bbaa0d4df6d0fc1d77222c9f34aa3c_ligand_2.pdbqt
 12 12 0 0 0
SMALL
GASTEIGER

@<TRIPOS>ATOM
      1  C          8.4660   -0.6490   -2.0820 C.3     1  UNL1        0.1270
      2  C          8.4290   -1.9040   -2.8760 C.2     1  UNL1        0.3030
      3  O          7.3190   -2.3920   -3.2010 O.2     1  UNL1       -0.2520
      4  O          9.5850   -2.5670   -3.2800 O.3     1  UNL1       -0.4810
      5  H         10.4250   -2.6090   -2.6830 H       1  UNL1        0.2960
      6  C          7.0910   -0.0430   -2.1300 C.3     1  UNL1        0.0470
      7  C          6.4920    0.1150   -0.7790 C.2     1  UNL1       -0.0470
      8  C          6.6030   -0.8790    0.1740 C.2     1  UNL1        0.0040
      9  C          5.8010    1.2540   -0.4090 C.2     1  UNL1        0.0040
     10  C          6.0430   -0.7220    1.4270 C.2     1  UNL1        0.0000
     11  C          5.2420    1.4130    0.8390 C.2     1  UNL1        0.0000
     12  C          5.3540    0.4180    1.7890 C.2     1  UNL1        0.0000
@<TRIPOS>BOND
     1     4     2    1
     2     4     5    1
     3     3     2    2
     4     2     1    1
     5     6     1    1
     6     6     7    1
     7     7     9    2
     8     7     8    1
     9     9    11    1
    10     8    10    2
    11    11    12    2
    12    10    12    1
