MODEL 1
REMARK VINA RESULT:      -7.2      0.000      0.000
REMARK SMILES O=C(O)CCc1ccccc1
REMARK SMILES IDX 4 1 2 2 1 3 3 4 5 6 6 7 7 8 11 9 8 10 10 11 9 12
REMARK H PARENT 3 5
REMARK Flexibility Score: inf
ROOT
ATOM      1  C   UNL     1       8.466  -0.649  -2.082  1.00  0.00     0.127 C 
ENDROOT
BRANCH   1   2
ATOM      2  C   UNL     1       8.429  -1.904  -2.876  1.00  0.00     0.303 C 
ATOM      3  O   UNL     1       7.319  -2.392  -3.201  1.00  0.00    -0.252 OA
BRANCH   2   4
ATOM      4  O   UNL     1       9.585  -2.567  -3.280  1.00  0.00    -0.481 OA
ATOM      5  H   UNL     1      10.425  -2.609  -2.683  1.00  0.00     0.296 HD
ENDBRANCH   2   4
ENDBRANCH   1   2
BRANCH   1   6
ATOM      6  C   UNL     1       7.091  -0.043  -2.130  1.00  0.00     0.047 C 
BRANCH   6   7
ATOM      7  C   UNL     1       6.492   0.115  -0.779  1.00  0.00    -0.047 A 
ATOM      8  C   UNL     1       6.603  -0.879   0.174  1.00  0.00     0.004 A 
ATOM      9  C   UNL     1       5.801   1.254  -0.409  1.00  0.00     0.004 A 
ATOM     10  C   UNL     1       6.043  -0.722   1.427  1.00  0.00     0.000 A 
ATOM     11  C   UNL     1       5.242   1.413   0.839  1.00  0.00     0.000 A 
ATOM     12  C   UNL     1       5.354   0.418   1.789  1.00  0.00     0.000 A 
ENDBRANCH   6   7
ENDBRANCH   1   6
TORSDOF 4
ENDMDL
MODEL 2
REMARK VINA RESULT:      -7.2      0.127      1.424
REMARK SMILES O=C(O)CCc1ccccc1
REMARK SMILES IDX 4 1 2 2 1 3 3 4 5 6 6 7 7 8 11 9 8 10 10 11 9 12
REMARK H PARENT 3 5
REMARK Flexibility Score: inf
ROOT
ATOM      1  C   UNL     1       8.404  -0.567  -2.201  1.00  0.00     0.127 C 
ENDROOT
BRANCH   1   2
ATOM      2  C   UNL     1       8.391  -1.878  -2.900  1.00  0.00     0.303 C 
ATOM      3  O   UNL     1       7.291  -2.395  -3.211  1.00  0.00    -0.252 OA
BRANCH   2   4
ATOM      4  O   UNL     1       9.559  -2.561  -3.228  1.00  0.00    -0.481 OA
ATOM      5  H   UNL     1      10.449  -2.068  -3.399  1.00  0.00     0.296 HD
ENDBRANCH   2   4
ENDBRANCH   1   2
BRANCH   1   6
ATOM      6  C   UNL     1       6.989  -0.060  -2.163  1.00  0.00     0.047 C 
BRANCH   6   7
ATOM      7  C   UNL     1       6.463   0.051  -0.777  1.00  0.00    -0.047 A 
ATOM      8  C   UNL     1       5.832   1.200  -0.341  1.00  0.00     0.004 A 
ATOM      9  C   UNL     1       6.576  -0.979   0.138  1.00  0.00     0.004 A 
ATOM     10  C   UNL     1       5.346   1.293   0.949  1.00  0.00     0.000 A 
ATOM     11  C   UNL     1       6.093  -0.889   1.424  1.00  0.00     0.000 A 
ATOM     12  C   UNL     1       5.463   0.260   1.857  1.00  0.00     0.000 A 
ENDBRANCH   6   7
ENDBRANCH   1   6
TORSDOF 4
ENDMDL
MODEL 3
REMARK VINA RESULT:      -6.8      3.296      5.158
REMARK SMILES O=C(O)CCc1ccccc1
REMARK SMILES IDX 4 1 2 2 1 3 3 4 5 6 6 7 7 8 11 9 8 10 10 11 9 12
REMARK H PARENT 3 5
REMARK Flexibility Score: inf
ROOT
ATOM      1  C   UNL     1       4.985   1.789   0.701  1.00  0.00     0.127 C 
ENDROOT
BRANCH   1   2
ATOM      2  C   UNL     1       4.476   1.118   1.925  1.00  0.00     0.303 C 
ATOM      3  O   UNL     1       5.178   0.237   2.478  1.00  0.00    -0.252 OA
BRANCH   2   4
ATOM      4  O   UNL     1       3.241   1.430   2.489  1.00  0.00    -0.481 OA
ATOM      5  H   UNL     1       2.693   0.733   3.016  1.00  0.00     0.296 HD
ENDBRANCH   2   4
ENDBRANCH   1   2
BRANCH   1   6
ATOM      6  C   UNL     1       6.487   1.805   0.785  1.00  0.00     0.047 C 
BRANCH   6   7
ATOM      7  C   UNL     1       7.125   1.042  -0.319  1.00  0.00    -0.047 A 
ATOM      8  C   UNL     1       6.406   0.130  -1.068  1.00  0.00     0.004 A 
ATOM      9  C   UNL     1       8.457   1.203  -0.651  1.00  0.00     0.004 A 
ATOM     10  C   UNL     1       7.010  -0.574  -2.093  1.00  0.00     0.000 A 
ATOM     11  C   UNL     1       9.061   0.503  -1.671  1.00  0.00     0.000 A 
ATOM     12  C   UNL     1       8.340  -0.407  -2.418  1.00  0.00     0.000 A 
ENDBRANCH   6   7
ENDBRANCH   1   6
TORSDOF 4
ENDMDL
MODEL 4
REMARK VINA RESULT:      -6.6      1.908      2.217
REMARK SMILES O=C(O)CCc1ccccc1
REMARK SMILES IDX 4 1 2 2 1 3 3 4 5 6 6 7 7 8 11 9 8 10 10 11 9 12
REMARK H PARENT 3 5
REMARK Flexibility Score: inf
ROOT
ATOM      1  C   UNL     1       8.242   0.185  -2.229  1.00  0.00     0.127 C 
ENDROOT
BRANCH   1   2
ATOM      2  C   UNL     1       9.369   0.346  -1.274  1.00  0.00     0.303 C 
ATOM      3  O   UNL     1       9.439  -0.412  -0.277  1.00  0.00    -0.252 OA
BRANCH   2   4
ATOM      4  O   UNL     1      10.360   1.310  -1.442  1.00  0.00    -0.481 OA
ATOM      5  H   UNL     1      10.467   1.831  -2.326  1.00  0.00     0.296 HD
ENDBRANCH   2   4
ENDBRANCH   1   2
BRANCH   1   6
ATOM      6  C   UNL     1       7.165  -0.597  -1.531  1.00  0.00     0.047 C 
BRANCH   6   7
ATOM      7  C   UNL     1       6.363   0.244  -0.604  1.00  0.00    -0.047 A 
ATOM      8  C   UNL     1       6.109  -0.162   0.692  1.00  0.00     0.004 A 
ATOM      9  C   UNL     1       5.837   1.464  -0.987  1.00  0.00     0.004 A 
ATOM     10  C   UNL     1       5.362   0.628   1.545  1.00  0.00     0.000 A 
ATOM     11  C   UNL     1       5.093   2.253  -0.138  1.00  0.00     0.000 A 
ATOM     12  C   UNL     1       4.840   1.845   1.156  1.00  0.00     0.000 A 
ENDBRANCH   6   7
ENDBRANCH   1   6
TORSDOF 4
ENDMDL
MODEL 5
REMARK VINA RESULT:      -6.5      3.676      5.128
REMARK SMILES O=C(O)CCc1ccccc1
REMARK SMILES IDX 4 1 2 2 1 3 3 4 5 6 6 7 7 8 11 9 8 10 10 11 9 12
REMARK H PARENT 3 5
REMARK Flexibility Score: inf
ROOT
ATOM      1  C   UNL     1       5.342   2.947   0.099  1.00  0.00     0.127 C 
ENDROOT
BRANCH   1   2
ATOM      2  C   UNL     1       6.229   3.855   0.872  1.00  0.00     0.303 C 
ATOM      3  O   UNL     1       6.877   4.741   0.265  1.00  0.00    -0.252 OA
BRANCH   2   4
ATOM      4  O   UNL     1       6.370   3.762   2.254  1.00  0.00    -0.481 OA
ATOM      5  H   UNL     1       5.887   3.035   2.804  1.00  0.00     0.296 HD
ENDBRANCH   2   4
ENDBRANCH   1   2
BRANCH   1   6
ATOM      6  C   UNL     1       5.242   1.655   0.860  1.00  0.00     0.047 C 
BRANCH   6   7
ATOM      7  C   UNL     1       6.048   0.568   0.243  1.00  0.00    -0.047 A 
ATOM      8  C   UNL     1       6.330   0.568  -1.110  1.00  0.00     0.004 A 
ATOM      9  C   UNL     1       6.551  -0.485   0.982  1.00  0.00     0.004 A 
ATOM     10  C   UNL     1       7.079  -0.447  -1.674  1.00  0.00     0.000 A 
ATOM     11  C   UNL     1       7.299  -1.497   0.423  1.00  0.00     0.000 A 
ATOM     12  C   UNL     1       7.579  -1.496  -0.929  1.00  0.00     0.000 A 
ENDBRANCH   6   7
ENDBRANCH   1   6
TORSDOF 4
ENDMDL
