@<TRIPOS>MOLECULE
/home/cewinharhar/GITHUB/reincatalyze/data/processed/docking_pred/2023-Apr-25-2033_maxeplen5_maxtrainstep200_exh16_gamma099_lrac3e-4_lrcr1e-3/b8d8050f43b71ccf975db7ed0a80e234855f027b_ligand_2.pdbqt
 12 12 0 0 0
SMALL
GASTEIGER

@<TRIPOS>ATOM
      1  C          8.4640   -0.6220   -2.1510 C.3     1  UNL1        0.1270
      2  C          8.4550   -1.9010   -2.9070 C.2     1  UNL1        0.3030
      3  O          9.5360   -2.5130   -3.0870 O.2     1  UNL1       -0.2520
      4  O          7.2880   -2.4540   -3.4280 O.3     1  UNL1       -0.4810
      5  H          6.4640   -1.8750   -3.6490 H       1  UNL1        0.2960
      6  C          7.0570   -0.0900   -2.1460 C.3     1  UNL1        0.0470
      7  C          6.5020    0.0330   -0.7720 C.2     1  UNL1       -0.0470
      8  C          6.6210   -0.9960    0.1420 C.2     1  UNL1        0.0040
      9  C          5.8460    1.1710   -0.3430 C.2     1  UNL1        0.0040
     10  C          6.1010   -0.8720    1.4160 C.2     1  UNL1        0.0000
     11  C          5.3270    1.2970    0.9260 C.2     1  UNL1        0.0000
     12  C          5.4470    0.2670    1.8370 C.2     1  UNL1        0.0000
@<TRIPOS>BOND
     1     5     4    1
     2     4     2    1
     3     3     2    2
     4     2     1    1
     5     1     6    1
     6     6     7    1
     7     7     9    2
     8     7     8    1
     9     9    11    1
    10     8    10    2
    11    11    12    2
    12    10    12    1
