@<TRIPOS>MOLECULE
/home/cewinharhar/GITHUB/reincatalyze/data/processed/docking_pred/2023-Apr-25-2033_maxeplen5_maxtrainstep200_exh16_gamma099_lrac3e-4_lrcr1e-3/b8d8050f43b71ccf975db7ed0a80e234855f027b_ligand_2.pdbqt
 12 12 0 0 0
SMALL
GASTEIGER

@<TRIPOS>ATOM
      1  C          8.1830    0.2460   -2.1570 C.3     1  UNL1        0.1270
      2  C          9.3570    0.3400   -1.2510 C.2     1  UNL1        0.3030
      3  O          9.4300   -0.4280   -0.2610 O.2     1  UNL1       -0.2520
      4  O         10.3890    1.2530   -1.4560 O.3     1  UNL1       -0.4810
      5  H         10.5970    1.6370   -2.3910 H       1  UNL1        0.2960
      6  C          7.1580   -0.6210   -1.4810 C.3     1  UNL1        0.0470
      7  C          6.3670    0.1210   -0.4650 C.2     1  UNL1       -0.0470
      8  C          5.8140    1.3550   -0.7510 C.2     1  UNL1        0.0040
      9  C          6.1460   -0.3790    0.8040 C.2     1  UNL1        0.0040
     10  C          5.0810    2.0370    0.2010 C.2     1  UNL1        0.0000
     11  C          5.4150    0.2990    1.7540 C.2     1  UNL1        0.0000
     12  C          4.8640    1.5310    1.4670 C.2     1  UNL1        0.0000
@<TRIPOS>BOND
     1     5     4    1
     2     1     6    1
     3     1     2    1
     4     6     7    1
     5     4     2    1
     6     2     3    2
     7     8     7    2
     8     8    10    1
     9     7     9    1
    10    10    12    2
    11     9    11    2
    12    12    11    1
