@<TRIPOS>MOLECULE
/home/cewinharhar/GITHUB/reincatalyze/data/processed/docking_pred/2023-Apr-25-2033_maxeplen5_maxtrainstep200_exh16_gamma099_lrac3e-4_lrcr1e-3/b8d8050f43b71ccf975db7ed0a80e234855f027b_ligand_2.pdbqt
 12 12 0 0 0
SMALL
GASTEIGER

@<TRIPOS>ATOM
      1  C          5.4400    2.9060   -0.0140 C.3     1  UNL1        0.1270
      2  C          6.2840    3.8040    0.8170 C.2     1  UNL1        0.3030
      3  O          7.2830    4.3580    0.2990 O.2     1  UNL1       -0.2520
      4  O          6.0080    4.0580    2.1580 O.3     1  UNL1       -0.4810
      5  H          5.7970    5.0080    2.5000 H       1  UNL1        0.2960
      6  C          4.8540    1.8630    0.8970 C.3     1  UNL1        0.0470
      7  C          5.6720    0.6230    0.9400 C.2     1  UNL1       -0.0470
      8  C          5.7750   -0.1270    2.0950 C.2     1  UNL1        0.0040
      9  C          6.3630    0.1590   -0.1650 C.2     1  UNL1        0.0040
     10  C          6.5380   -1.2790    2.1240 C.2     1  UNL1        0.0000
     11  C          7.1230   -0.9890   -0.1390 C.2     1  UNL1        0.0000
     12  C          7.2250   -1.7350    1.0180 C.2     1  UNL1        0.0000
@<TRIPOS>BOND
     1     9    11    1
     2     9     7    2
     3    11    12    2
     4     1     2    1
     5     1     6    1
     6     3     2    2
     7     2     4    1
     8     6     7    1
     9     7     8    1
    10    12    10    1
    11     8    10    2
    12     4     5    1
