MODEL 1
REMARK VINA RESULT:      -7.3      0.000      0.000
REMARK SMILES O=C(O)CCc1ccccc1
REMARK SMILES IDX 4 1 2 2 1 3 3 4 5 6 6 7 7 8 11 9 8 10 10 11 9 12
REMARK H PARENT 3 5
REMARK Flexibility Score: inf
ROOT
ATOM      1  C   UNL     1       8.464  -0.622  -2.151  1.00  0.00     0.127 C 
ENDROOT
BRANCH   1   2
ATOM      2  C   UNL     1       8.455  -1.901  -2.907  1.00  0.00     0.303 C 
ATOM      3  O   UNL     1       9.536  -2.513  -3.087  1.00  0.00    -0.252 OA
BRANCH   2   4
ATOM      4  O   UNL     1       7.288  -2.454  -3.428  1.00  0.00    -0.481 OA
ATOM      5  H   UNL     1       6.464  -1.875  -3.649  1.00  0.00     0.296 HD
ENDBRANCH   2   4
ENDBRANCH   1   2
BRANCH   1   6
ATOM      6  C   UNL     1       7.057  -0.090  -2.146  1.00  0.00     0.047 C 
BRANCH   6   7
ATOM      7  C   UNL     1       6.502   0.033  -0.772  1.00  0.00    -0.047 A 
ATOM      8  C   UNL     1       6.621  -0.996   0.142  1.00  0.00     0.004 A 
ATOM      9  C   UNL     1       5.846   1.171  -0.343  1.00  0.00     0.004 A 
ATOM     10  C   UNL     1       6.101  -0.872   1.416  1.00  0.00     0.000 A 
ATOM     11  C   UNL     1       5.327   1.297   0.926  1.00  0.00     0.000 A 
ATOM     12  C   UNL     1       5.447   0.267   1.837  1.00  0.00     0.000 A 
ENDBRANCH   6   7
ENDBRANCH   1   6
TORSDOF 4
ENDMDL
MODEL 2
REMARK VINA RESULT:      -7.2      0.187      1.722
REMARK SMILES O=C(O)CCc1ccccc1
REMARK SMILES IDX 4 1 2 2 1 3 3 4 5 6 6 7 7 8 11 9 8 10 10 11 9 12
REMARK H PARENT 3 5
REMARK Flexibility Score: inf
ROOT
ATOM      1  C   UNL     1       8.455  -0.721  -1.987  1.00  0.00     0.127 C 
ENDROOT
BRANCH   1   2
ATOM      2  C   UNL     1       8.428  -1.931  -2.849  1.00  0.00     0.303 C 
ATOM      3  O   UNL     1       7.321  -2.405  -3.205  1.00  0.00    -0.252 OA
BRANCH   2   4
ATOM      4  O   UNL     1       9.589  -2.565  -3.284  1.00  0.00    -0.481 OA
ATOM      5  H   UNL     1       9.602  -3.154  -4.130  1.00  0.00     0.296 HD
ENDBRANCH   2   4
ENDBRANCH   1   2
BRANCH   1   6
ATOM      6  C   UNL     1       7.099  -0.076  -2.069  1.00  0.00     0.047 C 
BRANCH   6   7
ATOM      7  C   UNL     1       6.480   0.117  -0.732  1.00  0.00    -0.047 A 
ATOM      8  C   UNL     1       5.802   1.279  -0.418  1.00  0.00     0.004 A 
ATOM      9  C   UNL     1       6.548  -0.847   0.256  1.00  0.00     0.004 A 
ATOM     10  C   UNL     1       5.230   1.448   0.829  1.00  0.00     0.000 A 
ATOM     11  C   UNL     1       5.979  -0.681   1.499  1.00  0.00     0.000 A 
ATOM     12  C   UNL     1       5.303   0.481   1.810  1.00  0.00     0.000 A 
ENDBRANCH   6   7
ENDBRANCH   1   6
TORSDOF 4
ENDMDL
MODEL 3
REMARK VINA RESULT:      -6.8      3.388      5.076
REMARK SMILES O=C(O)CCc1ccccc1
REMARK SMILES IDX 4 1 2 2 1 3 3 4 5 6 6 7 7 8 11 9 8 10 10 11 9 12
REMARK H PARENT 3 5
REMARK Flexibility Score: inf
ROOT
ATOM      1  C   UNL     1       4.990   1.748   0.716  1.00  0.00     0.127 C 
ENDROOT
BRANCH   1   2
ATOM      2  C   UNL     1       4.458   1.096   1.940  1.00  0.00     0.303 C 
ATOM      3  O   UNL     1       5.135   0.201   2.502  1.00  0.00    -0.252 OA
BRANCH   2   4
ATOM      4  O   UNL     1       3.228   1.440   2.496  1.00  0.00    -0.481 OA
ATOM      5  H   UNL     1       2.405   0.823   2.421  1.00  0.00     0.296 HD
ENDBRANCH   2   4
ENDBRANCH   1   2
BRANCH   1   6
ATOM      6  C   UNL     1       6.491   1.745   0.818  1.00  0.00     0.047 C 
BRANCH   6   7
ATOM      7  C   UNL     1       7.134   0.991  -0.289  1.00  0.00    -0.047 A 
ATOM      8  C   UNL     1       6.436   0.037  -1.005  1.00  0.00     0.004 A 
ATOM      9  C   UNL     1       8.450   1.202  -0.656  1.00  0.00     0.004 A 
ATOM     10  C   UNL     1       7.044  -0.658  -2.033  1.00  0.00     0.000 A 
ATOM     11  C   UNL     1       9.058   0.511  -1.680  1.00  0.00     0.000 A 
ATOM     12  C   UNL     1       8.358  -0.442  -2.394  1.00  0.00     0.000 A 
ENDBRANCH   6   7
ENDBRANCH   1   6
TORSDOF 4
ENDMDL
MODEL 4
REMARK VINA RESULT:      -6.5      1.917      2.618
REMARK SMILES O=C(O)CCc1ccccc1
REMARK SMILES IDX 4 1 2 2 1 3 3 4 5 6 6 7 7 8 11 9 8 10 10 11 9 12
REMARK H PARENT 3 5
REMARK Flexibility Score: inf
ROOT
ATOM      1  C   UNL     1       8.183   0.246  -2.157  1.00  0.00     0.127 C 
ENDROOT
BRANCH   1   2
ATOM      2  C   UNL     1       9.357   0.340  -1.251  1.00  0.00     0.303 C 
ATOM      3  O   UNL     1       9.430  -0.428  -0.261  1.00  0.00    -0.252 OA
BRANCH   2   4
ATOM      4  O   UNL     1      10.389   1.253  -1.456  1.00  0.00    -0.481 OA
ATOM      5  H   UNL     1      10.597   1.637  -2.391  1.00  0.00     0.296 HD
ENDBRANCH   2   4
ENDBRANCH   1   2
BRANCH   1   6
ATOM      6  C   UNL     1       7.158  -0.621  -1.481  1.00  0.00     0.047 C 
BRANCH   6   7
ATOM      7  C   UNL     1       6.367   0.121  -0.465  1.00  0.00    -0.047 A 
ATOM      8  C   UNL     1       5.814   1.355  -0.751  1.00  0.00     0.004 A 
ATOM      9  C   UNL     1       6.146  -0.379   0.804  1.00  0.00     0.004 A 
ATOM     10  C   UNL     1       5.081   2.037   0.201  1.00  0.00     0.000 A 
ATOM     11  C   UNL     1       5.415   0.299   1.754  1.00  0.00     0.000 A 
ATOM     12  C   UNL     1       4.864   1.531   1.467  1.00  0.00     0.000 A 
ENDBRANCH   6   7
ENDBRANCH   1   6
TORSDOF 4
ENDMDL
MODEL 5
REMARK VINA RESULT:      -6.4      3.702      4.890
REMARK SMILES O=C(O)CCc1ccccc1
REMARK SMILES IDX 4 1 2 2 1 3 3 4 5 6 6 7 7 8 11 9 8 10 10 11 9 12
REMARK H PARENT 3 5
REMARK Flexibility Score: inf
ROOT
ATOM      1  C   UNL     1       5.440   2.906  -0.014  1.00  0.00     0.127 C 
ENDROOT
BRANCH   1   2
ATOM      2  C   UNL     1       6.284   3.804   0.817  1.00  0.00     0.303 C 
ATOM      3  O   UNL     1       7.283   4.358   0.299  1.00  0.00    -0.252 OA
BRANCH   2   4
ATOM      4  O   UNL     1       6.008   4.058   2.158  1.00  0.00    -0.481 OA
ATOM      5  H   UNL     1       5.797   5.008   2.500  1.00  0.00     0.296 HD
ENDBRANCH   2   4
ENDBRANCH   1   2
BRANCH   1   6
ATOM      6  C   UNL     1       4.854   1.863   0.897  1.00  0.00     0.047 C 
BRANCH   6   7
ATOM      7  C   UNL     1       5.672   0.623   0.940  1.00  0.00    -0.047 A 
ATOM      8  C   UNL     1       5.775  -0.127   2.095  1.00  0.00     0.004 A 
ATOM      9  C   UNL     1       6.363   0.159  -0.165  1.00  0.00     0.004 A 
ATOM     10  C   UNL     1       6.538  -1.279   2.124  1.00  0.00     0.000 A 
ATOM     11  C   UNL     1       7.123  -0.989  -0.139  1.00  0.00     0.000 A 
ATOM     12  C   UNL     1       7.225  -1.735   1.018  1.00  0.00     0.000 A 
ENDBRANCH   6   7
ENDBRANCH   1   6
TORSDOF 4
ENDMDL
