@<TRIPOS>MOLECULE
/home/cewinharhar/GITHUB/reincatalyze/data/processed/docking_pred/2023-Apr-25-2033_maxeplen5_maxtrainstep200_exh16_gamma099_lrac3e-4_lrcr1e-3/b8d8050f43b71ccf975db7ed0a80e234855f027b_ligand_2.pdbqt
 12 12 0 0 0
SMALL
GASTEIGER

@<TRIPOS>ATOM
      1  C          4.9900    1.7480    0.7160 C.3     1  UNL1        0.1270
      2  C          4.4580    1.0960    1.9400 C.2     1  UNL1        0.3030
      3  O          5.1350    0.2010    2.5020 O.2     1  UNL1       -0.2520
      4  O          3.2280    1.4400    2.4960 O.3     1  UNL1       -0.4810
      5  H          2.4050    0.8230    2.4210 H       1  UNL1        0.2960
      6  C          6.4910    1.7450    0.8180 C.3     1  UNL1        0.0470
      7  C          7.1340    0.9910   -0.2890 C.2     1  UNL1       -0.0470
      8  C          6.4360    0.0370   -1.0050 C.2     1  UNL1        0.0040
      9  C          8.4500    1.2020   -0.6560 C.2     1  UNL1        0.0040
     10  C          7.0440   -0.6580   -2.0330 C.2     1  UNL1        0.0000
     11  C          9.0580    0.5110   -1.6800 C.2     1  UNL1        0.0000
     12  C          8.3580   -0.4420   -2.3940 C.2     1  UNL1        0.0000
@<TRIPOS>BOND
     1    12    10    2
     2    12    11    1
     3    10     8    1
     4    11     9    2
     5     8     7    2
     6     9     7    1
     7     7     6    1
     8     1     6    1
     9     1     2    1
    10     2     4    1
    11     2     3    2
    12     5     4    1
