@<TRIPOS>MOLECULE
/home/cewinharhar/GITHUB/reincatalyze/data/processed/docking_pred/2023-Apr-25-2033_maxeplen5_maxtrainstep200_exh16_gamma099_lrac3e-4_lrcr1e-3/b99eeed02ad73e34178363463c07c25b6fbf2bee_ligand_2.pdbqt
 12 12 0 0 0
SMALL
GASTEIGER

@<TRIPOS>ATOM
      1  C          5.0270    1.7480    0.7240 C.3     1  UNL1        0.1270
      2  C          4.5450    1.0370    1.9360 C.2     1  UNL1        0.3030
      3  O          5.2770    0.1680    2.4690 O.2     1  UNL1       -0.2520
      4  O          3.3040    1.2980    2.5120 O.3     1  UNL1       -0.4810
      5  H          2.5220    1.6910    1.9650 H       1  UNL1        0.2960
      6  C          6.5280    1.7900    0.7910 C.3     1  UNL1        0.0470
      7  C          7.1680    1.0360   -0.3190 C.2     1  UNL1       -0.0470
      8  C          6.4540    0.1200   -1.0660 C.2     1  UNL1        0.0040
      9  C          8.4960    1.2130   -0.6580 C.2     1  UNL1        0.0040
     10  C          7.0580   -0.5750   -2.0960 C.2     1  UNL1        0.0000
     11  C          9.1010    0.5220   -1.6840 C.2     1  UNL1        0.0000
     12  C          8.3850   -0.3940   -2.4290 C.2     1  UNL1        0.0000
@<TRIPOS>BOND
     1    12    10    2
     2    12    11    1
     3    10     8    1
     4    11     9    2
     5     8     7    2
     6     9     7    1
     7     7     6    1
     8     1     6    1
     9     1     2    1
    10     2     3    2
    11     2     4    1
    12     5     4    1
