@<TRIPOS>MOLECULE
/home/cewinharhar/GITHUB/reincatalyze/data/processed/docking_pred/2023-Apr-25-2033_maxeplen5_maxtrainstep200_exh16_gamma099_lrac3e-4_lrcr1e-3/b99eeed02ad73e34178363463c07c25b6fbf2bee_ligand_2.pdbqt
 12 12 0 0 0
SMALL
GASTEIGER

@<TRIPOS>ATOM
      1  C          8.2740   -0.9230   -1.8390 C.3     1  UNL1        0.1270
      2  C          8.3600   -2.0130   -2.8450 C.2     1  UNL1        0.3030
      3  O          7.3030   -2.4790   -3.3350 O.2     1  UNL1       -0.2520
      4  O          9.5750   -2.5440   -3.2710 O.3     1  UNL1       -0.4810
      5  H         10.4240   -1.9630   -3.3500 H       1  UNL1        0.2960
      6  C          7.3820   -1.4020   -0.7270 C.3     1  UNL1        0.0470
      7  C          6.5540   -0.3100   -0.1530 C.2     1  UNL1       -0.0470
      8  C          6.0970   -0.3680    1.1490 C.2     1  UNL1        0.0040
      9  C          6.2040    0.8100   -0.8840 C.2     1  UNL1        0.0040
     10  C          5.3270    0.6540    1.6730 C.2     1  UNL1        0.0000
     11  C          5.4380    1.8290   -0.3640 C.2     1  UNL1        0.0000
     12  C          4.9820    1.7680    0.9370 C.2     1  UNL1        0.0000
@<TRIPOS>BOND
     1     5     4    1
     2     3     2    2
     3     4     2    1
     4     2     1    1
     5     1     6    1
     6     9    11    1
     7     9     7    2
     8     6     7    1
     9    11    12    2
    10     7     8    1
    11    12    10    1
    12     8    10    2
