@<TRIPOS>MOLECULE
/home/cewinharhar/GITHUB/reincatalyze/data/processed/docking_pred/2023-Apr-25-2033_maxeplen5_maxtrainstep200_exh16_gamma099_lrac3e-4_lrcr1e-3/b99eeed02ad73e34178363463c07c25b6fbf2bee_ligand_2.pdbqt
 12 12 0 0 0
SMALL
GASTEIGER

@<TRIPOS>ATOM
      1  C          8.4630   -0.5900   -2.1760 C.3     1  UNL1        0.1270
      2  C          8.4700   -1.8810   -2.9130 C.2     1  UNL1        0.3030
      3  O          9.5590   -2.4780   -3.0930 O.2     1  UNL1       -0.2520
      4  O          7.3080   -2.4600   -3.4160 O.3     1  UNL1       -0.4810
      5  H          6.3710   -2.1140   -3.1570 H       1  UNL1        0.2960
      6  C          7.0500   -0.0760   -2.1760 C.3     1  UNL1        0.0470
      7  C          6.4960    0.0600   -0.8040 C.2     1  UNL1       -0.0470
      8  C          6.6110   -0.9620    0.1190 C.2     1  UNL1        0.0040
      9  C          5.8460    1.2050   -0.3840 C.2     1  UNL1        0.0040
     10  C          6.0920   -0.8240    1.3920 C.2     1  UNL1        0.0000
     11  C          5.3280    1.3450    0.8850 C.2     1  UNL1        0.0000
     12  C          5.4430    0.3220    1.8040 C.2     1  UNL1        0.0000
@<TRIPOS>BOND
     1     4     5    1
     2     4     2    1
     3     3     2    2
     4     2     1    1
     5     1     6    1
     6     6     7    1
     7     7     9    2
     8     7     8    1
     9     9    11    1
    10     8    10    2
    11    11    12    2
    12    10    12    1
