@<TRIPOS>MOLECULE
/home/cewinharhar/GITHUB/reincatalyze/data/processed/docking_pred/2023-Apr-25-2033_maxeplen5_maxtrainstep200_exh16_gamma099_lrac3e-4_lrcr1e-3/b99eeed02ad73e34178363463c07c25b6fbf2bee_ligand_2.pdbqt
 12 12 0 0 0
SMALL
GASTEIGER

@<TRIPOS>ATOM
      1  C          5.4560    2.8990   -0.0040 C.3     1  UNL1        0.1270
      2  C          6.2350    3.8650    0.8140 C.2     1  UNL1        0.3030
      3  O          6.8790    4.7750    0.2370 O.2     1  UNL1       -0.2520
      4  O          6.2810    3.8020    2.2040 O.3     1  UNL1       -0.4810
      5  H          6.9810    3.2290    2.7000 H       1  UNL1        0.2960
      6  C          4.9010    1.8600    0.9310 C.3     1  UNL1        0.0470
      7  C          5.7110    0.6130    0.9380 C.2     1  UNL1       -0.0470
      8  C          5.8130   -0.1670    2.0730 C.2     1  UNL1        0.0040
      9  C          6.3960    0.1740   -0.1800 C.2     1  UNL1        0.0040
     10  C          6.5690   -1.3240    2.0690 C.2     1  UNL1        0.0000
     11  C          7.1490   -0.9780   -0.1870 C.2     1  UNL1        0.0000
     12  C          7.2500   -1.7560    0.9490 C.2     1  UNL1        0.0000
@<TRIPOS>BOND
     1    11     9    1
     2    11    12    2
     3     9     7    2
     4     1     2    1
     5     1     6    1
     6     3     2    2
     7     2     4    1
     8     6     7    1
     9     7     8    1
    10    12    10    1
    11    10     8    2
    12     4     5    1
