@<TRIPOS>MOLECULE
/home/cewinharhar/GITHUB/reincatalyze/data/processed/docking_pred/2023-Apr-25-2033_maxeplen5_maxtrainstep200_exh16_gamma099_lrac3e-4_lrcr1e-3/b99eeed02ad73e34178363463c07c25b6fbf2bee_ligand_2.pdbqt
 12 12 0 0 0
SMALL
GASTEIGER

@<TRIPOS>ATOM
      1  C          8.4190   -0.5490   -2.2540 C.3     1  UNL1        0.1270
      2  C          8.4400   -1.8690   -2.9370 C.2     1  UNL1        0.3030
      3  O          9.5350   -2.4610   -3.0910 O.2     1  UNL1       -0.2520
      4  O          7.2850   -2.4800   -3.4180 O.3     1  UNL1       -0.4810
      5  H          6.8410   -2.1860   -4.3010 H       1  UNL1        0.2960
      6  C          6.9900   -0.0830   -2.2130 C.3     1  UNL1        0.0470
      7  C          6.4770    0.0520   -0.8240 C.2     1  UNL1       -0.0470
      8  C          5.8580    1.2120   -0.4000 C.2     1  UNL1        0.0040
      9  C          6.5900   -0.9660    0.1040 C.2     1  UNL1        0.0040
     10  C          5.3840    1.3280    0.8930 C.2     1  UNL1        0.0000
     11  C          6.1190   -0.8530    1.3930 C.2     1  UNL1        0.0000
     12  C          5.5010    0.3080    1.8140 C.2     1  UNL1        0.0000
@<TRIPOS>BOND
     1     5     4    1
     2     4     2    1
     3     3     2    2
     4     2     1    1
     5     1     6    1
     6     6     7    1
     7     7     8    2
     8     7     9    1
     9     8    10    1
    10     9    11    2
    11    10    12    2
    12    11    12    1
