MODEL 1
REMARK VINA RESULT:      -7.3      0.000      0.000
REMARK SMILES O=C(O)CCc1ccccc1
REMARK SMILES IDX 4 1 2 2 1 3 3 4 5 6 6 7 7 8 11 9 8 10 10 11 9 12
REMARK H PARENT 3 5
REMARK Flexibility Score: inf
ROOT
ATOM      1  C   UNL     1       8.451  -0.587  -2.188  1.00  0.00     0.127 C 
ENDROOT
BRANCH   1   2
ATOM      2  C   UNL     1       8.455  -1.883  -2.916  1.00  0.00     0.303 C 
ATOM      3  O   UNL     1       9.542  -2.486  -3.088  1.00  0.00    -0.252 OA
BRANCH   2   4
ATOM      4  O   UNL     1       7.292  -2.462  -3.418  1.00  0.00    -0.481 OA
ATOM      5  H   UNL     1       7.021  -2.367  -4.409  1.00  0.00     0.296 HD
ENDBRANCH   2   4
ENDBRANCH   1   2
BRANCH   1   6
ATOM      6  C   UNL     1       7.036  -0.081  -2.174  1.00  0.00     0.047 C 
BRANCH   6   7
ATOM      7  C   UNL     1       6.494   0.050  -0.796  1.00  0.00    -0.047 A 
ATOM      8  C   UNL     1       5.854   1.204  -0.386  1.00  0.00     0.004 A 
ATOM      9  C   UNL     1       6.599  -0.966   0.135  1.00  0.00     0.004 A 
ATOM     10  C   UNL     1       5.354   1.315   0.898  1.00  0.00     0.000 A 
ATOM     11  C   UNL     1       6.101  -0.857   1.415  1.00  0.00     0.000 A 
ATOM     12  C   UNL     1       5.463   0.297   1.822  1.00  0.00     0.000 A 
ENDBRANCH   6   7
ENDBRANCH   1   6
TORSDOF 4
ENDMDL
MODEL 2
REMARK VINA RESULT:      -7.3      0.112      1.719
REMARK SMILES O=C(O)CCc1ccccc1
REMARK SMILES IDX 4 1 2 2 1 3 3 4 5 6 6 7 7 8 11 9 8 10 10 11 9 12
REMARK H PARENT 3 5
REMARK Flexibility Score: inf
ROOT
ATOM      1  C   UNL     1       8.420  -0.643  -2.109  1.00  0.00     0.127 C 
ENDROOT
BRANCH   1   2
ATOM      2  C   UNL     1       8.409  -1.921  -2.866  1.00  0.00     0.303 C 
ATOM      3  O   UNL     1       7.309  -2.425  -3.200  1.00  0.00    -0.252 OA
BRANCH   2   4
ATOM      4  O   UNL     1       9.577  -2.588  -3.225  1.00  0.00    -0.481 OA
ATOM      5  H   UNL     1      10.364  -2.700  -2.567  1.00  0.00     0.296 HD
ENDBRANCH   2   4
ENDBRANCH   1   2
BRANCH   1   6
ATOM      6  C   UNL     1       7.020  -0.094  -2.125  1.00  0.00     0.047 C 
BRANCH   6   7
ATOM      7  C   UNL     1       6.455   0.060  -0.759  1.00  0.00    -0.047 A 
ATOM      8  C   UNL     1       6.560  -0.951   0.177  1.00  0.00     0.004 A 
ATOM      9  C   UNL     1       5.802   1.210  -0.359  1.00  0.00     0.004 A 
ATOM     10  C   UNL     1       6.031  -0.797   1.444  1.00  0.00     0.000 A 
ATOM     11  C   UNL     1       5.273   1.366   0.903  1.00  0.00     0.000 A 
ATOM     12  C   UNL     1       5.380   0.354   1.836  1.00  0.00     0.000 A 
ENDBRANCH   6   7
ENDBRANCH   1   6
TORSDOF 4
ENDMDL
MODEL 3
REMARK VINA RESULT:      -6.8      3.374      5.062
REMARK SMILES O=C(O)CCc1ccccc1
REMARK SMILES IDX 4 1 2 2 1 3 3 4 5 6 6 7 7 8 11 9 8 10 10 11 9 12
REMARK H PARENT 3 5
REMARK Flexibility Score: inf
ROOT
ATOM      1  C   UNL     1       4.996   1.732   0.670  1.00  0.00     0.127 C 
ENDROOT
BRANCH   1   2
ATOM      2  C   UNL     1       4.499   1.096   1.918  1.00  0.00     0.303 C 
ATOM      3  O   UNL     1       5.210   0.236   2.492  1.00  0.00    -0.252 OA
BRANCH   2   4
ATOM      4  O   UNL     1       3.267   1.417   2.481  1.00  0.00    -0.481 OA
ATOM      5  H   UNL     1       2.940   2.393   2.554  1.00  0.00     0.296 HD
ENDBRANCH   2   4
ENDBRANCH   1   2
BRANCH   1   6
ATOM      6  C   UNL     1       6.497   1.777   0.752  1.00  0.00     0.047 C 
BRANCH   6   7
ATOM      7  C   UNL     1       7.149   1.011  -0.343  1.00  0.00    -0.047 A 
ATOM      8  C   UNL     1       8.482   1.198  -0.651  1.00  0.00     0.004 A 
ATOM      9  C   UNL     1       6.461   0.081  -1.100  1.00  0.00     0.004 A 
ATOM     10  C   UNL     1       9.078   0.480  -1.670  1.00  0.00     0.000 A 
ATOM     11  C   UNL     1       7.053  -0.635  -2.117  1.00  0.00     0.000 A 
ATOM     12  C   UNL     1       8.385  -0.446  -2.423  1.00  0.00     0.000 A 
ENDBRANCH   6   7
ENDBRANCH   1   6
TORSDOF 4
ENDMDL
MODEL 4
REMARK VINA RESULT:      -6.7      3.840      4.930
REMARK SMILES O=C(O)CCc1ccccc1
REMARK SMILES IDX 4 1 2 2 1 3 3 4 5 6 6 7 7 8 11 9 8 10 10 11 9 12
REMARK H PARENT 3 5
REMARK Flexibility Score: inf
ROOT
ATOM      1  C   UNL     1       5.440   2.901   0.025  1.00  0.00     0.127 C 
ENDROOT
BRANCH   1   2
ATOM      2  C   UNL     1       6.247   3.849   0.836  1.00  0.00     0.303 C 
ATOM      3  O   UNL     1       6.874   4.770   0.258  1.00  0.00    -0.252 OA
BRANCH   2   4
ATOM      4  O   UNL     1       6.336   3.758   2.222  1.00  0.00    -0.481 OA
ATOM      5  H   UNL     1       7.071   3.201   2.685  1.00  0.00     0.296 HD
ENDBRANCH   2   4
ENDBRANCH   1   2
BRANCH   1   6
ATOM      6  C   UNL     1       4.880   1.867   0.961  1.00  0.00     0.047 C 
BRANCH   6   7
ATOM      7  C   UNL     1       5.686   0.618   0.976  1.00  0.00    -0.047 A 
ATOM      8  C   UNL     1       6.385   0.204  -0.141  1.00  0.00     0.004 A 
ATOM      9  C   UNL     1       5.777  -0.185   2.098  1.00  0.00     0.004 A 
ATOM     10  C   UNL     1       7.131  -0.958  -0.117  1.00  0.00     0.000 A 
ATOM     11  C   UNL     1       6.520  -1.344   2.125  1.00  0.00     0.000 A 
ATOM     12  C   UNL     1       7.217  -1.755   1.006  1.00  0.00     0.000 A 
ENDBRANCH   6   7
ENDBRANCH   1   6
TORSDOF 4
ENDMDL
MODEL 5
REMARK VINA RESULT:      -6.6      1.956      2.278
REMARK SMILES O=C(O)CCc1ccccc1
REMARK SMILES IDX 4 1 2 2 1 3 3 4 5 6 6 7 7 8 11 9 8 10 10 11 9 12
REMARK H PARENT 3 5
REMARK Flexibility Score: inf
ROOT
ATOM      1  C   UNL     1       8.207   0.323  -2.051  1.00  0.00     0.127 C 
ENDROOT
BRANCH   1   2
ATOM      2  C   UNL     1       9.404   0.383  -1.173  1.00  0.00     0.303 C 
ATOM      3  O   UNL     1       9.481  -0.392  -0.189  1.00  0.00    -0.252 OA
BRANCH   2   4
ATOM      4  O   UNL     1      10.453   1.270  -1.399  1.00  0.00    -0.481 OA
ATOM      5  H   UNL     1      11.407   1.084  -1.053  1.00  0.00     0.296 HD
ENDBRANCH   2   4
ENDBRANCH   1   2
BRANCH   1   6
ATOM      6  C   UNL     1       7.213  -0.598  -1.400  1.00  0.00     0.047 C 
BRANCH   6   7
ATOM      7  C   UNL     1       6.390   0.090  -0.371  1.00  0.00    -0.047 A 
ATOM      8  C   UNL     1       5.823   1.326  -0.617  1.00  0.00     0.004 A 
ATOM      9  C   UNL     1       6.152  -0.465   0.872  1.00  0.00     0.004 A 
ATOM     10  C   UNL     1       5.060   1.957   0.347  1.00  0.00     0.000 A 
ATOM     11  C   UNL     1       5.392   0.162   1.834  1.00  0.00     0.000 A 
ATOM     12  C   UNL     1       4.827   1.396   1.586  1.00  0.00     0.000 A 
ENDBRANCH   6   7
ENDBRANCH   1   6
TORSDOF 4
ENDMDL
