@<TRIPOS>MOLECULE
/home/cewinharhar/GITHUB/reincatalyze/data/processed/docking_pred/2023-Apr-25-2033_maxeplen5_maxtrainstep200_exh16_gamma099_lrac3e-4_lrcr1e-3/b9a0748b4c4cb53be71f33acfe76cbadf25e0c0f_ligand_2.pdbqt
 12 12 0 0 0
SMALL
GASTEIGER

@<TRIPOS>ATOM
      1  C          4.9960    1.7320    0.6700 C.3     1  UNL1        0.1270
      2  C          4.4990    1.0960    1.9180 C.2     1  UNL1        0.3030
      3  O          5.2100    0.2360    2.4920 O.2     1  UNL1       -0.2520
      4  O          3.2670    1.4170    2.4810 O.3     1  UNL1       -0.4810
      5  H          2.9400    2.3930    2.5540 H       1  UNL1        0.2960
      6  C          6.4970    1.7770    0.7520 C.3     1  UNL1        0.0470
      7  C          7.1490    1.0110   -0.3430 C.2     1  UNL1       -0.0470
      8  C          8.4820    1.1980   -0.6510 C.2     1  UNL1        0.0040
      9  C          6.4610    0.0810   -1.1000 C.2     1  UNL1        0.0040
     10  C          9.0780    0.4800   -1.6700 C.2     1  UNL1        0.0000
     11  C          7.0530   -0.6350   -2.1170 C.2     1  UNL1        0.0000
     12  C          8.3850   -0.4460   -2.4230 C.2     1  UNL1        0.0000
@<TRIPOS>BOND
     1    12    11    2
     2    12    10    1
     3    11     9    1
     4    10     8    2
     5     9     7    2
     6     8     7    1
     7     7     6    1
     8     1     6    1
     9     1     2    1
    10     2     4    1
    11     2     3    2
    12     4     5    1
