@<TRIPOS>MOLECULE
/home/cewinharhar/GITHUB/reincatalyze/data/processed/docking_pred/2023-Apr-25-2033_maxeplen5_maxtrainstep200_exh16_gamma099_lrac3e-4_lrcr1e-3/b9a0748b4c4cb53be71f33acfe76cbadf25e0c0f_ligand_2.pdbqt
 12 12 0 0 0
SMALL
GASTEIGER

@<TRIPOS>ATOM
      1  C          5.4400    2.9010    0.0250 C.3     1  UNL1        0.1270
      2  C          6.2470    3.8490    0.8360 C.2     1  UNL1        0.3030
      3  O          6.8740    4.7700    0.2580 O.2     1  UNL1       -0.2520
      4  O          6.3360    3.7580    2.2220 O.3     1  UNL1       -0.4810
      5  H          7.0710    3.2010    2.6850 H       1  UNL1        0.2960
      6  C          4.8800    1.8670    0.9610 C.3     1  UNL1        0.0470
      7  C          5.6860    0.6180    0.9760 C.2     1  UNL1       -0.0470
      8  C          6.3850    0.2040   -0.1410 C.2     1  UNL1        0.0040
      9  C          5.7770   -0.1850    2.0980 C.2     1  UNL1        0.0040
     10  C          7.1310   -0.9580   -0.1170 C.2     1  UNL1        0.0000
     11  C          6.5200   -1.3440    2.1250 C.2     1  UNL1        0.0000
     12  C          7.2170   -1.7550    1.0060 C.2     1  UNL1        0.0000
@<TRIPOS>BOND
     1     8    10    1
     2     8     7    2
     3    10    12    2
     4     1     2    1
     5     1     6    1
     6     3     2    2
     7     2     4    1
     8     6     7    1
     9     7     9    1
    10    12    11    1
    11     9    11    2
    12     4     5    1
