@<TRIPOS>MOLECULE
/home/cewinharhar/GITHUB/reincatalyze/data/processed/docking_pred/2023-Apr-25-2033_maxeplen5_maxtrainstep200_exh16_gamma099_lrac3e-4_lrcr1e-3/b9a0748b4c4cb53be71f33acfe76cbadf25e0c0f_ligand_2.pdbqt
 12 12 0 0 0
SMALL
GASTEIGER

@<TRIPOS>ATOM
      1  C          8.4510   -0.5870   -2.1880 C.3     1  UNL1        0.1270
      2  C          8.4550   -1.8830   -2.9160 C.2     1  UNL1        0.3030
      3  O          9.5420   -2.4860   -3.0880 O.2     1  UNL1       -0.2520
      4  O          7.2920   -2.4620   -3.4180 O.3     1  UNL1       -0.4810
      5  H          7.0210   -2.3670   -4.4090 H       1  UNL1        0.2960
      6  C          7.0360   -0.0810   -2.1740 C.3     1  UNL1        0.0470
      7  C          6.4940    0.0500   -0.7960 C.2     1  UNL1       -0.0470
      8  C          5.8540    1.2040   -0.3860 C.2     1  UNL1        0.0040
      9  C          6.5990   -0.9660    0.1350 C.2     1  UNL1        0.0040
     10  C          5.3540    1.3150    0.8980 C.2     1  UNL1        0.0000
     11  C          6.1010   -0.8570    1.4150 C.2     1  UNL1        0.0000
     12  C          5.4630    0.2970    1.8220 C.2     1  UNL1        0.0000
@<TRIPOS>BOND
     1     5     4    1
     2     4     2    1
     3     3     2    2
     4     2     1    1
     5     1     6    1
     6     6     7    1
     7     7     8    2
     8     7     9    1
     9     8    10    1
    10     9    11    2
    11    10    12    2
    12    11    12    1
