@<TRIPOS>MOLECULE
/home/cewinharhar/GITHUB/reincatalyze/data/processed/docking_pred/2023-Apr-25-2033_maxeplen5_maxtrainstep200_exh16_gamma099_lrac3e-4_lrcr1e-3/b9a0748b4c4cb53be71f33acfe76cbadf25e0c0f_ligand_2.pdbqt
 12 12 0 0 0
SMALL
GASTEIGER

@<TRIPOS>ATOM
      1  C          8.2070    0.3230   -2.0510 C.3     1  UNL1        0.1270
      2  C          9.4040    0.3830   -1.1730 C.2     1  UNL1        0.3030
      3  O          9.4810   -0.3920   -0.1890 O.2     1  UNL1       -0.2520
      4  O         10.4530    1.2700   -1.3990 O.3     1  UNL1       -0.4810
      5  H         11.4070    1.0840   -1.0530 H       1  UNL1        0.2960
      6  C          7.2130   -0.5980   -1.4000 C.3     1  UNL1        0.0470
      7  C          6.3900    0.0900   -0.3710 C.2     1  UNL1       -0.0470
      8  C          5.8230    1.3260   -0.6170 C.2     1  UNL1        0.0040
      9  C          6.1520   -0.4650    0.8720 C.2     1  UNL1        0.0040
     10  C          5.0600    1.9570    0.3470 C.2     1  UNL1        0.0000
     11  C          5.3920    0.1620    1.8340 C.2     1  UNL1        0.0000
     12  C          4.8270    1.3960    1.5860 C.2     1  UNL1        0.0000
@<TRIPOS>BOND
     1     1     6    1
     2     1     2    1
     3     6     7    1
     4     4     2    1
     5     4     5    1
     6     2     3    2
     7     8     7    2
     8     8    10    1
     9     7     9    1
    10    10    12    2
    11     9    11    2
    12    12    11    1
