@<TRIPOS>MOLECULE
/home/cewinharhar/GITHUB/reincatalyze/data/processed/docking_pred/2023-Apr-25-2033_maxeplen5_maxtrainstep200_exh16_gamma099_lrac3e-4_lrcr1e-3/b9a0748b4c4cb53be71f33acfe76cbadf25e0c0f_ligand_2.pdbqt
 12 12 0 0 0
SMALL
GASTEIGER

@<TRIPOS>ATOM
      1  C          8.4200   -0.6430   -2.1090 C.3     1  UNL1        0.1270
      2  C          8.4090   -1.9210   -2.8660 C.2     1  UNL1        0.3030
      3  O          7.3090   -2.4250   -3.2000 O.2     1  UNL1       -0.2520
      4  O          9.5770   -2.5880   -3.2250 O.3     1  UNL1       -0.4810
      5  H         10.3640   -2.7000   -2.5670 H       1  UNL1        0.2960
      6  C          7.0200   -0.0940   -2.1250 C.3     1  UNL1        0.0470
      7  C          6.4550    0.0600   -0.7590 C.2     1  UNL1       -0.0470
      8  C          6.5600   -0.9510    0.1770 C.2     1  UNL1        0.0040
      9  C          5.8020    1.2100   -0.3590 C.2     1  UNL1        0.0040
     10  C          6.0310   -0.7970    1.4440 C.2     1  UNL1        0.0000
     11  C          5.2730    1.3660    0.9030 C.2     1  UNL1        0.0000
     12  C          5.3800    0.3540    1.8360 C.2     1  UNL1        0.0000
@<TRIPOS>BOND
     1     4     2    1
     2     4     5    1
     3     3     2    2
     4     2     1    1
     5     6     1    1
     6     6     7    1
     7     7     9    2
     8     7     8    1
     9     9    11    1
    10     8    10    2
    11    11    12    2
    12    10    12    1
