MODEL 1
REMARK VINA RESULT:      -7.3      0.000      0.000
REMARK SMILES O=C(O)CCc1ccccc1
REMARK SMILES IDX 4 1 2 2 1 3 3 4 5 6 6 7 7 8 11 9 8 10 10 11 9 12
REMARK H PARENT 3 5
REMARK Flexibility Score: inf
ROOT
ATOM      1  C   UNL     1       8.460  -0.621  -2.162  1.00  0.00     0.127 C 
ENDROOT
BRANCH   1   2
ATOM      2  C   UNL     1       8.460  -1.906  -2.906  1.00  0.00     0.303 C 
ATOM      3  O   UNL     1       9.546  -2.509  -3.087  1.00  0.00    -0.252 OA
BRANCH   2   4
ATOM      4  O   UNL     1       7.296  -2.475  -3.416  1.00  0.00    -0.481 OA
ATOM      5  H   UNL     1       7.306  -3.075  -4.255  1.00  0.00     0.296 HD
ENDBRANCH   2   4
ENDBRANCH   1   2
BRANCH   1   6
ATOM      6  C   UNL     1       7.049  -0.100  -2.157  1.00  0.00     0.047 C 
BRANCH   6   7
ATOM      7  C   UNL     1       6.499   0.036  -0.783  1.00  0.00    -0.047 A 
ATOM      8  C   UNL     1       5.852   1.190  -0.383  1.00  0.00     0.004 A 
ATOM      9  C   UNL     1       6.603  -0.974   0.154  1.00  0.00     0.004 A 
ATOM     10  C   UNL     1       5.344   1.306   0.897  1.00  0.00     0.000 A 
ATOM     11  C   UNL     1       6.097  -0.861   1.430  1.00  0.00     0.000 A 
ATOM     12  C   UNL     1       5.452   0.293   1.828  1.00  0.00     0.000 A 
ENDBRANCH   6   7
ENDBRANCH   1   6
TORSDOF 4
ENDMDL
MODEL 2
REMARK VINA RESULT:      -7.3      0.025      1.419
REMARK SMILES O=C(O)CCc1ccccc1
REMARK SMILES IDX 4 1 2 2 1 3 3 4 5 6 6 7 7 8 11 9 8 10 10 11 9 12
REMARK H PARENT 3 5
REMARK Flexibility Score: inf
ROOT
ATOM      1  C   UNL     1       8.459  -0.595  -2.183  1.00  0.00     0.127 C 
ENDROOT
BRANCH   1   2
ATOM      2  C   UNL     1       8.463  -1.887  -2.916  1.00  0.00     0.303 C 
ATOM      3  O   UNL     1       9.551  -2.489  -3.090  1.00  0.00    -0.252 OA
BRANCH   2   4
ATOM      4  O   UNL     1       7.301  -2.463  -3.422  1.00  0.00    -0.481 OA
ATOM      5  H   UNL     1       6.726  -3.111  -2.862  1.00  0.00     0.296 HD
ENDBRANCH   2   4
ENDBRANCH   1   2
BRANCH   1   6
ATOM      6  C   UNL     1       7.044  -0.085  -2.172  1.00  0.00     0.047 C 
BRANCH   6   7
ATOM      7  C   UNL     1       6.499   0.046  -0.795  1.00  0.00    -0.047 A 
ATOM      8  C   UNL     1       6.609  -0.983   0.119  1.00  0.00     0.004 A 
ATOM      9  C   UNL     1       5.862   1.195  -0.363  1.00  0.00     0.004 A 
ATOM     10  C   UNL     1       6.099  -0.850   1.397  1.00  0.00     0.000 A 
ATOM     11  C   UNL     1       5.353   1.330   0.909  1.00  0.00     0.000 A 
ATOM     12  C   UNL     1       5.464   0.299   1.821  1.00  0.00     0.000 A 
ENDBRANCH   6   7
ENDBRANCH   1   6
TORSDOF 4
ENDMDL
MODEL 3
REMARK VINA RESULT:      -6.8      3.387      5.077
REMARK SMILES O=C(O)CCc1ccccc1
REMARK SMILES IDX 4 1 2 2 1 3 3 4 5 6 6 7 7 8 11 9 8 10 10 11 9 12
REMARK H PARENT 3 5
REMARK Flexibility Score: inf
ROOT
ATOM      1  C   UNL     1       4.987   1.790   0.709  1.00  0.00     0.127 C 
ENDROOT
BRANCH   1   2
ATOM      2  C   UNL     1       4.451   1.119   1.922  1.00  0.00     0.303 C 
ATOM      3  O   UNL     1       5.125   0.212   2.469  1.00  0.00    -0.252 OA
BRANCH   2   4
ATOM      4  O   UNL     1       3.223   1.459   2.483  1.00  0.00    -0.481 OA
ATOM      5  H   UNL     1       3.152   1.899   3.413  1.00  0.00     0.296 HD
ENDBRANCH   2   4
ENDBRANCH   1   2
BRANCH   1   6
ATOM      6  C   UNL     1       6.487   1.772   0.808  1.00  0.00     0.047 C 
BRANCH   6   7
ATOM      7  C   UNL     1       7.120   1.017  -0.306  1.00  0.00    -0.047 A 
ATOM      8  C   UNL     1       8.438   1.234  -0.659  1.00  0.00     0.004 A 
ATOM      9  C   UNL     1       6.430   0.067  -1.036  1.00  0.00     0.004 A 
ATOM     10  C   UNL     1       9.016   0.526  -1.696  1.00  0.00     0.000 A 
ATOM     11  C   UNL     1       7.004  -0.639  -2.069  1.00  0.00     0.000 A 
ATOM     12  C   UNL     1       8.321  -0.420  -2.421  1.00  0.00     0.000 A 
ENDBRANCH   6   7
ENDBRANCH   1   6
TORSDOF 4
ENDMDL
MODEL 4
REMARK VINA RESULT:      -6.6      2.029      2.771
REMARK SMILES O=C(O)CCc1ccccc1
REMARK SMILES IDX 4 1 2 2 1 3 3 4 5 6 6 7 7 8 11 9 8 10 10 11 9 12
REMARK H PARENT 3 5
REMARK Flexibility Score: inf
ROOT
ATOM      1  C   UNL     1       7.971  -2.289   0.840  1.00  0.00     0.127 C 
ENDROOT
BRANCH   1   2
ATOM      2  C   UNL     1       8.786  -3.421   0.328  1.00  0.00     0.303 C 
ATOM      3  O   UNL     1       9.665  -3.926   1.067  1.00  0.00    -0.252 OA
BRANCH   2   4
ATOM      4  O   UNL     1       8.613  -3.948  -0.949  1.00  0.00    -0.481 OA
ATOM      5  H   UNL     1       7.997  -3.500  -1.644  1.00  0.00     0.296 HD
ENDBRANCH   2   4
ENDBRANCH   1   2
BRANCH   1   6
ATOM      6  C   UNL     1       7.490  -1.503  -0.348  1.00  0.00     0.047 C 
BRANCH   6   7
ATOM      7  C   UNL     1       6.621  -0.361   0.041  1.00  0.00    -0.047 A 
ATOM      8  C   UNL     1       6.073  -0.278   1.306  1.00  0.00     0.004 A 
ATOM      9  C   UNL     1       6.322   0.666  -0.834  1.00  0.00     0.004 A 
ATOM     10  C   UNL     1       5.266   0.788   1.657  1.00  0.00     0.000 A 
ATOM     11  C   UNL     1       5.519   1.730  -0.487  1.00  0.00     0.000 A 
ATOM     12  C   UNL     1       4.972   1.810   0.778  1.00  0.00     0.000 A 
ENDBRANCH   6   7
ENDBRANCH   1   6
TORSDOF 4
ENDMDL
MODEL 5
REMARK VINA RESULT:      -6.6      1.937      2.670
REMARK SMILES O=C(O)CCc1ccccc1
REMARK SMILES IDX 4 1 2 2 1 3 3 4 5 6 6 7 7 8 11 9 8 10 10 11 9 12
REMARK H PARENT 3 5
REMARK Flexibility Score: inf
ROOT
ATOM      1  C   UNL     1       8.271   0.162  -2.224  1.00  0.00     0.127 C 
ENDROOT
BRANCH   1   2
ATOM      2  C   UNL     1       9.394   0.350  -1.269  1.00  0.00     0.303 C 
ATOM      3  O   UNL     1       9.467  -0.386  -0.256  1.00  0.00    -0.252 OA
BRANCH   2   4
ATOM      4  O   UNL     1      10.378   1.318  -1.455  1.00  0.00    -0.481 OA
ATOM      5  H   UNL     1      10.374   2.206  -0.929  1.00  0.00     0.296 HD
ENDBRANCH   2   4
ENDBRANCH   1   2
BRANCH   1   6
ATOM      6  C   UNL     1       7.200  -0.618  -1.513  1.00  0.00     0.047 C 
BRANCH   6   7
ATOM      7  C   UNL     1       6.389   0.231  -0.602  1.00  0.00    -0.047 A 
ATOM      8  C   UNL     1       6.137  -0.155   0.700  1.00  0.00     0.004 A 
ATOM      9  C   UNL     1       5.853   1.440  -1.006  1.00  0.00     0.004 A 
ATOM     10  C   UNL     1       5.382   0.643   1.539  1.00  0.00     0.000 A 
ATOM     11  C   UNL     1       5.101   2.236  -0.171  1.00  0.00     0.000 A 
ATOM     12  C   UNL     1       4.849   1.848   1.129  1.00  0.00     0.000 A 
ENDBRANCH   6   7
ENDBRANCH   1   6
TORSDOF 4
ENDMDL
