@<TRIPOS>MOLECULE
/home/cewinharhar/GITHUB/reincatalyze/data/processed/docking_pred/2023-Apr-25-2033_maxeplen5_maxtrainstep200_exh16_gamma099_lrac3e-4_lrcr1e-3/ba254a63d1f23417312e0ffefa4719b754a9a4bf_ligand_2.pdbqt
 12 12 0 0 0
SMALL
GASTEIGER

@<TRIPOS>ATOM
      1  C          7.9710   -2.2890    0.8400 C.3     1  UNL1        0.1270
      2  C          8.7860   -3.4210    0.3280 C.2     1  UNL1        0.3030
      3  O          9.6650   -3.9260    1.0670 O.2     1  UNL1       -0.2520
      4  O          8.6130   -3.9480   -0.9490 O.3     1  UNL1       -0.4810
      5  H          7.9970   -3.5000   -1.6440 H       1  UNL1        0.2960
      6  C          7.4900   -1.5030   -0.3480 C.3     1  UNL1        0.0470
      7  C          6.6210   -0.3610    0.0410 C.2     1  UNL1       -0.0470
      8  C          6.0730   -0.2780    1.3060 C.2     1  UNL1        0.0040
      9  C          6.3220    0.6660   -0.8340 C.2     1  UNL1        0.0040
     10  C          5.2660    0.7880    1.6570 C.2     1  UNL1        0.0000
     11  C          5.5190    1.7300   -0.4870 C.2     1  UNL1        0.0000
     12  C          4.9720    1.8100    0.7780 C.2     1  UNL1        0.0000
@<TRIPOS>BOND
     1     5     4    1
     2     4     2    1
     3     9    11    1
     4     9     7    2
     5    11    12    2
     6     6     7    1
     7     6     1    1
     8     7     8    1
     9     2     1    1
    10     2     3    2
    11    12    10    1
    12     8    10    2
