@<TRIPOS>MOLECULE
/home/cewinharhar/GITHUB/reincatalyze/data/processed/docking_pred/2023-Apr-25-2033_maxeplen5_maxtrainstep200_exh16_gamma099_lrac3e-4_lrcr1e-3/ba254a63d1f23417312e0ffefa4719b754a9a4bf_ligand_2.pdbqt
 12 12 0 0 0
SMALL
GASTEIGER

@<TRIPOS>ATOM
      1  C          8.4590   -0.5950   -2.1830 C.3     1  UNL1        0.1270
      2  C          8.4630   -1.8870   -2.9160 C.2     1  UNL1        0.3030
      3  O          9.5510   -2.4890   -3.0900 O.2     1  UNL1       -0.2520
      4  O          7.3010   -2.4630   -3.4220 O.3     1  UNL1       -0.4810
      5  H          6.7260   -3.1110   -2.8620 H       1  UNL1        0.2960
      6  C          7.0440   -0.0850   -2.1720 C.3     1  UNL1        0.0470
      7  C          6.4990    0.0460   -0.7950 C.2     1  UNL1       -0.0470
      8  C          6.6090   -0.9830    0.1190 C.2     1  UNL1        0.0040
      9  C          5.8620    1.1950   -0.3630 C.2     1  UNL1        0.0040
     10  C          6.0990   -0.8500    1.3970 C.2     1  UNL1        0.0000
     11  C          5.3530    1.3300    0.9090 C.2     1  UNL1        0.0000
     12  C          5.4640    0.2990    1.8210 C.2     1  UNL1        0.0000
@<TRIPOS>BOND
     1     4     2    1
     2     4     5    1
     3     3     2    2
     4     2     1    1
     5     1     6    1
     6     6     7    1
     7     7     9    2
     8     7     8    1
     9     9    11    1
    10     8    10    2
    11    11    12    2
    12    10    12    1
