@<TRIPOS>MOLECULE
/home/cewinharhar/GITHUB/reincatalyze/data/processed/docking_pred/2023-Apr-25-2033_maxeplen5_maxtrainstep200_exh16_gamma099_lrac3e-4_lrcr1e-3/ba254a63d1f23417312e0ffefa4719b754a9a4bf_ligand_2.pdbqt
 12 12 0 0 0
SMALL
GASTEIGER

@<TRIPOS>ATOM
      1  C          8.4600   -0.6210   -2.1620 C.3     1  UNL1        0.1270
      2  C          8.4600   -1.9060   -2.9060 C.2     1  UNL1        0.3030
      3  O          9.5460   -2.5090   -3.0870 O.2     1  UNL1       -0.2520
      4  O          7.2960   -2.4750   -3.4160 O.3     1  UNL1       -0.4810
      5  H          7.3060   -3.0750   -4.2550 H       1  UNL1        0.2960
      6  C          7.0490   -0.1000   -2.1570 C.3     1  UNL1        0.0470
      7  C          6.4990    0.0360   -0.7830 C.2     1  UNL1       -0.0470
      8  C          5.8520    1.1900   -0.3830 C.2     1  UNL1        0.0040
      9  C          6.6030   -0.9740    0.1540 C.2     1  UNL1        0.0040
     10  C          5.3440    1.3060    0.8970 C.2     1  UNL1        0.0000
     11  C          6.0970   -0.8610    1.4300 C.2     1  UNL1        0.0000
     12  C          5.4520    0.2930    1.8280 C.2     1  UNL1        0.0000
@<TRIPOS>BOND
     1     5     4    1
     2     4     2    1
     3     3     2    2
     4     2     1    1
     5     1     6    1
     6     6     7    1
     7     7     8    2
     8     7     9    1
     9     8    10    1
    10     9    11    2
    11    10    12    2
    12    11    12    1
