@<TRIPOS>MOLECULE
/home/cewinharhar/GITHUB/reincatalyze/data/processed/docking_pred/2023-Apr-25-2033_maxeplen5_maxtrainstep200_exh16_gamma099_lrac3e-4_lrcr1e-3/ba254a63d1f23417312e0ffefa4719b754a9a4bf_ligand_2.pdbqt
 12 12 0 0 0
SMALL
GASTEIGER

@<TRIPOS>ATOM
      1  C          4.9870    1.7900    0.7090 C.3     1  UNL1        0.1270
      2  C          4.4510    1.1190    1.9220 C.2     1  UNL1        0.3030
      3  O          5.1250    0.2120    2.4690 O.2     1  UNL1       -0.2520
      4  O          3.2230    1.4590    2.4830 O.3     1  UNL1       -0.4810
      5  H          3.1520    1.8990    3.4130 H       1  UNL1        0.2960
      6  C          6.4870    1.7720    0.8080 C.3     1  UNL1        0.0470
      7  C          7.1200    1.0170   -0.3060 C.2     1  UNL1       -0.0470
      8  C          8.4380    1.2340   -0.6590 C.2     1  UNL1        0.0040
      9  C          6.4300    0.0670   -1.0360 C.2     1  UNL1        0.0040
     10  C          9.0160    0.5260   -1.6960 C.2     1  UNL1        0.0000
     11  C          7.0040   -0.6390   -2.0690 C.2     1  UNL1        0.0000
     12  C          8.3210   -0.4200   -2.4210 C.2     1  UNL1        0.0000
@<TRIPOS>BOND
     1    12    11    2
     2    12    10    1
     3    11     9    1
     4    10     8    2
     5     9     7    2
     6     8     7    1
     7     7     6    1
     8     1     6    1
     9     1     2    1
    10     2     3    2
    11     2     4    1
    12     4     5    1
