@<TRIPOS>MOLECULE
/home/cewinharhar/GITHUB/reincatalyze/data/processed/docking_pred/2023-Apr-25-2033_maxeplen5_maxtrainstep200_exh16_gamma099_lrac3e-4_lrcr1e-3/ba254a63d1f23417312e0ffefa4719b754a9a4bf_ligand_2.pdbqt
 12 12 0 0 0
SMALL
GASTEIGER

@<TRIPOS>ATOM
      1  C          8.2710    0.1620   -2.2240 C.3     1  UNL1        0.1270
      2  C          9.3940    0.3500   -1.2690 C.2     1  UNL1        0.3030
      3  O          9.4670   -0.3860   -0.2560 O.2     1  UNL1       -0.2520
      4  O         10.3780    1.3180   -1.4550 O.3     1  UNL1       -0.4810
      5  H         10.3740    2.2060   -0.9290 H       1  UNL1        0.2960
      6  C          7.2000   -0.6180   -1.5130 C.3     1  UNL1        0.0470
      7  C          6.3890    0.2310   -0.6020 C.2     1  UNL1       -0.0470
      8  C          6.1370   -0.1550    0.7000 C.2     1  UNL1        0.0040
      9  C          5.8530    1.4400   -1.0060 C.2     1  UNL1        0.0040
     10  C          5.3820    0.6430    1.5390 C.2     1  UNL1        0.0000
     11  C          5.1010    2.2360   -0.1710 C.2     1  UNL1        0.0000
     12  C          4.8490    1.8480    1.1290 C.2     1  UNL1        0.0000
@<TRIPOS>BOND
     1     1     6    1
     2     1     2    1
     3     6     7    1
     4     4     2    1
     5     4     5    1
     6     2     3    2
     7     9     7    2
     8     9    11    1
     9     7     8    1
    10    11    12    2
    11     8    10    2
    12    12    10    1
