@<TRIPOS>MOLECULE
/home/cewinharhar/GITHUB/reincatalyze/data/processed/docking_pred/2023-Apr-25-2033_maxeplen5_maxtrainstep200_exh16_gamma099_lrac3e-4_lrcr1e-3/bef029ec7f2d3d0301694813bb63cef4e6663bb8_ligand_2.pdbqt
 12 12 0 0 0
SMALL
GASTEIGER

@<TRIPOS>ATOM
      1  C          5.0340    1.8030    0.7400 C.3     1  UNL1        0.1270
      2  C          4.4610    1.1150    1.9260 C.2     1  UNL1        0.3030
      3  O          5.1060    0.1820    2.4640 O.2     1  UNL1       -0.2520
      4  O          3.2290    1.4650    2.4710 O.3     1  UNL1       -0.4810
      5  H          2.4640    0.7810    2.5720 H       1  UNL1        0.2960
      6  C          6.5310    1.7140    0.8450 C.3     1  UNL1        0.0470
      7  C          7.1350    0.9570   -0.2830 C.2     1  UNL1       -0.0470
      8  C          8.4220    1.2190   -0.7120 C.2     1  UNL1        0.0040
      9  C          6.4480   -0.0370   -0.9530 C.2     1  UNL1        0.0040
     10  C          8.9740    0.5090   -1.7620 C.2     1  UNL1        0.0000
     11  C          6.9960   -0.7460   -1.9990 C.2     1  UNL1        0.0000
     12  C          8.2820   -0.4820   -2.4260 C.2     1  UNL1        0.0000
@<TRIPOS>BOND
     1    12    11    2
     2    12    10    1
     3    11     9    1
     4    10     8    2
     5     9     7    2
     6     8     7    1
     7     7     6    1
     8     1     6    1
     9     1     2    1
    10     2     3    2
    11     2     4    1
    12     4     5    1
