@<TRIPOS>MOLECULE
/home/cewinharhar/GITHUB/reincatalyze/data/processed/docking_pred/2023-Apr-25-2033_maxeplen5_maxtrainstep200_exh16_gamma099_lrac3e-4_lrcr1e-3/bef029ec7f2d3d0301694813bb63cef4e6663bb8_ligand_2.pdbqt
 12 12 0 0 0
SMALL
GASTEIGER

@<TRIPOS>ATOM
      1  C          8.4590   -0.5950   -2.1830 C.3     1  UNL1        0.1270
      2  C          8.4790   -1.8960   -2.9020 C.2     1  UNL1        0.3030
      3  O          9.5720   -2.4900   -3.0620 O.2     1  UNL1       -0.2520
      4  O          7.3250   -2.4870   -3.4090 O.3     1  UNL1       -0.4810
      5  H          7.1000   -2.4660   -4.4160 H       1  UNL1        0.2960
      6  C          7.0400   -0.0980   -2.1870 C.3     1  UNL1        0.0470
      7  C          6.4910    0.0600   -0.8140 C.2     1  UNL1       -0.0470
      8  C          6.6060   -0.9480    0.1230 C.2     1  UNL1        0.0040
      9  C          5.8460    1.2140   -0.4090 C.2     1  UNL1        0.0040
     10  C          6.0910   -0.7910    1.3950 C.2     1  UNL1        0.0000
     11  C          5.3330    1.3730    0.8590 C.2     1  UNL1        0.0000
     12  C          5.4480    0.3630    1.7930 C.2     1  UNL1        0.0000
@<TRIPOS>BOND
     1     5     4    1
     2     4     2    1
     3     3     2    2
     4     2     1    1
     5     6     1    1
     6     6     7    1
     7     7     9    2
     8     7     8    1
     9     9    11    1
    10     8    10    2
    11    11    12    2
    12    10    12    1
