MODEL 1
REMARK VINA RESULT:      -7.3      0.000      0.000
REMARK SMILES O=C(O)CCc1ccccc1
REMARK SMILES IDX 4 1 2 2 1 3 3 4 5 6 6 7 7 8 11 9 8 10 10 11 9 12
REMARK H PARENT 3 5
REMARK Flexibility Score: inf
ROOT
ATOM      1  C   UNL     1       8.473  -0.601  -2.188  1.00  0.00     0.127 C 
ENDROOT
BRANCH   1   2
ATOM      2  C   UNL     1       8.472  -1.894  -2.921  1.00  0.00     0.303 C 
ATOM      3  O   UNL     1       9.557  -2.502  -3.092  1.00  0.00    -0.252 OA
BRANCH   2   4
ATOM      4  O   UNL     1       7.308  -2.465  -3.429  1.00  0.00    -0.481 OA
ATOM      5  H   UNL     1       6.456  -2.563  -2.856  1.00  0.00     0.296 HD
ENDBRANCH   2   4
ENDBRANCH   1   2
BRANCH   1   6
ATOM      6  C   UNL     1       7.061  -0.086  -2.178  1.00  0.00     0.047 C 
BRANCH   6   7
ATOM      7  C   UNL     1       6.512   0.040  -0.803  1.00  0.00    -0.047 A 
ATOM      8  C   UNL     1       5.871   1.192  -0.391  1.00  0.00     0.004 A 
ATOM      9  C   UNL     1       6.614  -0.980   0.126  1.00  0.00     0.004 A 
ATOM     10  C   UNL     1       5.364   1.298   0.891  1.00  0.00     0.000 A 
ATOM     11  C   UNL     1       6.110  -0.876   1.403  1.00  0.00     0.000 A 
ATOM     12  C   UNL     1       5.470   0.276   1.812  1.00  0.00     0.000 A 
ENDBRANCH   6   7
ENDBRANCH   1   6
TORSDOF 4
ENDMDL
MODEL 2
REMARK VINA RESULT:      -7.3      0.053      1.420
REMARK SMILES O=C(O)CCc1ccccc1
REMARK SMILES IDX 4 1 2 2 1 3 3 4 5 6 6 7 7 8 11 9 8 10 10 11 9 12
REMARK H PARENT 3 5
REMARK Flexibility Score: inf
ROOT
ATOM      1  C   UNL     1       8.459  -0.595  -2.183  1.00  0.00     0.127 C 
ENDROOT
BRANCH   1   2
ATOM      2  C   UNL     1       8.479  -1.896  -2.902  1.00  0.00     0.303 C 
ATOM      3  O   UNL     1       9.572  -2.490  -3.062  1.00  0.00    -0.252 OA
BRANCH   2   4
ATOM      4  O   UNL     1       7.325  -2.487  -3.409  1.00  0.00    -0.481 OA
ATOM      5  H   UNL     1       7.100  -2.466  -4.416  1.00  0.00     0.296 HD
ENDBRANCH   2   4
ENDBRANCH   1   2
BRANCH   1   6
ATOM      6  C   UNL     1       7.040  -0.098  -2.187  1.00  0.00     0.047 C 
BRANCH   6   7
ATOM      7  C   UNL     1       6.491   0.060  -0.814  1.00  0.00    -0.047 A 
ATOM      8  C   UNL     1       6.606  -0.948   0.123  1.00  0.00     0.004 A 
ATOM      9  C   UNL     1       5.846   1.214  -0.409  1.00  0.00     0.004 A 
ATOM     10  C   UNL     1       6.091  -0.791   1.395  1.00  0.00     0.000 A 
ATOM     11  C   UNL     1       5.333   1.373   0.859  1.00  0.00     0.000 A 
ATOM     12  C   UNL     1       5.448   0.363   1.793  1.00  0.00     0.000 A 
ENDBRANCH   6   7
ENDBRANCH   1   6
TORSDOF 4
ENDMDL
MODEL 3
REMARK VINA RESULT:      -7.1      0.661      1.897
REMARK SMILES O=C(O)CCc1ccccc1
REMARK SMILES IDX 4 1 2 2 1 3 3 4 5 6 6 7 7 8 11 9 8 10 10 11 9 12
REMARK H PARENT 3 5
REMARK Flexibility Score: inf
ROOT
ATOM      1  C   UNL     1       8.168  -0.898  -1.886  1.00  0.00     0.127 C 
ENDROOT
BRANCH   1   2
ATOM      2  C   UNL     1       8.327  -1.994  -2.877  1.00  0.00     0.303 C 
ATOM      3  O   UNL     1       7.303  -2.509  -3.388  1.00  0.00    -0.252 OA
BRANCH   2   4
ATOM      4  O   UNL     1       9.574  -2.476  -3.265  1.00  0.00    -0.481 OA
ATOM      5  H   UNL     1       9.696  -3.043  -4.118  1.00  0.00     0.296 HD
ENDBRANCH   2   4
ENDBRANCH   1   2
BRANCH   1   6
ATOM      6  C   UNL     1       7.225  -1.383  -0.820  1.00  0.00     0.047 C 
BRANCH   6   7
ATOM      7  C   UNL     1       6.458  -0.275  -0.194  1.00  0.00    -0.047 A 
ATOM      8  C   UNL     1       6.016  -0.360   1.113  1.00  0.00     0.004 A 
ATOM      9  C   UNL     1       6.151   0.886  -0.878  1.00  0.00     0.004 A 
ATOM     10  C   UNL     1       5.303   0.676   1.686  1.00  0.00     0.000 A 
ATOM     11  C   UNL     1       5.442   1.920  -0.309  1.00  0.00     0.000 A 
ATOM     12  C   UNL     1       5.001   1.832   0.996  1.00  0.00     0.000 A 
ENDBRANCH   6   7
ENDBRANCH   1   6
TORSDOF 4
ENDMDL
MODEL 4
REMARK VINA RESULT:      -6.8      3.384      5.063
REMARK SMILES O=C(O)CCc1ccccc1
REMARK SMILES IDX 4 1 2 2 1 3 3 4 5 6 6 7 7 8 11 9 8 10 10 11 9 12
REMARK H PARENT 3 5
REMARK Flexibility Score: inf
ROOT
ATOM      1  C   UNL     1       5.034   1.803   0.740  1.00  0.00     0.127 C 
ENDROOT
BRANCH   1   2
ATOM      2  C   UNL     1       4.461   1.115   1.926  1.00  0.00     0.303 C 
ATOM      3  O   UNL     1       5.106   0.182   2.464  1.00  0.00    -0.252 OA
BRANCH   2   4
ATOM      4  O   UNL     1       3.229   1.465   2.471  1.00  0.00    -0.481 OA
ATOM      5  H   UNL     1       2.464   0.781   2.572  1.00  0.00     0.296 HD
ENDBRANCH   2   4
ENDBRANCH   1   2
BRANCH   1   6
ATOM      6  C   UNL     1       6.531   1.714   0.845  1.00  0.00     0.047 C 
BRANCH   6   7
ATOM      7  C   UNL     1       7.135   0.957  -0.283  1.00  0.00    -0.047 A 
ATOM      8  C   UNL     1       8.422   1.219  -0.712  1.00  0.00     0.004 A 
ATOM      9  C   UNL     1       6.448  -0.037  -0.953  1.00  0.00     0.004 A 
ATOM     10  C   UNL     1       8.974   0.509  -1.762  1.00  0.00     0.000 A 
ATOM     11  C   UNL     1       6.996  -0.746  -1.999  1.00  0.00     0.000 A 
ATOM     12  C   UNL     1       8.282  -0.482  -2.426  1.00  0.00     0.000 A 
ENDBRANCH   6   7
ENDBRANCH   1   6
TORSDOF 4
ENDMDL
MODEL 5
REMARK VINA RESULT:      -6.6      1.888      2.905
REMARK SMILES O=C(O)CCc1ccccc1
REMARK SMILES IDX 4 1 2 2 1 3 3 4 5 6 6 7 7 8 11 9 8 10 10 11 9 12
REMARK H PARENT 3 5
REMARK Flexibility Score: inf
ROOT
ATOM      1  C   UNL     1       8.144  -1.560   1.152  1.00  0.00     0.127 C 
ENDROOT
BRANCH   1   2
ATOM      2  C   UNL     1       8.456  -2.761   0.334  1.00  0.00     0.303 C 
ATOM      3  O   UNL     1       9.105  -3.702   0.851  1.00  0.00    -0.252 OA
BRANCH   2   4
ATOM      4  O   UNL     1       8.054  -2.887  -0.993  1.00  0.00    -0.481 OA
ATOM      5  H   UNL     1       8.203  -2.132  -1.681  1.00  0.00     0.296 HD
ENDBRANCH   2   4
ENDBRANCH   1   2
BRANCH   1   6
ATOM      6  C   UNL     1       6.647  -1.466   1.263  1.00  0.00     0.047 C 
BRANCH   6   7
ATOM      7  C   UNL     1       6.120  -0.176   0.745  1.00  0.00    -0.047 A 
ATOM      8  C   UNL     1       6.372   0.230  -0.552  1.00  0.00     0.004 A 
ATOM      9  C   UNL     1       5.358   0.674   1.524  1.00  0.00     0.004 A 
ATOM     10  C   UNL     1       5.877   1.431  -1.024  1.00  0.00     0.000 A 
ATOM     11  C   UNL     1       4.863   1.870   1.056  1.00  0.00     0.000 A 
ATOM     12  C   UNL     1       5.117   2.274  -0.239  1.00  0.00     0.000 A 
ENDBRANCH   6   7
ENDBRANCH   1   6
TORSDOF 4
ENDMDL
