@<TRIPOS>MOLECULE
/home/cewinharhar/GITHUB/reincatalyze/data/processed/docking_pred/2023-Apr-25-2033_maxeplen5_maxtrainstep200_exh16_gamma099_lrac3e-4_lrcr1e-3/bef029ec7f2d3d0301694813bb63cef4e6663bb8_ligand_2.pdbqt
 12 12 0 0 0
SMALL
GASTEIGER

@<TRIPOS>ATOM
      1  C          8.1440   -1.5600    1.1520 C.3     1  UNL1        0.1270
      2  C          8.4560   -2.7610    0.3340 C.2     1  UNL1        0.3030
      3  O          9.1050   -3.7020    0.8510 O.2     1  UNL1       -0.2520
      4  O          8.0540   -2.8870   -0.9930 O.3     1  UNL1       -0.4810
      5  H          8.2030   -2.1320   -1.6810 H       1  UNL1        0.2960
      6  C          6.6470   -1.4660    1.2630 C.3     1  UNL1        0.0470
      7  C          6.1200   -0.1760    0.7450 C.2     1  UNL1       -0.0470
      8  C          6.3720    0.2300   -0.5520 C.2     1  UNL1        0.0040
      9  C          5.3580    0.6740    1.5240 C.2     1  UNL1        0.0040
     10  C          5.8770    1.4310   -1.0240 C.2     1  UNL1        0.0000
     11  C          4.8630    1.8700    1.0560 C.2     1  UNL1        0.0000
     12  C          5.1170    2.2740   -0.2390 C.2     1  UNL1        0.0000
@<TRIPOS>BOND
     1     5     4    1
     2    10     8    1
     3    10    12    2
     4     4     2    1
     5     8     7    2
     6    12    11    1
     7     2     3    2
     8     2     1    1
     9     7     6    1
    10     7     9    1
    11    11     9    2
    12     1     6    1
