@<TRIPOS>MOLECULE
/home/cewinharhar/GITHUB/reincatalyze/data/processed/docking_pred/2023-Apr-25-2033_maxeplen5_maxtrainstep200_exh16_gamma099_lrac3e-4_lrcr1e-3/bef029ec7f2d3d0301694813bb63cef4e6663bb8_ligand_2.pdbqt
 12 12 0 0 0
SMALL
GASTEIGER

@<TRIPOS>ATOM
      1  C          8.4730   -0.6010   -2.1880 C.3     1  UNL1        0.1270
      2  C          8.4720   -1.8940   -2.9210 C.2     1  UNL1        0.3030
      3  O          9.5570   -2.5020   -3.0920 O.2     1  UNL1       -0.2520
      4  O          7.3080   -2.4650   -3.4290 O.3     1  UNL1       -0.4810
      5  H          6.4560   -2.5630   -2.8560 H       1  UNL1        0.2960
      6  C          7.0610   -0.0860   -2.1780 C.3     1  UNL1        0.0470
      7  C          6.5120    0.0400   -0.8030 C.2     1  UNL1       -0.0470
      8  C          5.8710    1.1920   -0.3910 C.2     1  UNL1        0.0040
      9  C          6.6140   -0.9800    0.1260 C.2     1  UNL1        0.0040
     10  C          5.3640    1.2980    0.8910 C.2     1  UNL1        0.0000
     11  C          6.1100   -0.8760    1.4030 C.2     1  UNL1        0.0000
     12  C          5.4700    0.2760    1.8120 C.2     1  UNL1        0.0000
@<TRIPOS>BOND
     1     4     2    1
     2     4     5    1
     3     3     2    2
     4     2     1    1
     5     1     6    1
     6     6     7    1
     7     7     8    2
     8     7     9    1
     9     8    10    1
    10     9    11    2
    11    10    12    2
    12    11    12    1
