@<TRIPOS>MOLECULE
/home/cewinharhar/GITHUB/reincatalyze/data/processed/docking_pred/2023-Apr-25-2033_maxeplen5_maxtrainstep200_exh16_gamma099_lrac3e-4_lrcr1e-3/bef029ec7f2d3d0301694813bb63cef4e6663bb8_ligand_2.pdbqt
 12 12 0 0 0
SMALL
GASTEIGER

@<TRIPOS>ATOM
      1  C          8.1680   -0.8980   -1.8860 C.3     1  UNL1        0.1270
      2  C          8.3270   -1.9940   -2.8770 C.2     1  UNL1        0.3030
      3  O          7.3030   -2.5090   -3.3880 O.2     1  UNL1       -0.2520
      4  O          9.5740   -2.4760   -3.2650 O.3     1  UNL1       -0.4810
      5  H          9.6960   -3.0430   -4.1180 H       1  UNL1        0.2960
      6  C          7.2250   -1.3830   -0.8200 C.3     1  UNL1        0.0470
      7  C          6.4580   -0.2750   -0.1940 C.2     1  UNL1       -0.0470
      8  C          6.0160   -0.3600    1.1130 C.2     1  UNL1        0.0040
      9  C          6.1510    0.8860   -0.8780 C.2     1  UNL1        0.0040
     10  C          5.3030    0.6760    1.6860 C.2     1  UNL1        0.0000
     11  C          5.4420    1.9200   -0.3090 C.2     1  UNL1        0.0000
     12  C          5.0010    1.8320    0.9960 C.2     1  UNL1        0.0000
@<TRIPOS>BOND
     1     5     4    1
     2     3     2    2
     3     4     2    1
     4     2     1    1
     5     1     6    1
     6     9    11    1
     7     9     7    2
     8     6     7    1
     9    11    12    2
    10     7     8    1
    11    12    10    1
    12     8    10    2
