MODEL 1
REMARK VINA RESULT:      -7.3      0.000      0.000
REMARK SMILES O=C(O)CCc1ccccc1
REMARK SMILES IDX 4 1 2 2 1 3 3 4 5 6 6 7 7 8 11 9 8 10 10 11 9 12
REMARK H PARENT 3 5
REMARK Flexibility Score: inf
ROOT
ATOM      1  C   UNL     1       8.441  -0.561  -2.210  1.00  0.00     0.127 C 
ENDROOT
BRANCH   1   2
ATOM      2  C   UNL     1       8.457  -1.864  -2.923  1.00  0.00     0.303 C 
ATOM      3  O   UNL     1       9.549  -2.460  -3.085  1.00  0.00    -0.252 OA
BRANCH   2   4
ATOM      4  O   UNL     1       7.301  -2.456  -3.424  1.00  0.00    -0.481 OA
ATOM      5  H   UNL     1       6.542  -2.778  -2.804  1.00  0.00     0.296 HD
ENDBRANCH   2   4
ENDBRANCH   1   2
BRANCH   1   6
ATOM      6  C   UNL     1       7.019  -0.074  -2.187  1.00  0.00     0.047 C 
BRANCH   6   7
ATOM      7  C   UNL     1       6.485   0.056  -0.806  1.00  0.00    -0.047 A 
ATOM      8  C   UNL     1       5.855   1.212  -0.389  1.00  0.00     0.004 A 
ATOM      9  C   UNL     1       6.590  -0.963   0.122  1.00  0.00     0.004 A 
ATOM     10  C   UNL     1       5.363   1.323   0.898  1.00  0.00     0.000 A 
ATOM     11  C   UNL     1       6.100  -0.855   1.405  1.00  0.00     0.000 A 
ATOM     12  C   UNL     1       5.471   0.302   1.819  1.00  0.00     0.000 A 
ENDBRANCH   6   7
ENDBRANCH   1   6
TORSDOF 4
ENDMDL
MODEL 2
REMARK VINA RESULT:      -7.3      0.181      1.723
REMARK SMILES O=C(O)CCc1ccccc1
REMARK SMILES IDX 4 1 2 2 1 3 3 4 5 6 6 7 7 8 11 9 8 10 10 11 9 12
REMARK H PARENT 3 5
REMARK Flexibility Score: inf
ROOT
ATOM      1  C   UNL     1       8.451  -0.707  -2.017  1.00  0.00     0.127 C 
ENDROOT
BRANCH   1   2
ATOM      2  C   UNL     1       8.419  -1.934  -2.855  1.00  0.00     0.303 C 
ATOM      3  O   UNL     1       7.311  -2.407  -3.206  1.00  0.00    -0.252 OA
BRANCH   2   4
ATOM      4  O   UNL     1       9.577  -2.586  -3.270  1.00  0.00    -0.481 OA
ATOM      5  H   UNL     1       9.873  -2.593  -4.258  1.00  0.00     0.296 HD
ENDBRANCH   2   4
ENDBRANCH   1   2
BRANCH   1   6
ATOM      6  C   UNL     1       7.089  -0.074  -2.089  1.00  0.00     0.047 C 
BRANCH   6   7
ATOM      7  C   UNL     1       6.481   0.118  -0.746  1.00  0.00    -0.047 A 
ATOM      8  C   UNL     1       6.556  -0.866   0.221  1.00  0.00     0.004 A 
ATOM      9  C   UNL     1       5.817   1.280  -0.399  1.00  0.00     0.004 A 
ATOM     10  C   UNL     1       5.987  -0.676   1.466  1.00  0.00     0.000 A 
ATOM     11  C   UNL     1       5.249   1.471   0.841  1.00  0.00     0.000 A 
ATOM     12  C   UNL     1       5.325   0.486   1.805  1.00  0.00     0.000 A 
ENDBRANCH   6   7
ENDBRANCH   1   6
TORSDOF 4
ENDMDL
MODEL 3
REMARK VINA RESULT:      -6.8      3.386      5.099
REMARK SMILES O=C(O)CCc1ccccc1
REMARK SMILES IDX 4 1 2 2 1 3 3 4 5 6 6 7 7 8 11 9 8 10 10 11 9 12
REMARK H PARENT 3 5
REMARK Flexibility Score: inf
ROOT
ATOM      1  C   UNL     1       4.971   1.800   0.695  1.00  0.00     0.127 C 
ENDROOT
BRANCH   1   2
ATOM      2  C   UNL     1       4.446   1.128   1.912  1.00  0.00     0.303 C 
ATOM      3  O   UNL     1       5.128   0.225   2.456  1.00  0.00    -0.252 OA
BRANCH   2   4
ATOM      4  O   UNL     1       3.220   1.462   2.480  1.00  0.00    -0.481 OA
ATOM      5  H   UNL     1       3.142   2.163   3.234  1.00  0.00     0.296 HD
ENDBRANCH   2   4
ENDBRANCH   1   2
BRANCH   1   6
ATOM      6  C   UNL     1       6.472   1.803   0.792  1.00  0.00     0.047 C 
BRANCH   6   7
ATOM      7  C   UNL     1       7.114   1.054  -0.319  1.00  0.00    -0.047 A 
ATOM      8  C   UNL     1       6.400   0.144  -1.075  1.00  0.00     0.004 A 
ATOM      9  C   UNL     1       8.445   1.227  -0.650  1.00  0.00     0.004 A 
ATOM     10  C   UNL     1       7.008  -0.547  -2.106  1.00  0.00     0.000 A 
ATOM     11  C   UNL     1       9.052   0.539  -1.677  1.00  0.00     0.000 A 
ATOM     12  C   UNL     1       8.337  -0.369  -2.431  1.00  0.00     0.000 A 
ENDBRANCH   6   7
ENDBRANCH   1   6
TORSDOF 4
ENDMDL
MODEL 4
REMARK VINA RESULT:      -6.6      1.939      2.656
REMARK SMILES O=C(O)CCc1ccccc1
REMARK SMILES IDX 4 1 2 2 1 3 3 4 5 6 6 7 7 8 11 9 8 10 10 11 9 12
REMARK H PARENT 3 5
REMARK Flexibility Score: inf
ROOT
ATOM      1  C   UNL     1       8.290   0.008  -2.193  1.00  0.00     0.127 C 
ENDROOT
BRANCH   1   2
ATOM      2  C   UNL     1       9.387   0.309  -1.237  1.00  0.00     0.303 C 
ATOM      3  O   UNL     1       9.489  -0.372  -0.188  1.00  0.00    -0.252 OA
BRANCH   2   4
ATOM      4  O   UNL     1      10.315   1.323  -1.460  1.00  0.00    -0.481 OA
ATOM      5  H   UNL     1      10.330   1.863  -2.339  1.00  0.00     0.296 HD
ENDBRANCH   2   4
ENDBRANCH   1   2
BRANCH   1   6
ATOM      6  C   UNL     1       7.219  -0.728  -1.436  1.00  0.00     0.047 C 
BRANCH   6   7
ATOM      7  C   UNL     1       6.414   0.175  -0.571  1.00  0.00    -0.047 A 
ATOM      8  C   UNL     1       6.154  -0.143   0.748  1.00  0.00     0.004 A 
ATOM      9  C   UNL     1       5.891   1.366  -1.037  1.00  0.00     0.004 A 
ATOM     10  C   UNL     1       5.404   0.703   1.543  1.00  0.00     0.000 A 
ATOM     11  C   UNL     1       5.144   2.211  -0.247  1.00  0.00     0.000 A 
ATOM     12  C   UNL     1       4.885   1.891   1.071  1.00  0.00     0.000 A 
ENDBRANCH   6   7
ENDBRANCH   1   6
TORSDOF 4
ENDMDL
MODEL 5
REMARK VINA RESULT:      -6.5      3.693      4.933
REMARK SMILES O=C(O)CCc1ccccc1
REMARK SMILES IDX 4 1 2 2 1 3 3 4 5 6 6 7 7 8 11 9 8 10 10 11 9 12
REMARK H PARENT 3 5
REMARK Flexibility Score: inf
ROOT
ATOM      1  C   UNL     1       5.332   2.942   0.071  1.00  0.00     0.127 C 
ENDROOT
BRANCH   1   2
ATOM      2  C   UNL     1       6.270   3.790   0.851  1.00  0.00     0.303 C 
ATOM      3  O   UNL     1       6.814   4.774   0.294  1.00  0.00    -0.252 OA
BRANCH   2   4
ATOM      4  O   UNL     1       6.574   3.536   2.186  1.00  0.00    -0.481 OA
ATOM      5  H   UNL     1       6.182   2.724   2.689  1.00  0.00     0.296 HD
ENDBRANCH   2   4
ENDBRANCH   1   2
BRANCH   1   6
ATOM      6  C   UNL     1       5.210   1.625   0.788  1.00  0.00     0.047 C 
BRANCH   6   7
ATOM      7  C   UNL     1       6.023   0.556   0.152  1.00  0.00    -0.047 A 
ATOM      8  C   UNL     1       6.339   0.600  -1.192  1.00  0.00     0.004 A 
ATOM      9  C   UNL     1       6.501  -0.527   0.866  1.00  0.00     0.004 A 
ATOM     10  C   UNL     1       7.096  -0.399  -1.773  1.00  0.00     0.000 A 
ATOM     11  C   UNL     1       7.256  -1.524   0.290  1.00  0.00     0.000 A 
ATOM     12  C   UNL     1       7.570  -1.477  -1.053  1.00  0.00     0.000 A 
ENDBRANCH   6   7
ENDBRANCH   1   6
TORSDOF 4
ENDMDL
