@<TRIPOS>MOLECULE
/home/cewinharhar/GITHUB/reincatalyze/data/processed/docking_pred/2023-Apr-25-2033_maxeplen5_maxtrainstep200_exh16_gamma099_lrac3e-4_lrcr1e-3/bf1bd72bf83e0bbc7f208f1f88a3802cf16c22f1_ligand_2.pdbqt
 12 12 0 0 0
SMALL
GASTEIGER

@<TRIPOS>ATOM
      1  C          8.4410   -0.5610   -2.2100 C.3     1  UNL1        0.1270
      2  C          8.4570   -1.8640   -2.9230 C.2     1  UNL1        0.3030
      3  O          9.5490   -2.4600   -3.0850 O.2     1  UNL1       -0.2520
      4  O          7.3010   -2.4560   -3.4240 O.3     1  UNL1       -0.4810
      5  H          6.5420   -2.7780   -2.8040 H       1  UNL1        0.2960
      6  C          7.0190   -0.0740   -2.1870 C.3     1  UNL1        0.0470
      7  C          6.4850    0.0560   -0.8060 C.2     1  UNL1       -0.0470
      8  C          5.8550    1.2120   -0.3890 C.2     1  UNL1        0.0040
      9  C          6.5900   -0.9630    0.1220 C.2     1  UNL1        0.0040
     10  C          5.3630    1.3230    0.8980 C.2     1  UNL1        0.0000
     11  C          6.1000   -0.8550    1.4050 C.2     1  UNL1        0.0000
     12  C          5.4710    0.3020    1.8190 C.2     1  UNL1        0.0000
@<TRIPOS>BOND
     1     4     2    1
     2     4     5    1
     3     3     2    2
     4     2     1    1
     5     1     6    1
     6     6     7    1
     7     7     8    2
     8     7     9    1
     9     8    10    1
    10     9    11    2
    11    10    12    2
    12    11    12    1
