@<TRIPOS>MOLECULE
/home/cewinharhar/GITHUB/reincatalyze/data/processed/docking_pred/2023-Apr-25-2033_maxeplen5_maxtrainstep200_exh16_gamma099_lrac3e-4_lrcr1e-3/bf1bd72bf83e0bbc7f208f1f88a3802cf16c22f1_ligand_2.pdbqt
 12 12 0 0 0
SMALL
GASTEIGER

@<TRIPOS>ATOM
      1  C          4.9710    1.8000    0.6950 C.3     1  UNL1        0.1270
      2  C          4.4460    1.1280    1.9120 C.2     1  UNL1        0.3030
      3  O          5.1280    0.2250    2.4560 O.2     1  UNL1       -0.2520
      4  O          3.2200    1.4620    2.4800 O.3     1  UNL1       -0.4810
      5  H          3.1420    2.1630    3.2340 H       1  UNL1        0.2960
      6  C          6.4720    1.8030    0.7920 C.3     1  UNL1        0.0470
      7  C          7.1140    1.0540   -0.3190 C.2     1  UNL1       -0.0470
      8  C          6.4000    0.1440   -1.0750 C.2     1  UNL1        0.0040
      9  C          8.4450    1.2270   -0.6500 C.2     1  UNL1        0.0040
     10  C          7.0080   -0.5470   -2.1060 C.2     1  UNL1        0.0000
     11  C          9.0520    0.5390   -1.6770 C.2     1  UNL1        0.0000
     12  C          8.3370   -0.3690   -2.4310 C.2     1  UNL1        0.0000
@<TRIPOS>BOND
     1    12    10    2
     2    12    11    1
     3    10     8    1
     4    11     9    2
     5     8     7    2
     6     9     7    1
     7     7     6    1
     8     1     6    1
     9     1     2    1
    10     2     3    2
    11     2     4    1
    12     4     5    1
