@<TRIPOS>MOLECULE
/home/cewinharhar/GITHUB/reincatalyze/data/processed/docking_pred/2023-Apr-25-2033_maxeplen5_maxtrainstep200_exh16_gamma099_lrac3e-4_lrcr1e-3/bf1bd72bf83e0bbc7f208f1f88a3802cf16c22f1_ligand_2.pdbqt
 12 12 0 0 0
SMALL
GASTEIGER

@<TRIPOS>ATOM
      1  C          8.2900    0.0080   -2.1930 C.3     1  UNL1        0.1270
      2  C          9.3870    0.3090   -1.2370 C.2     1  UNL1        0.3030
      3  O          9.4890   -0.3720   -0.1880 O.2     1  UNL1       -0.2520
      4  O         10.3150    1.3230   -1.4600 O.3     1  UNL1       -0.4810
      5  H         10.3300    1.8630   -2.3390 H       1  UNL1        0.2960
      6  C          7.2190   -0.7280   -1.4360 C.3     1  UNL1        0.0470
      7  C          6.4140    0.1750   -0.5710 C.2     1  UNL1       -0.0470
      8  C          6.1540   -0.1430    0.7480 C.2     1  UNL1        0.0040
      9  C          5.8910    1.3660   -1.0370 C.2     1  UNL1        0.0040
     10  C          5.4040    0.7030    1.5430 C.2     1  UNL1        0.0000
     11  C          5.1440    2.2110   -0.2470 C.2     1  UNL1        0.0000
     12  C          4.8850    1.8910    1.0710 C.2     1  UNL1        0.0000
@<TRIPOS>BOND
     1     5     4    1
     2     1     6    1
     3     1     2    1
     4     4     2    1
     5     6     7    1
     6     2     3    2
     7     9     7    2
     8     9    11    1
     9     7     8    1
    10    11    12    2
    11     8    10    2
    12    12    10    1
