@<TRIPOS>MOLECULE
/home/cewinharhar/GITHUB/reincatalyze/data/processed/docking_pred/2023-Apr-25-2033_maxeplen5_maxtrainstep200_exh16_gamma099_lrac3e-4_lrcr1e-3/bf1bd72bf83e0bbc7f208f1f88a3802cf16c22f1_ligand_2.pdbqt
 12 12 0 0 0
SMALL
GASTEIGER

@<TRIPOS>ATOM
      1  C          8.4510   -0.7070   -2.0170 C.3     1  UNL1        0.1270
      2  C          8.4190   -1.9340   -2.8550 C.2     1  UNL1        0.3030
      3  O          7.3110   -2.4070   -3.2060 O.2     1  UNL1       -0.2520
      4  O          9.5770   -2.5860   -3.2700 O.3     1  UNL1       -0.4810
      5  H          9.8730   -2.5930   -4.2580 H       1  UNL1        0.2960
      6  C          7.0890   -0.0740   -2.0890 C.3     1  UNL1        0.0470
      7  C          6.4810    0.1180   -0.7460 C.2     1  UNL1       -0.0470
      8  C          6.5560   -0.8660    0.2210 C.2     1  UNL1        0.0040
      9  C          5.8170    1.2800   -0.3990 C.2     1  UNL1        0.0040
     10  C          5.9870   -0.6760    1.4660 C.2     1  UNL1        0.0000
     11  C          5.2490    1.4710    0.8410 C.2     1  UNL1        0.0000
     12  C          5.3250    0.4860    1.8050 C.2     1  UNL1        0.0000
@<TRIPOS>BOND
     1     5     4    1
     2     4     2    1
     3     3     2    2
     4     2     1    1
     5     6     1    1
     6     6     7    1
     7     7     9    2
     8     7     8    1
     9     9    11    1
    10     8    10    2
    11    11    12    2
    12    10    12    1
