@<TRIPOS>MOLECULE
/home/cewinharhar/GITHUB/reincatalyze/data/processed/docking_pred/2023-Apr-25-2033_maxeplen5_maxtrainstep200_exh16_gamma099_lrac3e-4_lrcr1e-3/bfaa3bc067c86e8b5ef89a85d12e30cfe25fe09e_ligand_2.pdbqt
 12 12 0 0 0
SMALL
GASTEIGER

@<TRIPOS>ATOM
      1  C          4.9970    1.7900    0.6980 C.3     1  UNL1        0.1270
      2  C          4.5010    1.1250    1.9300 C.2     1  UNL1        0.3030
      3  O          5.2230    0.2700    2.4980 O.2     1  UNL1       -0.2520
      4  O          3.2570    1.4120    2.4850 O.3     1  UNL1       -0.4810
      5  H          2.9310    0.9610    3.3540 H       1  UNL1        0.2960
      6  C          6.4990    1.8160    0.7710 C.3     1  UNL1        0.0470
      7  C          7.1350    1.0330   -0.3210 C.2     1  UNL1       -0.0470
      8  C          6.4040    0.1390   -1.0790 C.2     1  UNL1        0.0040
      9  C          8.4750    1.1600   -0.6330 C.2     1  UNL1        0.0040
     10  C          7.0050   -0.5830   -2.0920 C.2     1  UNL1        0.0000
     11  C          9.0760    0.4420   -1.6420 C.2     1  UNL1        0.0000
     12  C          8.3440   -0.4520   -2.3970 C.2     1  UNL1        0.0000
@<TRIPOS>BOND
     1    12    10    2
     2    12    11    1
     3    10     8    1
     4    11     9    2
     5     8     7    2
     6     9     7    1
     7     7     6    1
     8     1     6    1
     9     1     2    1
    10     2     4    1
    11     2     3    2
    12     4     5    1
