@<TRIPOS>MOLECULE
/home/cewinharhar/GITHUB/reincatalyze/data/processed/docking_pred/2023-Apr-25-2033_maxeplen5_maxtrainstep200_exh16_gamma099_lrac3e-4_lrcr1e-3/bfaa3bc067c86e8b5ef89a85d12e30cfe25fe09e_ligand_2.pdbqt
 12 12 0 0 0
SMALL
GASTEIGER

@<TRIPOS>ATOM
      1  C          8.4580   -0.5980   -2.1940 C.3     1  UNL1        0.1270
      2  C          8.4670   -1.8920   -2.9240 C.2     1  UNL1        0.3030
      3  O          9.5560   -2.4930   -3.0900 O.2     1  UNL1       -0.2520
      4  O          7.3090   -2.4700   -3.4360 O.3     1  UNL1       -0.4810
      5  H          7.3410   -3.2610   -4.0970 H       1  UNL1        0.2960
      6  C          7.0410   -0.0940   -2.1840 C.3     1  UNL1        0.0470
      7  C          6.4990    0.0490   -0.8070 C.2     1  UNL1       -0.0470
      8  C          6.6160   -0.9710    0.1170 C.2     1  UNL1        0.0040
      9  C          5.8570    1.1980   -0.3850 C.2     1  UNL1        0.0040
     10  C          6.1080   -0.8280    1.3940 C.2     1  UNL1        0.0000
     11  C          5.3510    1.3430    0.8870 C.2     1  UNL1        0.0000
     12  C          5.4690    0.3220    1.8080 C.2     1  UNL1        0.0000
@<TRIPOS>BOND
     1     5     4    1
     2     4     2    1
     3     3     2    2
     4     2     1    1
     5     1     6    1
     6     6     7    1
     7     7     9    2
     8     7     8    1
     9     9    11    1
    10     8    10    2
    11    11    12    2
    12    10    12    1
