@<TRIPOS>MOLECULE
/home/cewinharhar/GITHUB/reincatalyze/data/processed/docking_pred/2023-Apr-25-2033_maxeplen5_maxtrainstep200_exh16_gamma099_lrac3e-4_lrcr1e-3/bfaa3bc067c86e8b5ef89a85d12e30cfe25fe09e_ligand_2.pdbqt
 12 12 0 0 0
SMALL
GASTEIGER

@<TRIPOS>ATOM
      1  C          8.2730    0.0750   -2.2080 C.3     1  UNL1        0.1270
      2  C          9.3890    0.3260   -1.2600 C.2     1  UNL1        0.3030
      3  O          9.4850   -0.3790   -0.2260 O.2     1  UNL1       -0.2520
      4  O         10.3420    1.3190   -1.4720 O.3     1  UNL1       -0.4810
      5  H         10.8360    1.7750   -0.6900 H       1  UNL1        0.2960
      6  C          7.2120   -0.6900   -1.4670 C.3     1  UNL1        0.0470
      7  C          6.4030    0.1820   -0.5750 C.2     1  UNL1       -0.0470
      8  C          6.1560   -0.1700    0.7370 C.2     1  UNL1        0.0040
      9  C          5.8620    1.3770   -1.0100 C.2     1  UNL1        0.0040
     10  C          5.4010    0.6480    1.5570 C.2     1  UNL1        0.0000
     11  C          5.1100    2.1940   -0.1950 C.2     1  UNL1        0.0000
     12  C          4.8640    1.8400    1.1160 C.2     1  UNL1        0.0000
@<TRIPOS>BOND
     1     1     6    1
     2     1     2    1
     3     4     2    1
     4     4     5    1
     5     6     7    1
     6     2     3    2
     7     9     7    2
     8     9    11    1
     9     7     8    1
    10    11    12    2
    11     8    10    2
    12    12    10    1
