@<TRIPOS>MOLECULE
/home/cewinharhar/GITHUB/reincatalyze/data/processed/docking_pred/2023-Apr-25-2033_maxeplen5_maxtrainstep200_exh16_gamma099_lrac3e-4_lrcr1e-3/bfaa3bc067c86e8b5ef89a85d12e30cfe25fe09e_ligand_2.pdbqt
 12 12 0 0 0
SMALL
GASTEIGER

@<TRIPOS>ATOM
      1  C          8.3580   -0.7900   -1.9600 C.3     1  UNL1        0.1270
      2  C          8.3930   -1.9810   -2.8470 C.2     1  UNL1        0.3030
      3  O          7.3140   -2.4560   -3.2780 O.2     1  UNL1       -0.2520
      4  O          9.5830   -2.5980   -3.2230 O.3     1  UNL1       -0.4810
      5  H          9.8770   -2.6570   -4.2100 H       1  UNL1        0.2960
      6  C          7.7820   -1.2240   -0.6400 C.3     1  UNL1        0.0470
      7  C          6.8050   -0.2450   -0.0970 C.2     1  UNL1       -0.0470
      8  C          6.3000   -0.3730    1.1830 C.2     1  UNL1        0.0040
      9  C          6.3580    0.8350   -0.8350 C.2     1  UNL1        0.0040
     10  C          5.3930    0.5430    1.6780 C.2     1  UNL1        0.0000
     11  C          5.4530    1.7490   -0.3440 C.2     1  UNL1        0.0000
     12  C          4.9500    1.6180    0.9350 C.2     1  UNL1        0.0000
@<TRIPOS>BOND
     1     5     4    1
     2     3     2    2
     3     4     2    1
     4     2     1    1
     5     1     6    1
     6     9    11    1
     7     9     7    2
     8     6     7    1
     9    11    12    2
    10     7     8    1
    11    12    10    1
    12     8    10    2
