@<TRIPOS>MOLECULE
/home/cewinharhar/GITHUB/reincatalyze/data/processed/docking_pred/2023-Apr-25-2033_maxeplen5_maxtrainstep200_exh16_gamma099_lrac3e-4_lrcr1e-3/bfaa3bc067c86e8b5ef89a85d12e30cfe25fe09e_ligand_2.pdbqt
 12 12 0 0 0
SMALL
GASTEIGER

@<TRIPOS>ATOM
      1  C          8.4550   -0.6610   -2.0870 C.3     1  UNL1        0.1270
      2  C          8.4520   -1.9130   -2.8880 C.2     1  UNL1        0.3030
      3  O          9.5370   -2.5100   -3.0940 O.2     1  UNL1       -0.2520
      4  O          7.2870   -2.4560   -3.4230 O.3     1  UNL1       -0.4810
      5  H          6.4450   -2.6100   -2.8480 H       1  UNL1        0.2960
      6  C          7.0580   -0.1050   -2.1130 C.3     1  UNL1        0.0470
      7  C          6.4830    0.0500   -0.7510 C.2     1  UNL1       -0.0470
      8  C          5.8240    1.2060   -0.3800 C.2     1  UNL1        0.0040
      9  C          6.5760   -0.9450    0.2040 C.2     1  UNL1        0.0040
     10  C          5.2940    1.3400    0.8880 C.2     1  UNL1        0.0000
     11  C          6.0480   -0.8140    1.4690 C.2     1  UNL1        0.0000
     12  C          5.3910    0.3430    1.8370 C.2     1  UNL1        0.0000
@<TRIPOS>BOND
     1     4     2    1
     2     4     5    1
     3     3     2    2
     4     2     1    1
     5     6     1    1
     6     6     7    1
     7     7     8    2
     8     7     9    1
     9     8    10    1
    10     9    11    2
    11    10    12    2
    12    11    12    1
