MODEL 1
REMARK VINA RESULT:      -7.3      0.000      0.000
REMARK SMILES O=C(O)CCc1ccccc1
REMARK SMILES IDX 4 1 2 2 1 3 3 4 5 6 6 7 7 8 11 9 8 10 10 11 9 12
REMARK H PARENT 3 5
REMARK Flexibility Score: inf
ROOT
ATOM      1  C   UNL     1       8.455  -0.661  -2.087  1.00  0.00     0.127 C 
ENDROOT
BRANCH   1   2
ATOM      2  C   UNL     1       8.452  -1.913  -2.888  1.00  0.00     0.303 C 
ATOM      3  O   UNL     1       9.537  -2.510  -3.094  1.00  0.00    -0.252 OA
BRANCH   2   4
ATOM      4  O   UNL     1       7.287  -2.456  -3.423  1.00  0.00    -0.481 OA
ATOM      5  H   UNL     1       6.445  -2.610  -2.848  1.00  0.00     0.296 HD
ENDBRANCH   2   4
ENDBRANCH   1   2
BRANCH   1   6
ATOM      6  C   UNL     1       7.058  -0.105  -2.113  1.00  0.00     0.047 C 
BRANCH   6   7
ATOM      7  C   UNL     1       6.483   0.050  -0.751  1.00  0.00    -0.047 A 
ATOM      8  C   UNL     1       5.824   1.206  -0.380  1.00  0.00     0.004 A 
ATOM      9  C   UNL     1       6.576  -0.945   0.204  1.00  0.00     0.004 A 
ATOM     10  C   UNL     1       5.294   1.340   0.888  1.00  0.00     0.000 A 
ATOM     11  C   UNL     1       6.048  -0.814   1.469  1.00  0.00     0.000 A 
ATOM     12  C   UNL     1       5.391   0.343   1.837  1.00  0.00     0.000 A 
ENDBRANCH   6   7
ENDBRANCH   1   6
TORSDOF 4
ENDMDL
MODEL 2
REMARK VINA RESULT:      -7.3      0.073      1.421
REMARK SMILES O=C(O)CCc1ccccc1
REMARK SMILES IDX 4 1 2 2 1 3 3 4 5 6 6 7 7 8 11 9 8 10 10 11 9 12
REMARK H PARENT 3 5
REMARK Flexibility Score: inf
ROOT
ATOM      1  C   UNL     1       8.458  -0.598  -2.194  1.00  0.00     0.127 C 
ENDROOT
BRANCH   1   2
ATOM      2  C   UNL     1       8.467  -1.892  -2.924  1.00  0.00     0.303 C 
ATOM      3  O   UNL     1       9.556  -2.493  -3.090  1.00  0.00    -0.252 OA
BRANCH   2   4
ATOM      4  O   UNL     1       7.309  -2.470  -3.436  1.00  0.00    -0.481 OA
ATOM      5  H   UNL     1       7.341  -3.261  -4.097  1.00  0.00     0.296 HD
ENDBRANCH   2   4
ENDBRANCH   1   2
BRANCH   1   6
ATOM      6  C   UNL     1       7.041  -0.094  -2.184  1.00  0.00     0.047 C 
BRANCH   6   7
ATOM      7  C   UNL     1       6.499   0.049  -0.807  1.00  0.00    -0.047 A 
ATOM      8  C   UNL     1       6.616  -0.971   0.117  1.00  0.00     0.004 A 
ATOM      9  C   UNL     1       5.857   1.198  -0.385  1.00  0.00     0.004 A 
ATOM     10  C   UNL     1       6.108  -0.828   1.394  1.00  0.00     0.000 A 
ATOM     11  C   UNL     1       5.351   1.343   0.887  1.00  0.00     0.000 A 
ATOM     12  C   UNL     1       5.469   0.322   1.808  1.00  0.00     0.000 A 
ENDBRANCH   6   7
ENDBRANCH   1   6
TORSDOF 4
ENDMDL
MODEL 3
REMARK VINA RESULT:      -7.0      0.649      1.871
REMARK SMILES O=C(O)CCc1ccccc1
REMARK SMILES IDX 4 1 2 2 1 3 3 4 5 6 6 7 7 8 11 9 8 10 10 11 9 12
REMARK H PARENT 3 5
REMARK Flexibility Score: inf
ROOT
ATOM      1  C   UNL     1       8.358  -0.790  -1.960  1.00  0.00     0.127 C 
ENDROOT
BRANCH   1   2
ATOM      2  C   UNL     1       8.393  -1.981  -2.847  1.00  0.00     0.303 C 
ATOM      3  O   UNL     1       7.314  -2.456  -3.278  1.00  0.00    -0.252 OA
BRANCH   2   4
ATOM      4  O   UNL     1       9.583  -2.598  -3.223  1.00  0.00    -0.481 OA
ATOM      5  H   UNL     1       9.877  -2.657  -4.210  1.00  0.00     0.296 HD
ENDBRANCH   2   4
ENDBRANCH   1   2
BRANCH   1   6
ATOM      6  C   UNL     1       7.782  -1.224  -0.640  1.00  0.00     0.047 C 
BRANCH   6   7
ATOM      7  C   UNL     1       6.805  -0.245  -0.097  1.00  0.00    -0.047 A 
ATOM      8  C   UNL     1       6.300  -0.373   1.183  1.00  0.00     0.004 A 
ATOM      9  C   UNL     1       6.358   0.835  -0.835  1.00  0.00     0.004 A 
ATOM     10  C   UNL     1       5.393   0.543   1.678  1.00  0.00     0.000 A 
ATOM     11  C   UNL     1       5.453   1.749  -0.344  1.00  0.00     0.000 A 
ATOM     12  C   UNL     1       4.950   1.618   0.935  1.00  0.00     0.000 A 
ENDBRANCH   6   7
ENDBRANCH   1   6
TORSDOF 4
ENDMDL
MODEL 4
REMARK VINA RESULT:      -6.8      3.376      5.093
REMARK SMILES O=C(O)CCc1ccccc1
REMARK SMILES IDX 4 1 2 2 1 3 3 4 5 6 6 7 7 8 11 9 8 10 10 11 9 12
REMARK H PARENT 3 5
REMARK Flexibility Score: inf
ROOT
ATOM      1  C   UNL     1       4.997   1.790   0.698  1.00  0.00     0.127 C 
ENDROOT
BRANCH   1   2
ATOM      2  C   UNL     1       4.501   1.125   1.930  1.00  0.00     0.303 C 
ATOM      3  O   UNL     1       5.223   0.270   2.498  1.00  0.00    -0.252 OA
BRANCH   2   4
ATOM      4  O   UNL     1       3.257   1.412   2.485  1.00  0.00    -0.481 OA
ATOM      5  H   UNL     1       2.931   0.961   3.354  1.00  0.00     0.296 HD
ENDBRANCH   2   4
ENDBRANCH   1   2
BRANCH   1   6
ATOM      6  C   UNL     1       6.499   1.816   0.771  1.00  0.00     0.047 C 
BRANCH   6   7
ATOM      7  C   UNL     1       7.135   1.033  -0.321  1.00  0.00    -0.047 A 
ATOM      8  C   UNL     1       6.404   0.139  -1.079  1.00  0.00     0.004 A 
ATOM      9  C   UNL     1       8.475   1.160  -0.633  1.00  0.00     0.004 A 
ATOM     10  C   UNL     1       7.005  -0.583  -2.092  1.00  0.00     0.000 A 
ATOM     11  C   UNL     1       9.076   0.442  -1.642  1.00  0.00     0.000 A 
ATOM     12  C   UNL     1       8.344  -0.452  -2.397  1.00  0.00     0.000 A 
ENDBRANCH   6   7
ENDBRANCH   1   6
TORSDOF 4
ENDMDL
MODEL 5
REMARK VINA RESULT:      -6.6      1.933      2.653
REMARK SMILES O=C(O)CCc1ccccc1
REMARK SMILES IDX 4 1 2 2 1 3 3 4 5 6 6 7 7 8 11 9 8 10 10 11 9 12
REMARK H PARENT 3 5
REMARK Flexibility Score: inf
ROOT
ATOM      1  C   UNL     1       8.273   0.075  -2.208  1.00  0.00     0.127 C 
ENDROOT
BRANCH   1   2
ATOM      2  C   UNL     1       9.389   0.326  -1.260  1.00  0.00     0.303 C 
ATOM      3  O   UNL     1       9.485  -0.379  -0.226  1.00  0.00    -0.252 OA
BRANCH   2   4
ATOM      4  O   UNL     1      10.342   1.319  -1.472  1.00  0.00    -0.481 OA
ATOM      5  H   UNL     1      10.836   1.775  -0.690  1.00  0.00     0.296 HD
ENDBRANCH   2   4
ENDBRANCH   1   2
BRANCH   1   6
ATOM      6  C   UNL     1       7.212  -0.690  -1.467  1.00  0.00     0.047 C 
BRANCH   6   7
ATOM      7  C   UNL     1       6.403   0.182  -0.575  1.00  0.00    -0.047 A 
ATOM      8  C   UNL     1       6.156  -0.170   0.737  1.00  0.00     0.004 A 
ATOM      9  C   UNL     1       5.862   1.377  -1.010  1.00  0.00     0.004 A 
ATOM     10  C   UNL     1       5.401   0.648   1.557  1.00  0.00     0.000 A 
ATOM     11  C   UNL     1       5.110   2.194  -0.195  1.00  0.00     0.000 A 
ATOM     12  C   UNL     1       4.864   1.840   1.116  1.00  0.00     0.000 A 
ENDBRANCH   6   7
ENDBRANCH   1   6
TORSDOF 4
ENDMDL
