@<TRIPOS>MOLECULE
/home/cewinharhar/GITHUB/reincatalyze/data/processed/docking_pred/2023-Apr-25-2033_maxeplen5_maxtrainstep200_exh16_gamma099_lrac3e-4_lrcr1e-3/c00c8b20774af87dd702fd508d588995eeb45aaa_ligand_2.pdbqt
 12 12 0 0 0
SMALL
GASTEIGER

@<TRIPOS>ATOM
      1  C          8.4310   -0.5970   -2.1630 C.3     1  UNL1        0.1270
      2  C          8.4070   -1.8930   -2.8900 C.2     1  UNL1        0.3030
      3  O          7.3030   -2.3950   -3.2110 O.2     1  UNL1       -0.2520
      4  O          9.5700   -2.5780   -3.2330 O.3     1  UNL1       -0.4810
      5  H         10.0710   -3.1730   -2.5560 H       1  UNL1        0.2960
      6  C          7.0250   -0.0620   -2.1470 C.3     1  UNL1        0.0470
      7  C          6.4790    0.0570   -0.7700 C.2     1  UNL1       -0.0470
      8  C          5.8300    1.2030   -0.3540 C.2     1  UNL1        0.0040
      9  C          6.5900   -0.9640    0.1560 C.2     1  UNL1        0.0040
     10  C          5.3250    1.3020    0.9290 C.2     1  UNL1        0.0000
     11  C          6.0880   -0.8670    1.4340 C.2     1  UNL1        0.0000
     12  C          5.4400    0.2790    1.8470 C.2     1  UNL1        0.0000
@<TRIPOS>BOND
     1     4     2    1
     2     4     5    1
     3     3     2    2
     4     2     1    1
     5     1     6    1
     6     6     7    1
     7     7     8    2
     8     7     9    1
     9     8    10    1
    10     9    11    2
    11    10    12    2
    12    11    12    1
