@<TRIPOS>MOLECULE
/home/cewinharhar/GITHUB/reincatalyze/data/processed/docking_pred/2023-Apr-25-2033_maxeplen5_maxtrainstep200_exh16_gamma099_lrac3e-4_lrcr1e-3/c00c8b20774af87dd702fd508d588995eeb45aaa_ligand_2.pdbqt
 12 12 0 0 0
SMALL
GASTEIGER

@<TRIPOS>ATOM
      1  C          8.2660   -0.8570   -1.9140 C.3     1  UNL1        0.1270
      2  C          8.4060   -1.9960   -2.8580 C.2     1  UNL1        0.3030
      3  O          9.5490   -2.4580   -3.0950 O.2     1  UNL1       -0.2520
      4  O          7.3130   -2.5780   -3.4950 O.3     1  UNL1       -0.4810
      5  H          7.2590   -2.6530   -4.5220 H       1  UNL1        0.2960
      6  C          7.4650   -1.3400   -0.7380 C.3     1  UNL1        0.0470
      7  C          6.6040   -0.2740   -0.1610 C.2     1  UNL1       -0.0470
      8  C          6.2150    0.8160   -0.9140 C.2     1  UNL1        0.0040
      9  C          6.1530   -0.3200    1.1450 C.2     1  UNL1        0.0040
     10  C          5.4150    1.8020   -0.3670 C.2     1  UNL1        0.0000
     11  C          5.3560    0.6610    1.6920 C.2     1  UNL1        0.0000
     12  C          4.9690    1.7500    0.9370 C.2     1  UNL1        0.0000
@<TRIPOS>BOND
     1     5     4    1
     2     4     2    1
     3     3     2    2
     4     2     1    1
     5     1     6    1
     6     8    10    1
     7     8     7    2
     8     6     7    1
     9    10    12    2
    10     7     9    1
    11    12    11    1
    12     9    11    2
