@<TRIPOS>MOLECULE
/home/cewinharhar/GITHUB/reincatalyze/data/processed/docking_pred/2023-Apr-25-2033_maxeplen5_maxtrainstep200_exh16_gamma099_lrac3e-4_lrcr1e-3/c00c8b20774af87dd702fd508d588995eeb45aaa_ligand_2.pdbqt
 12 12 0 0 0
SMALL
GASTEIGER

@<TRIPOS>ATOM
      1  C          8.2780   -0.9200   -1.8600 C.3     1  UNL1        0.1270
      2  C          8.3840   -2.0200   -2.8530 C.2     1  UNL1        0.3030
      3  O          9.5120   -2.5020   -3.1150 O.2     1  UNL1       -0.2520
      4  O          7.2730   -2.5440   -3.5090 O.3     1  UNL1       -0.4810
      5  H          7.0410   -2.2830   -4.4800 H       1  UNL1        0.2960
      6  C          7.4190   -1.4120   -0.7280 C.3     1  UNL1        0.0470
      7  C          6.5770   -0.3350   -0.1440 C.2     1  UNL1       -0.0470
      8  C          6.1110   -0.4160    1.1540 C.2     1  UNL1        0.0040
      9  C          6.2220    0.7920   -0.8610 C.2     1  UNL1        0.0040
     10  C          5.3290    0.5910    1.6870 C.2     1  UNL1        0.0000
     11  C          5.4430    1.7960   -0.3320 C.2     1  UNL1        0.0000
     12  C          4.9780    1.7130    0.9650 C.2     1  UNL1        0.0000
@<TRIPOS>BOND
     1     5     4    1
     2     4     2    1
     3     3     2    2
     4     2     1    1
     5     1     6    1
     6     9    11    1
     7     9     7    2
     8     6     7    1
     9    11    12    2
    10     7     8    1
    11    12    10    1
    12     8    10    2
