@<TRIPOS>MOLECULE
/home/cewinharhar/GITHUB/reincatalyze/data/processed/docking_pred/2023-Apr-25-2033_maxeplen5_maxtrainstep200_exh16_gamma099_lrac3e-4_lrcr1e-3/c00c8b20774af87dd702fd508d588995eeb45aaa_ligand_2.pdbqt
 12 12 0 0 0
SMALL
GASTEIGER

@<TRIPOS>ATOM
      1  C          8.4540   -0.6380   -2.0660 C.3     1  UNL1        0.1270
      2  C          8.4640   -1.8850   -2.8740 C.2     1  UNL1        0.3030
      3  O          9.5540   -2.4680   -3.0870 O.2     1  UNL1       -0.2520
      4  O          7.3030   -2.4370   -3.4100 O.3     1  UNL1       -0.4810
      5  H          6.5030   -2.7030   -2.8150 H       1  UNL1        0.2960
      6  C          7.0590   -0.0780   -2.1140 C.3     1  UNL1        0.0470
      7  C          6.4710    0.0950   -0.7600 C.2     1  UNL1       -0.0470
      8  C          6.5690   -0.8980    0.1960 C.2     1  UNL1        0.0040
      9  C          5.8030    1.2480   -0.3900 C.2     1  UNL1        0.0040
     10  C          6.0190   -0.7260    1.4520 C.2     1  UNL1        0.0000
     11  C          5.2540    1.4220    0.8610 C.2     1  UNL1        0.0000
     12  C          5.3530    0.4270    1.8130 C.2     1  UNL1        0.0000
@<TRIPOS>BOND
     1     4     2    1
     2     4     5    1
     3     3     2    2
     4     2     1    1
     5     6     1    1
     6     6     7    1
     7     7     9    2
     8     7     8    1
     9     9    11    1
    10     8    10    2
    11    11    12    2
    12    10    12    1
