@<TRIPOS>MOLECULE
/home/cewinharhar/GITHUB/reincatalyze/data/processed/docking_pred/2023-Apr-25-2033_maxeplen5_maxtrainstep200_exh16_gamma099_lrac3e-4_lrcr1e-3/c00c8b20774af87dd702fd508d588995eeb45aaa_ligand_2.pdbqt
 12 12 0 0 0
SMALL
GASTEIGER

@<TRIPOS>ATOM
      1  C          4.9780    1.8400    0.7390 C.3     1  UNL1        0.1270
      2  C          4.4420    1.1360    1.9320 C.2     1  UNL1        0.3030
      3  O          5.1180    0.2190    2.4580 O.2     1  UNL1       -0.2520
      4  O          3.2100    1.4550    2.4970 O.3     1  UNL1       -0.4810
      5  H          2.4100    1.7610    1.9220 H       1  UNL1        0.2960
      6  C          6.4790    1.8090    0.8310 C.3     1  UNL1        0.0470
      7  C          7.1010    1.0600   -0.2920 C.2     1  UNL1       -0.0470
      8  C          8.4280    1.2480   -0.6290 C.2     1  UNL1        0.0040
      9  C          6.3920    0.1460   -1.0480 C.2     1  UNL1        0.0040
     10  C          8.9960    0.5470   -1.6750 C.2     1  UNL1        0.0000
     11  C          6.9570   -0.5550   -2.0910 C.2     1  UNL1        0.0000
     12  C          8.2820   -0.3640   -2.4260 C.2     1  UNL1        0.0000
@<TRIPOS>BOND
     1    12    11    2
     2    12    10    1
     3    11     9    1
     4    10     8    2
     5     9     7    2
     6     8     7    1
     7     7     6    1
     8     1     6    1
     9     1     2    1
    10     5     4    1
    11     2     3    2
    12     2     4    1
