@<TRIPOS>MOLECULE
/home/cewinharhar/GITHUB/reincatalyze/data/processed/docking_pred/2023-Apr-25-2033_maxeplen5_maxtrainstep200_exh16_gamma099_lrac3e-4_lrcr1e-3/c054a7f490e8e5c171bc57af56a9ae5cb4d717f8_ligand_2.pdbqt
 12 12 0 0 0
SMALL
GASTEIGER

@<TRIPOS>ATOM
      1  C          8.4620   -0.6530   -2.0920 C.3     1  UNL1        0.1270
      2  C          8.4250   -1.9170   -2.8730 C.2     1  UNL1        0.3030
      3  O          7.3150   -2.4010   -3.2020 O.2     1  UNL1       -0.2520
      4  O          9.5800   -2.5910   -3.2600 O.3     1  UNL1       -0.4810
      5  H         10.1750   -2.2530   -4.0330 H       1  UNL1        0.2960
      6  C          7.0820   -0.0580   -2.1290 C.3     1  UNL1        0.0470
      7  C          6.4950    0.0980   -0.7720 C.2     1  UNL1       -0.0470
      8  C          6.6060   -0.9010    0.1750 C.2     1  UNL1        0.0040
      9  C          5.8150    1.2410   -0.3920 C.2     1  UNL1        0.0040
     10  C          6.0560   -0.7460    1.4330 C.2     1  UNL1        0.0000
     11  C          5.2670    1.3980    0.8620 C.2     1  UNL1        0.0000
     12  C          5.3790    0.3970    1.8060 C.2     1  UNL1        0.0000
@<TRIPOS>BOND
     1     5     4    1
     2     4     2    1
     3     3     2    2
     4     2     1    1
     5     6     1    1
     6     6     7    1
     7     7     9    2
     8     7     8    1
     9     9    11    1
    10     8    10    2
    11    11    12    2
    12    10    12    1
