MODEL 1
REMARK VINA RESULT:      -7.3      0.000      0.000
REMARK SMILES O=C(O)CCc1ccccc1
REMARK SMILES IDX 4 1 2 2 1 3 3 4 5 6 6 7 7 8 11 9 8 10 10 11 9 12
REMARK H PARENT 3 5
REMARK Flexibility Score: inf
ROOT
ATOM      1  C   UNL     1       8.438  -0.647  -2.089  1.00  0.00     0.127 C 
ENDROOT
BRANCH   1   2
ATOM      2  C   UNL     1       8.413  -1.909  -2.872  1.00  0.00     0.303 C 
ATOM      3  O   UNL     1       7.308  -2.403  -3.203  1.00  0.00    -0.252 OA
BRANCH   2   4
ATOM      4  O   UNL     1       9.576  -2.572  -3.257  1.00  0.00    -0.481 OA
ATOM      5  H   UNL     1      10.498  -2.110  -3.236  1.00  0.00     0.296 HD
ENDBRANCH   2   4
ENDBRANCH   1   2
BRANCH   1   6
ATOM      6  C   UNL     1       7.048  -0.072  -2.114  1.00  0.00     0.047 C 
BRANCH   6   7
ATOM      7  C   UNL     1       6.472   0.080  -0.752  1.00  0.00    -0.047 A 
ATOM      8  C   UNL     1       5.822   1.239  -0.375  1.00  0.00     0.004 A 
ATOM      9  C   UNL     1       6.555  -0.922   0.197  1.00  0.00     0.004 A 
ATOM     10  C   UNL     1       5.290   1.370   0.893  1.00  0.00     0.000 A 
ATOM     11  C   UNL     1       6.025  -0.794   1.462  1.00  0.00     0.000 A 
ATOM     12  C   UNL     1       5.377   0.366   1.836  1.00  0.00     0.000 A 
ENDBRANCH   6   7
ENDBRANCH   1   6
TORSDOF 4
ENDMDL
MODEL 2
REMARK VINA RESULT:      -7.3      0.039      1.420
REMARK SMILES O=C(O)CCc1ccccc1
REMARK SMILES IDX 4 1 2 2 1 3 3 4 5 6 6 7 7 8 11 9 8 10 10 11 9 12
REMARK H PARENT 3 5
REMARK Flexibility Score: inf
ROOT
ATOM      1  C   UNL     1       8.462  -0.653  -2.092  1.00  0.00     0.127 C 
ENDROOT
BRANCH   1   2
ATOM      2  C   UNL     1       8.425  -1.917  -2.873  1.00  0.00     0.303 C 
ATOM      3  O   UNL     1       7.315  -2.401  -3.202  1.00  0.00    -0.252 OA
BRANCH   2   4
ATOM      4  O   UNL     1       9.580  -2.591  -3.260  1.00  0.00    -0.481 OA
ATOM      5  H   UNL     1      10.175  -2.253  -4.033  1.00  0.00     0.296 HD
ENDBRANCH   2   4
ENDBRANCH   1   2
BRANCH   1   6
ATOM      6  C   UNL     1       7.082  -0.058  -2.129  1.00  0.00     0.047 C 
BRANCH   6   7
ATOM      7  C   UNL     1       6.495   0.098  -0.772  1.00  0.00    -0.047 A 
ATOM      8  C   UNL     1       6.606  -0.901   0.175  1.00  0.00     0.004 A 
ATOM      9  C   UNL     1       5.815   1.241  -0.392  1.00  0.00     0.004 A 
ATOM     10  C   UNL     1       6.056  -0.746   1.433  1.00  0.00     0.000 A 
ATOM     11  C   UNL     1       5.267   1.398   0.862  1.00  0.00     0.000 A 
ATOM     12  C   UNL     1       5.379   0.397   1.806  1.00  0.00     0.000 A 
ENDBRANCH   6   7
ENDBRANCH   1   6
TORSDOF 4
ENDMDL
MODEL 3
REMARK VINA RESULT:      -7.2      0.633      1.452
REMARK SMILES O=C(O)CCc1ccccc1
REMARK SMILES IDX 4 1 2 2 1 3 3 4 5 6 6 7 7 8 11 9 8 10 10 11 9 12
REMARK H PARENT 3 5
REMARK Flexibility Score: inf
ROOT
ATOM      1  C   UNL     1       8.206  -0.859  -1.960  1.00  0.00     0.127 C 
ENDROOT
BRANCH   1   2
ATOM      2  C   UNL     1       8.380  -2.005  -2.889  1.00  0.00     0.303 C 
ATOM      3  O   UNL     1       9.531  -2.465  -3.086  1.00  0.00    -0.252 OA
BRANCH   2   4
ATOM      4  O   UNL     1       7.310  -2.596  -3.556  1.00  0.00    -0.481 OA
ATOM      5  H   UNL     1       7.107  -2.393  -4.547  1.00  0.00     0.296 HD
ENDBRANCH   2   4
ENDBRANCH   1   2
BRANCH   1   6
ATOM      6  C   UNL     1       7.432  -1.354  -0.770  1.00  0.00     0.047 C 
BRANCH   6   7
ATOM      7  C   UNL     1       6.582  -0.295  -0.166  1.00  0.00    -0.047 A 
ATOM      8  C   UNL     1       6.217   0.827  -0.884  1.00  0.00     0.004 A 
ATOM      9  C   UNL     1       6.117  -0.378   1.134  1.00  0.00     0.004 A 
ATOM     10  C   UNL     1       5.426   1.805  -0.312  1.00  0.00     0.000 A 
ATOM     11  C   UNL     1       5.329   0.596   1.706  1.00  0.00     0.000 A 
ATOM     12  C   UNL     1       4.966   1.716   0.985  1.00  0.00     0.000 A 
ENDBRANCH   6   7
ENDBRANCH   1   6
TORSDOF 4
ENDMDL
MODEL 4
REMARK VINA RESULT:      -6.8      3.306      5.181
REMARK SMILES O=C(O)CCc1ccccc1
REMARK SMILES IDX 4 1 2 2 1 3 3 4 5 6 6 7 7 8 11 9 8 10 10 11 9 12
REMARK H PARENT 3 5
REMARK Flexibility Score: inf
ROOT
ATOM      1  C   UNL     1       4.985   1.800   0.707  1.00  0.00     0.127 C 
ENDROOT
BRANCH   1   2
ATOM      2  C   UNL     1       4.461   1.123   1.922  1.00  0.00     0.303 C 
ATOM      3  O   UNL     1       5.147   0.225   2.467  1.00  0.00    -0.252 OA
BRANCH   2   4
ATOM      4  O   UNL     1       3.230   1.448   2.486  1.00  0.00    -0.481 OA
ATOM      5  H   UNL     1       2.906   1.024   3.368  1.00  0.00     0.296 HD
ENDBRANCH   2   4
ENDBRANCH   1   2
BRANCH   1   6
ATOM      6  C   UNL     1       6.486   1.802   0.803  1.00  0.00     0.047 C 
BRANCH   6   7
ATOM      7  C   UNL     1       7.127   1.052  -0.308  1.00  0.00    -0.047 A 
ATOM      8  C   UNL     1       6.410   0.150  -1.070  1.00  0.00     0.004 A 
ATOM      9  C   UNL     1       8.460   1.217  -0.635  1.00  0.00     0.004 A 
ATOM     10  C   UNL     1       7.015  -0.543  -2.101  1.00  0.00     0.000 A 
ATOM     11  C   UNL     1       9.066   0.528  -1.662  1.00  0.00     0.000 A 
ATOM     12  C   UNL     1       8.347  -0.373  -2.420  1.00  0.00     0.000 A 
ENDBRANCH   6   7
ENDBRANCH   1   6
TORSDOF 4
ENDMDL
MODEL 5
REMARK VINA RESULT:      -6.6      1.928      2.603
REMARK SMILES O=C(O)CCc1ccccc1
REMARK SMILES IDX 4 1 2 2 1 3 3 4 5 6 6 7 7 8 11 9 8 10 10 11 9 12
REMARK H PARENT 3 5
REMARK Flexibility Score: inf
ROOT
ATOM      1  C   UNL     1       8.266   0.214  -2.232  1.00  0.00     0.127 C 
ENDROOT
BRANCH   1   2
ATOM      2  C   UNL     1       9.399   0.383  -1.286  1.00  0.00     0.303 C 
ATOM      3  O   UNL     1       9.478  -0.370  -0.285  1.00  0.00    -0.252 OA
BRANCH   2   4
ATOM      4  O   UNL     1      10.384   1.350  -1.465  1.00  0.00    -0.481 OA
ATOM      5  H   UNL     1      10.485   2.150  -0.822  1.00  0.00     0.296 HD
ENDBRANCH   2   4
ENDBRANCH   1   2
BRANCH   1   6
ATOM      6  C   UNL     1       7.199  -0.575  -1.525  1.00  0.00     0.047 C 
BRANCH   6   7
ATOM      7  C   UNL     1       6.380   0.267  -0.613  1.00  0.00    -0.047 A 
ATOM      8  C   UNL     1       6.128  -0.123   0.687  1.00  0.00     0.004 A 
ATOM      9  C   UNL     1       5.837   1.473  -1.016  1.00  0.00     0.004 A 
ATOM     10  C   UNL     1       5.366   0.667   1.526  1.00  0.00     0.000 A 
ATOM     11  C   UNL     1       5.077   2.263  -0.182  1.00  0.00     0.000 A 
ATOM     12  C   UNL     1       4.826   1.869   1.117  1.00  0.00     0.000 A 
ENDBRANCH   6   7
ENDBRANCH   1   6
TORSDOF 4
ENDMDL
