@<TRIPOS>MOLECULE
/home/cewinharhar/GITHUB/reincatalyze/data/processed/docking_pred/2023-Apr-25-2033_maxeplen5_maxtrainstep200_exh16_gamma099_lrac3e-4_lrcr1e-3/c054a7f490e8e5c171bc57af56a9ae5cb4d717f8_ligand_2.pdbqt
 12 12 0 0 0
SMALL
GASTEIGER

@<TRIPOS>ATOM
      1  C          8.2660    0.2140   -2.2320 C.3     1  UNL1        0.1270
      2  C          9.3990    0.3830   -1.2860 C.2     1  UNL1        0.3030
      3  O          9.4780   -0.3700   -0.2850 O.2     1  UNL1       -0.2520
      4  O         10.3840    1.3500   -1.4650 O.3     1  UNL1       -0.4810
      5  H         10.4850    2.1500   -0.8220 H       1  UNL1        0.2960
      6  C          7.1990   -0.5750   -1.5250 C.3     1  UNL1        0.0470
      7  C          6.3800    0.2670   -0.6130 C.2     1  UNL1       -0.0470
      8  C          6.1280   -0.1230    0.6870 C.2     1  UNL1        0.0040
      9  C          5.8370    1.4730   -1.0160 C.2     1  UNL1        0.0040
     10  C          5.3660    0.6670    1.5260 C.2     1  UNL1        0.0000
     11  C          5.0770    2.2630   -0.1820 C.2     1  UNL1        0.0000
     12  C          4.8260    1.8690    1.1170 C.2     1  UNL1        0.0000
@<TRIPOS>BOND
     1     1     6    1
     2     1     2    1
     3     6     7    1
     4     4     2    1
     5     4     5    1
     6     2     3    2
     7     9     7    2
     8     9    11    1
     9     7     8    1
    10    11    12    2
    11     8    10    2
    12    12    10    1
