@<TRIPOS>MOLECULE
/home/cewinharhar/GITHUB/reincatalyze/data/processed/docking_pred/2023-Apr-25-2033_maxeplen5_maxtrainstep200_exh16_gamma099_lrac3e-4_lrcr1e-3/c054a7f490e8e5c171bc57af56a9ae5cb4d717f8_ligand_2.pdbqt
 12 12 0 0 0
SMALL
GASTEIGER

@<TRIPOS>ATOM
      1  C          8.4380   -0.6470   -2.0890 C.3     1  UNL1        0.1270
      2  C          8.4130   -1.9090   -2.8720 C.2     1  UNL1        0.3030
      3  O          7.3080   -2.4030   -3.2030 O.2     1  UNL1       -0.2520
      4  O          9.5760   -2.5720   -3.2570 O.3     1  UNL1       -0.4810
      5  H         10.4980   -2.1100   -3.2360 H       1  UNL1        0.2960
      6  C          7.0480   -0.0720   -2.1140 C.3     1  UNL1        0.0470
      7  C          6.4720    0.0800   -0.7520 C.2     1  UNL1       -0.0470
      8  C          5.8220    1.2390   -0.3750 C.2     1  UNL1        0.0040
      9  C          6.5550   -0.9220    0.1970 C.2     1  UNL1        0.0040
     10  C          5.2900    1.3700    0.8930 C.2     1  UNL1        0.0000
     11  C          6.0250   -0.7940    1.4620 C.2     1  UNL1        0.0000
     12  C          5.3770    0.3660    1.8360 C.2     1  UNL1        0.0000
@<TRIPOS>BOND
     1     4     5    1
     2     4     2    1
     3     3     2    2
     4     2     1    1
     5     6     1    1
     6     6     7    1
     7     7     8    2
     8     7     9    1
     9     8    10    1
    10     9    11    2
    11    10    12    2
    12    11    12    1
