@<TRIPOS>MOLECULE
/home/cewinharhar/GITHUB/reincatalyze/data/processed/docking_pred/2023-Apr-25-2033_maxeplen5_maxtrainstep200_exh16_gamma099_lrac3e-4_lrcr1e-3/c054a7f490e8e5c171bc57af56a9ae5cb4d717f8_ligand_2.pdbqt
 12 12 0 0 0
SMALL
GASTEIGER

@<TRIPOS>ATOM
      1  C          8.2060   -0.8590   -1.9600 C.3     1  UNL1        0.1270
      2  C          8.3800   -2.0050   -2.8890 C.2     1  UNL1        0.3030
      3  O          9.5310   -2.4650   -3.0860 O.2     1  UNL1       -0.2520
      4  O          7.3100   -2.5960   -3.5560 O.3     1  UNL1       -0.4810
      5  H          7.1070   -2.3930   -4.5470 H       1  UNL1        0.2960
      6  C          7.4320   -1.3540   -0.7700 C.3     1  UNL1        0.0470
      7  C          6.5820   -0.2950   -0.1660 C.2     1  UNL1       -0.0470
      8  C          6.2170    0.8270   -0.8840 C.2     1  UNL1        0.0040
      9  C          6.1170   -0.3780    1.1340 C.2     1  UNL1        0.0040
     10  C          5.4260    1.8050   -0.3120 C.2     1  UNL1        0.0000
     11  C          5.3290    0.5960    1.7060 C.2     1  UNL1        0.0000
     12  C          4.9660    1.7160    0.9850 C.2     1  UNL1        0.0000
@<TRIPOS>BOND
     1     5     4    1
     2     4     2    1
     3     3     2    2
     4     2     1    1
     5     1     6    1
     6     8    10    1
     7     8     7    2
     8     6     7    1
     9    10    12    2
    10     7     9    1
    11    12    11    1
    12     9    11    2
