@<TRIPOS>MOLECULE
/home/cewinharhar/GITHUB/reincatalyze/data/processed/docking_pred/2023-Apr-25-2033_maxeplen5_maxtrainstep200_exh16_gamma099_lrac3e-4_lrcr1e-3/c054a7f490e8e5c171bc57af56a9ae5cb4d717f8_ligand_2.pdbqt
 12 12 0 0 0
SMALL
GASTEIGER

@<TRIPOS>ATOM
      1  C          4.9850    1.8000    0.7070 C.3     1  UNL1        0.1270
      2  C          4.4610    1.1230    1.9220 C.2     1  UNL1        0.3030
      3  O          5.1470    0.2250    2.4670 O.2     1  UNL1       -0.2520
      4  O          3.2300    1.4480    2.4860 O.3     1  UNL1       -0.4810
      5  H          2.9060    1.0240    3.3680 H       1  UNL1        0.2960
      6  C          6.4860    1.8020    0.8030 C.3     1  UNL1        0.0470
      7  C          7.1270    1.0520   -0.3080 C.2     1  UNL1       -0.0470
      8  C          6.4100    0.1500   -1.0700 C.2     1  UNL1        0.0040
      9  C          8.4600    1.2170   -0.6350 C.2     1  UNL1        0.0040
     10  C          7.0150   -0.5430   -2.1010 C.2     1  UNL1        0.0000
     11  C          9.0660    0.5280   -1.6620 C.2     1  UNL1        0.0000
     12  C          8.3470   -0.3730   -2.4200 C.2     1  UNL1        0.0000
@<TRIPOS>BOND
     1    12    10    2
     2    12    11    1
     3    10     8    1
     4    11     9    2
     5     8     7    2
     6     9     7    1
     7     7     6    1
     8     1     6    1
     9     1     2    1
    10     2     3    2
    11     2     4    1
    12     4     5    1
