@<TRIPOS>MOLECULE
/home/cewinharhar/GITHUB/reincatalyze/data/processed/docking_pred/2023-Apr-25-2033_maxeplen5_maxtrainstep200_exh16_gamma099_lrac3e-4_lrcr1e-3/c2b16f598521213e119e3a09a49f7e8c9c89cc3b_ligand_2.pdbqt
 12 12 0 0 0
SMALL
GASTEIGER

@<TRIPOS>ATOM
      1  C          8.4370   -0.6420   -2.1010 C.3     1  UNL1        0.1270
      2  C          8.4140   -1.9100   -2.8750 C.2     1  UNL1        0.3030
      3  O          7.3100   -2.4070   -3.2040 O.2     1  UNL1       -0.2520
      4  O          9.5770   -2.5760   -3.2530 O.3     1  UNL1       -0.4810
      5  H         10.4690   -2.0770   -3.3930 H       1  UNL1        0.2960
      6  C          7.0440   -0.0760   -2.1170 C.3     1  UNL1        0.0470
      7  C          6.4740    0.0690   -0.7520 C.2     1  UNL1       -0.0470
      8  C          5.8170    1.2230   -0.3700 C.2     1  UNL1        0.0040
      9  C          6.5690   -0.9330    0.1950 C.2     1  UNL1        0.0040
     10  C          5.2910    1.3470    0.9010 C.2     1  UNL1        0.0000
     11  C          6.0460   -0.8120    1.4630 C.2     1  UNL1        0.0000
     12  C          5.3910    0.3420    1.8420 C.2     1  UNL1        0.0000
@<TRIPOS>BOND
     1     5     4    1
     2     4     2    1
     3     3     2    2
     4     2     1    1
     5     6     1    1
     6     6     7    1
     7     7     8    2
     8     7     9    1
     9     8    10    1
    10     9    11    2
    11    10    12    2
    12    11    12    1
