@<TRIPOS>MOLECULE
/home/cewinharhar/GITHUB/reincatalyze/data/processed/docking_pred/2023-Apr-25-2033_maxeplen5_maxtrainstep200_exh16_gamma099_lrac3e-4_lrcr1e-3/c2b16f598521213e119e3a09a49f7e8c9c89cc3b_ligand_2.pdbqt
 12 12 0 0 0
SMALL
GASTEIGER

@<TRIPOS>ATOM
      1  C          8.1820   -1.5990    1.1510 C.3     1  UNL1        0.1270
      2  C          8.4820   -2.7900    0.3140 C.2     1  UNL1        0.3030
      3  O          9.1400   -3.7360    0.8090 O.2     1  UNL1       -0.2520
      4  O          8.0590   -2.9000   -1.0080 O.3     1  UNL1       -0.4810
      5  H          7.9850   -3.8130   -1.4820 H       1  UNL1        0.2960
      6  C          6.6870   -1.5050    1.2840 C.3     1  UNL1        0.0470
      7  C          6.1520   -0.2170    0.7690 C.2     1  UNL1       -0.0470
      8  C          5.3890    0.6120    1.5690 C.2     1  UNL1        0.0040
      9  C          6.3880    0.2130   -0.5230 C.2     1  UNL1        0.0040
     10  C          4.8960    1.8060    1.0800 C.2     1  UNL1        0.0000
     11  C          5.8980    1.4040   -1.0130 C.2     1  UNL1        0.0000
     12  C          5.1360    2.2300   -0.2110 C.2     1  UNL1        0.0000
@<TRIPOS>BOND
     1     5     4    1
     2    11     9    1
     3    11    12    2
     4     4     2    1
     5     9     7    2
     6    12    10    1
     7     2     3    2
     8     2     1    1
     9     7     6    1
    10     7     8    1
    11    10     8    2
    12     1     6    1
