@<TRIPOS>MOLECULE
/home/cewinharhar/GITHUB/reincatalyze/data/processed/docking_pred/2023-Apr-25-2033_maxeplen5_maxtrainstep200_exh16_gamma099_lrac3e-4_lrcr1e-3/c2b16f598521213e119e3a09a49f7e8c9c89cc3b_ligand_2.pdbqt
 12 12 0 0 0
SMALL
GASTEIGER

@<TRIPOS>ATOM
      1  C          5.0040    1.7260    0.6860 C.3     1  UNL1        0.1270
      2  C          4.4690    1.0940    1.9200 C.2     1  UNL1        0.3030
      3  O          5.1410    0.2020    2.4920 O.2     1  UNL1       -0.2520
      4  O          3.2420    1.4530    2.4720 O.3     1  UNL1       -0.4810
      5  H          2.7300    2.2930    2.1610 H       1  UNL1        0.2960
      6  C          6.5040    1.7210    0.7890 C.3     1  UNL1        0.0470
      7  C          7.1470    0.9700   -0.3220 C.2     1  UNL1       -0.0470
      8  C          8.4620    1.2010   -0.6740 C.2     1  UNL1        0.0040
      9  C          6.4680    0.0110   -1.0500 C.2     1  UNL1        0.0040
     10  C          9.0500    0.4980   -1.7080 C.2     1  UNL1        0.0000
     11  C          7.0520   -0.6920   -2.0810 C.2     1  UNL1        0.0000
     12  C          8.3660   -0.4580   -2.4310 C.2     1  UNL1        0.0000
@<TRIPOS>BOND
     1    12    11    2
     2    12    10    1
     3    11     9    1
     4    10     8    2
     5     9     7    2
     6     8     7    1
     7     7     6    1
     8     1     6    1
     9     1     2    1
    10     2     4    1
    11     2     3    2
    12     5     4    1
