MODEL 1
REMARK VINA RESULT:      -7.3      0.000      0.000
REMARK SMILES O=C(O)CCc1ccccc1
REMARK SMILES IDX 4 1 2 2 1 3 3 4 5 6 6 7 7 8 11 9 8 10 10 11 9 12
REMARK H PARENT 3 5
REMARK Flexibility Score: inf
ROOT
ATOM      1  C   UNL     1       8.437  -0.642  -2.101  1.00  0.00     0.127 C 
ENDROOT
BRANCH   1   2
ATOM      2  C   UNL     1       8.414  -1.910  -2.875  1.00  0.00     0.303 C 
ATOM      3  O   UNL     1       7.310  -2.407  -3.204  1.00  0.00    -0.252 OA
BRANCH   2   4
ATOM      4  O   UNL     1       9.577  -2.576  -3.253  1.00  0.00    -0.481 OA
ATOM      5  H   UNL     1      10.469  -2.077  -3.393  1.00  0.00     0.296 HD
ENDBRANCH   2   4
ENDBRANCH   1   2
BRANCH   1   6
ATOM      6  C   UNL     1       7.044  -0.076  -2.117  1.00  0.00     0.047 C 
BRANCH   6   7
ATOM      7  C   UNL     1       6.474   0.069  -0.752  1.00  0.00    -0.047 A 
ATOM      8  C   UNL     1       5.817   1.223  -0.370  1.00  0.00     0.004 A 
ATOM      9  C   UNL     1       6.569  -0.933   0.195  1.00  0.00     0.004 A 
ATOM     10  C   UNL     1       5.291   1.347   0.901  1.00  0.00     0.000 A 
ATOM     11  C   UNL     1       6.046  -0.812   1.463  1.00  0.00     0.000 A 
ATOM     12  C   UNL     1       5.391   0.342   1.842  1.00  0.00     0.000 A 
ENDBRANCH   6   7
ENDBRANCH   1   6
TORSDOF 4
ENDMDL
MODEL 2
REMARK VINA RESULT:      -7.2      0.077      1.421
REMARK SMILES O=C(O)CCc1ccccc1
REMARK SMILES IDX 4 1 2 2 1 3 3 4 5 6 6 7 7 8 11 9 8 10 10 11 9 12
REMARK H PARENT 3 5
REMARK Flexibility Score: inf
ROOT
ATOM      1  C   UNL     1       8.429  -0.581  -2.171  1.00  0.00     0.127 C 
ENDROOT
BRANCH   1   2
ATOM      2  C   UNL     1       8.418  -1.877  -2.898  1.00  0.00     0.303 C 
ATOM      3  O   UNL     1       7.319  -2.403  -3.196  1.00  0.00    -0.252 OA
BRANCH   2   4
ATOM      4  O   UNL     1       9.588  -2.537  -3.267  1.00  0.00    -0.481 OA
ATOM      5  H   UNL     1       9.659  -3.566  -3.255  1.00  0.00     0.296 HD
ENDBRANCH   2   4
ENDBRANCH   1   2
BRANCH   1   6
ATOM      6  C   UNL     1       7.025  -0.045  -2.182  1.00  0.00     0.047 C 
BRANCH   6   7
ATOM      7  C   UNL     1       6.468   0.116  -0.813  1.00  0.00    -0.047 A 
ATOM      8  C   UNL     1       6.588  -0.886   0.130  1.00  0.00     0.004 A 
ATOM      9  C   UNL     1       5.810   1.266  -0.417  1.00  0.00     0.004 A 
ATOM     10  C   UNL     1       6.067  -0.725   1.400  1.00  0.00     0.000 A 
ATOM     11  C   UNL     1       5.290   1.428   0.848  1.00  0.00     0.000 A 
ATOM     12  C   UNL     1       5.411   0.425   1.788  1.00  0.00     0.000 A 
ENDBRANCH   6   7
ENDBRANCH   1   6
TORSDOF 4
ENDMDL
MODEL 3
REMARK VINA RESULT:      -6.8      3.304      5.150
REMARK SMILES O=C(O)CCc1ccccc1
REMARK SMILES IDX 4 1 2 2 1 3 3 4 5 6 6 7 7 8 11 9 8 10 10 11 9 12
REMARK H PARENT 3 5
REMARK Flexibility Score: inf
ROOT
ATOM      1  C   UNL     1       5.004   1.726   0.686  1.00  0.00     0.127 C 
ENDROOT
BRANCH   1   2
ATOM      2  C   UNL     1       4.469   1.094   1.920  1.00  0.00     0.303 C 
ATOM      3  O   UNL     1       5.141   0.202   2.492  1.00  0.00    -0.252 OA
BRANCH   2   4
ATOM      4  O   UNL     1       3.242   1.453   2.472  1.00  0.00    -0.481 OA
ATOM      5  H   UNL     1       2.730   2.293   2.161  1.00  0.00     0.296 HD
ENDBRANCH   2   4
ENDBRANCH   1   2
BRANCH   1   6
ATOM      6  C   UNL     1       6.504   1.721   0.789  1.00  0.00     0.047 C 
BRANCH   6   7
ATOM      7  C   UNL     1       7.147   0.970  -0.322  1.00  0.00    -0.047 A 
ATOM      8  C   UNL     1       8.462   1.201  -0.674  1.00  0.00     0.004 A 
ATOM      9  C   UNL     1       6.468   0.011  -1.050  1.00  0.00     0.004 A 
ATOM     10  C   UNL     1       9.050   0.498  -1.708  1.00  0.00     0.000 A 
ATOM     11  C   UNL     1       7.052  -0.692  -2.081  1.00  0.00     0.000 A 
ATOM     12  C   UNL     1       8.366  -0.458  -2.431  1.00  0.00     0.000 A 
ENDBRANCH   6   7
ENDBRANCH   1   6
TORSDOF 4
ENDMDL
MODEL 4
REMARK VINA RESULT:      -6.6      1.918      2.243
REMARK SMILES O=C(O)CCc1ccccc1
REMARK SMILES IDX 4 1 2 2 1 3 3 4 5 6 6 7 7 8 11 9 8 10 10 11 9 12
REMARK H PARENT 3 5
REMARK Flexibility Score: inf
ROOT
ATOM      1  C   UNL     1       8.251   0.165  -2.203  1.00  0.00     0.127 C 
ENDROOT
BRANCH   1   2
ATOM      2  C   UNL     1       9.367   0.327  -1.236  1.00  0.00     0.303 C 
ATOM      3  O   UNL     1       9.422  -0.426  -0.233  1.00  0.00    -0.252 OA
BRANCH   2   4
ATOM      4  O   UNL     1      10.363   1.286  -1.397  1.00  0.00    -0.481 OA
ATOM      5  H   UNL     1      11.292   1.048  -1.776  1.00  0.00     0.296 HD
ENDBRANCH   2   4
ENDBRANCH   1   2
BRANCH   1   6
ATOM      6  C   UNL     1       7.162  -0.608  -1.513  1.00  0.00     0.047 C 
BRANCH   6   7
ATOM      7  C   UNL     1       6.360   0.240  -0.592  1.00  0.00    -0.047 A 
ATOM      8  C   UNL     1       5.843   1.453  -1.004  1.00  0.00     0.004 A 
ATOM      9  C   UNL     1       6.093  -0.138   0.711  1.00  0.00     0.004 A 
ATOM     10  C   UNL     1       5.099   2.233  -0.139  1.00  0.00     0.000 A 
ATOM     11  C   UNL     1       5.352   0.637   1.574  1.00  0.00     0.000 A 
ATOM     12  C   UNL     1       4.837   1.849   1.160  1.00  0.00     0.000 A 
ENDBRANCH   6   7
ENDBRANCH   1   6
TORSDOF 4
ENDMDL
MODEL 5
REMARK VINA RESULT:      -6.5      1.885      2.906
REMARK SMILES O=C(O)CCc1ccccc1
REMARK SMILES IDX 4 1 2 2 1 3 3 4 5 6 6 7 7 8 11 9 8 10 10 11 9 12
REMARK H PARENT 3 5
REMARK Flexibility Score: inf
ROOT
ATOM      1  C   UNL     1       8.182  -1.599   1.151  1.00  0.00     0.127 C 
ENDROOT
BRANCH   1   2
ATOM      2  C   UNL     1       8.482  -2.790   0.314  1.00  0.00     0.303 C 
ATOM      3  O   UNL     1       9.140  -3.736   0.809  1.00  0.00    -0.252 OA
BRANCH   2   4
ATOM      4  O   UNL     1       8.059  -2.900  -1.008  1.00  0.00    -0.481 OA
ATOM      5  H   UNL     1       7.985  -3.813  -1.482  1.00  0.00     0.296 HD
ENDBRANCH   2   4
ENDBRANCH   1   2
BRANCH   1   6
ATOM      6  C   UNL     1       6.687  -1.505   1.284  1.00  0.00     0.047 C 
BRANCH   6   7
ATOM      7  C   UNL     1       6.152  -0.217   0.769  1.00  0.00    -0.047 A 
ATOM      8  C   UNL     1       5.389   0.612   1.569  1.00  0.00     0.004 A 
ATOM      9  C   UNL     1       6.388   0.213  -0.523  1.00  0.00     0.004 A 
ATOM     10  C   UNL     1       4.896   1.806   1.080  1.00  0.00     0.000 A 
ATOM     11  C   UNL     1       5.898   1.404  -1.013  1.00  0.00     0.000 A 
ATOM     12  C   UNL     1       5.136   2.230  -0.211  1.00  0.00     0.000 A 
ENDBRANCH   6   7
ENDBRANCH   1   6
TORSDOF 4
ENDMDL
