@<TRIPOS>MOLECULE
/home/cewinharhar/GITHUB/reincatalyze/data/processed/docking_pred/2023-Apr-25-2033_maxeplen5_maxtrainstep200_exh16_gamma099_lrac3e-4_lrcr1e-3/c2b16f598521213e119e3a09a49f7e8c9c89cc3b_ligand_2.pdbqt
 12 12 0 0 0
SMALL
GASTEIGER

@<TRIPOS>ATOM
      1  C          8.2510    0.1650   -2.2030 C.3     1  UNL1        0.1270
      2  C          9.3670    0.3270   -1.2360 C.2     1  UNL1        0.3030
      3  O          9.4220   -0.4260   -0.2330 O.2     1  UNL1       -0.2520
      4  O         10.3630    1.2860   -1.3970 O.3     1  UNL1       -0.4810
      5  H         11.2920    1.0480   -1.7760 H       1  UNL1        0.2960
      6  C          7.1620   -0.6080   -1.5130 C.3     1  UNL1        0.0470
      7  C          6.3600    0.2400   -0.5920 C.2     1  UNL1       -0.0470
      8  C          5.8430    1.4530   -1.0040 C.2     1  UNL1        0.0040
      9  C          6.0930   -0.1380    0.7110 C.2     1  UNL1        0.0040
     10  C          5.0990    2.2330   -0.1390 C.2     1  UNL1        0.0000
     11  C          5.3520    0.6370    1.5740 C.2     1  UNL1        0.0000
     12  C          4.8370    1.8490    1.1600 C.2     1  UNL1        0.0000
@<TRIPOS>BOND
     1     1     6    1
     2     1     2    1
     3     5     4    1
     4     6     7    1
     5     4     2    1
     6     2     3    2
     7     8     7    2
     8     8    10    1
     9     7     9    1
    10    10    12    2
    11     9    11    2
    12    12    11    1
