@<TRIPOS>MOLECULE
/home/cewinharhar/GITHUB/reincatalyze/data/processed/docking_pred/2023-Apr-25-2033_maxeplen5_maxtrainstep200_exh16_gamma099_lrac3e-4_lrcr1e-3/c2b16f598521213e119e3a09a49f7e8c9c89cc3b_ligand_2.pdbqt
 12 12 0 0 0
SMALL
GASTEIGER

@<TRIPOS>ATOM
      1  C          8.4290   -0.5810   -2.1710 C.3     1  UNL1        0.1270
      2  C          8.4180   -1.8770   -2.8980 C.2     1  UNL1        0.3030
      3  O          7.3190   -2.4030   -3.1960 O.2     1  UNL1       -0.2520
      4  O          9.5880   -2.5370   -3.2670 O.3     1  UNL1       -0.4810
      5  H          9.6590   -3.5660   -3.2550 H       1  UNL1        0.2960
      6  C          7.0250   -0.0450   -2.1820 C.3     1  UNL1        0.0470
      7  C          6.4680    0.1160   -0.8130 C.2     1  UNL1       -0.0470
      8  C          6.5880   -0.8860    0.1300 C.2     1  UNL1        0.0040
      9  C          5.8100    1.2660   -0.4170 C.2     1  UNL1        0.0040
     10  C          6.0670   -0.7250    1.4000 C.2     1  UNL1        0.0000
     11  C          5.2900    1.4280    0.8480 C.2     1  UNL1        0.0000
     12  C          5.4110    0.4250    1.7880 C.2     1  UNL1        0.0000
@<TRIPOS>BOND
     1     4     5    1
     2     4     2    1
     3     3     2    2
     4     2     1    1
     5     6     1    1
     6     6     7    1
     7     7     9    2
     8     7     8    1
     9     9    11    1
    10     8    10    2
    11    11    12    2
    12    10    12    1
