@<TRIPOS>MOLECULE
/home/cewinharhar/GITHUB/reincatalyze/data/processed/docking_pred/2023-Apr-25-2033_maxeplen5_maxtrainstep200_exh16_gamma099_lrac3e-4_lrcr1e-3/c61eb663c2c3330cf201d691d278f59eb7eebd68_ligand_2.pdbqt
 12 12 0 0 0
SMALL
GASTEIGER

@<TRIPOS>ATOM
      1  C          5.3160    2.9350    0.0960 C.3     1  UNL1        0.1270
      2  C          6.1940    3.8570    0.8620 C.2     1  UNL1        0.3030
      3  O          6.8200    4.7560    0.2490 O.2     1  UNL1       -0.2520
      4  O          6.3520    3.7650    2.2420 O.3     1  UNL1       -0.4810
      5  H          7.2120    3.3860    2.6670 H       1  UNL1        0.2960
      6  C          5.2500    1.6380    0.8550 C.3     1  UNL1        0.0470
      7  C          6.0250    0.5550    0.1960 C.2     1  UNL1       -0.0470
      8  C          6.4660   -0.5440    0.9080 C.2     1  UNL1        0.0040
      9  C          6.3390    0.5890   -1.1500 C.2     1  UNL1        0.0040
     10  C          7.1860   -1.5460    0.2850 C.2     1  UNL1        0.0000
     11  C          7.0560   -0.4080   -1.7730 C.2     1  UNL1        0.0000
     12  C          7.4970   -1.5040   -1.0590 C.2     1  UNL1        0.0000
@<TRIPOS>BOND
     1    11     9    1
     2    11    12    2
     3     9     7    2
     4    12    10    1
     5     1     6    1
     6     1     2    1
     7     7     6    1
     8     7     8    1
     9     3     2    2
    10    10     8    2
    11     2     4    1
    12     4     5    1
