@<TRIPOS>MOLECULE
/home/cewinharhar/GITHUB/reincatalyze/data/processed/docking_pred/2023-Apr-25-2033_maxeplen5_maxtrainstep200_exh16_gamma099_lrac3e-4_lrcr1e-3/c61eb663c2c3330cf201d691d278f59eb7eebd68_ligand_2.pdbqt
 12 12 0 0 0
SMALL
GASTEIGER

@<TRIPOS>ATOM
      1  C          8.4220   -0.5600   -2.2020 C.3     1  UNL1        0.1270
      2  C          8.4210   -1.8680   -2.9060 C.2     1  UNL1        0.3030
      3  O          7.3260   -2.4010   -3.2080 O.2     1  UNL1       -0.2520
      4  O          9.5950   -2.5330   -3.2500 O.3     1  UNL1       -0.4810
      5  H         10.4680   -2.0240   -3.4580 H       1  UNL1        0.2960
      6  C          7.0020   -0.0690   -2.1580 C.3     1  UNL1        0.0470
      7  C          6.4800    0.0380   -0.7700 C.2     1  UNL1       -0.0470
      8  C          6.6130   -1.0050    0.1260 C.2     1  UNL1        0.0040
      9  C          5.8440    1.1750   -0.3090 C.2     1  UNL1        0.0040
     10  C          6.1250   -0.8950    1.4140 C.2     1  UNL1        0.0000
     11  C          5.3560    1.2870    0.9740 C.2     1  UNL1        0.0000
     12  C          5.4900    0.2430    1.8670 C.2     1  UNL1        0.0000
@<TRIPOS>BOND
     1     5     4    1
     2     4     2    1
     3     3     2    2
     4     2     1    1
     5     1     6    1
     6     6     7    1
     7     7     9    2
     8     7     8    1
     9     9    11    1
    10     8    10    2
    11    11    12    2
    12    10    12    1
