@<TRIPOS>MOLECULE
/home/cewinharhar/GITHUB/reincatalyze/data/processed/docking_pred/2023-Apr-25-2033_maxeplen5_maxtrainstep200_exh16_gamma099_lrac3e-4_lrcr1e-3/c61eb663c2c3330cf201d691d278f59eb7eebd68_ligand_2.pdbqt
 12 12 0 0 0
SMALL
GASTEIGER

@<TRIPOS>ATOM
      1  C          8.4760   -0.6670   -2.0540 C.3     1  UNL1        0.1270
      2  C          8.4280   -1.9120   -2.8640 C.2     1  UNL1        0.3030
      3  O          7.3130   -2.3830   -3.1960 O.2     1  UNL1       -0.2520
      4  O          9.5770   -2.5810   -3.2740 O.3     1  UNL1       -0.4810
      5  H         10.2780   -2.9240   -2.5990 H       1  UNL1        0.2960
      6  C          7.1090   -0.0430   -2.1010 C.3     1  UNL1        0.0470
      7  C          6.5040    0.1000   -0.7510 C.2     1  UNL1       -0.0470
      8  C          5.8190    1.2450   -0.3910 C.2     1  UNL1        0.0040
      9  C          6.5920   -0.8950    0.2040 C.2     1  UNL1        0.0040
     10  C          5.2600    1.3670    0.8660 C.2     1  UNL1        0.0000
     11  C          6.0360   -0.7760    1.4580 C.2     1  UNL1        0.0000
     12  C          5.3530    0.3700    1.8150 C.2     1  UNL1        0.0000
@<TRIPOS>BOND
     1     4     2    1
     2     4     5    1
     3     3     2    2
     4     2     1    1
     5     6     1    1
     6     6     7    1
     7     7     8    2
     8     7     9    1
     9     8    10    1
    10     9    11    2
    11    10    12    2
    12    11    12    1
