@<TRIPOS>MOLECULE
/home/cewinharhar/GITHUB/reincatalyze/data/processed/docking_pred/2023-Apr-25-2033_maxeplen5_maxtrainstep200_exh16_gamma099_lrac3e-4_lrcr1e-3/c61eb663c2c3330cf201d691d278f59eb7eebd68_ligand_2.pdbqt
 12 12 0 0 0
SMALL
GASTEIGER

@<TRIPOS>ATOM
      1  C          4.9920    1.8010    0.6980 C.3     1  UNL1        0.1270
      2  C          4.4680    1.1270    1.9150 C.2     1  UNL1        0.3030
      3  O          5.1560    0.2320    2.4630 O.2     1  UNL1       -0.2520
      4  O          3.2360    1.4510    2.4770 O.3     1  UNL1       -0.4810
      5  H          3.1490    1.7580    3.4570 H       1  UNL1        0.2960
      6  C          6.4930    1.7950    0.7880 C.3     1  UNL1        0.0470
      7  C          7.1250    1.0310   -0.3200 C.2     1  UNL1       -0.0470
      8  C          8.4560    1.2100   -0.6440 C.2     1  UNL1        0.0040
      9  C          6.4210    0.1110   -1.0730 C.2     1  UNL1        0.0040
     10  C          9.0330    0.4950   -1.6760 C.2     1  UNL1        0.0000
     11  C          6.9940   -0.6030   -2.1020 C.2     1  UNL1        0.0000
     12  C          8.3240   -0.4220   -2.4240 C.2     1  UNL1        0.0000
@<TRIPOS>BOND
     1    12    11    2
     2    12    10    1
     3    11     9    1
     4    10     8    2
     5     9     7    2
     6     8     7    1
     7     7     6    1
     8     1     6    1
     9     1     2    1
    10     2     3    2
    11     2     4    1
    12     4     5    1
