@<TRIPOS>MOLECULE
/home/cewinharhar/GITHUB/reincatalyze/data/processed/docking_pred/2023-Apr-25-2033_maxeplen5_maxtrainstep200_exh16_gamma099_lrac3e-4_lrcr1e-3/c8a10dea28a77dd5a54e6b3bff917c6d12aef46d_ligand_2.pdbqt
 12 12 0 0 0
SMALL
GASTEIGER

@<TRIPOS>ATOM
      1  C          8.4480   -0.7730   -1.9580 C.3     1  UNL1        0.1270
      2  C          8.4600   -1.9680   -2.8410 C.2     1  UNL1        0.3030
      3  O          9.5480   -2.5520   -3.0670 O.2     1  UNL1       -0.2520
      4  O          7.3050   -2.4730   -3.4320 O.3     1  UNL1       -0.4810
      5  H          6.7950   -3.2750   -3.0320 H       1  UNL1        0.2960
      6  C          7.0860   -0.1460   -2.0650 C.3     1  UNL1        0.0470
      7  C          6.4680    0.1000   -0.7350 C.2     1  UNL1       -0.0470
      8  C          6.5380   -0.8440    0.2710 C.2     1  UNL1        0.0040
      9  C          5.8010    1.2730   -0.4390 C.2     1  UNL1        0.0040
     10  C          5.9610   -0.6060    1.5040 C.2     1  UNL1        0.0000
     11  C          5.2250    1.5130    0.7880 C.2     1  UNL1        0.0000
     12  C          5.2950    0.5680    1.7920 C.2     1  UNL1        0.0000
@<TRIPOS>BOND
     1     4     5    1
     2     4     2    1
     3     3     2    2
     4     2     1    1
     5     6     1    1
     6     6     7    1
     7     7     9    2
     8     7     8    1
     9     9    11    1
    10     8    10    2
    11    11    12    2
    12    10    12    1
