MODEL 1
REMARK VINA RESULT:      -7.3      0.000      0.000
REMARK SMILES O=C(O)CCc1ccccc1
REMARK SMILES IDX 4 1 2 2 1 3 3 4 5 6 6 7 7 8 11 9 8 10 10 11 9 12
REMARK H PARENT 3 5
REMARK Flexibility Score: inf
ROOT
ATOM      1  C   UNL     1       8.483  -0.609  -2.176  1.00  0.00     0.127 C 
ENDROOT
BRANCH   1   2
ATOM      2  C   UNL     1       8.478  -1.900  -2.912  1.00  0.00     0.303 C 
ATOM      3  O   UNL     1       9.561  -2.509  -3.088  1.00  0.00    -0.252 OA
BRANCH   2   4
ATOM      4  O   UNL     1       7.311  -2.467  -3.417  1.00  0.00    -0.481 OA
ATOM      5  H   UNL     1       6.751  -3.139  -2.870  1.00  0.00     0.296 HD
ENDBRANCH   2   4
ENDBRANCH   1   2
BRANCH   1   6
ATOM      6  C   UNL     1       7.076  -0.080  -2.179  1.00  0.00     0.047 C 
BRANCH   6   7
ATOM      7  C   UNL     1       6.515   0.050  -0.809  1.00  0.00    -0.047 A 
ATOM      8  C   UNL     1       5.863   1.201  -0.409  1.00  0.00     0.004 A 
ATOM      9  C   UNL     1       6.615  -0.963   0.126  1.00  0.00     0.004 A 
ATOM     10  C   UNL     1       5.346   1.312   0.867  1.00  0.00     0.000 A 
ATOM     11  C   UNL     1       6.100  -0.855   1.399  1.00  0.00     0.000 A 
ATOM     12  C   UNL     1       5.450   0.296   1.796  1.00  0.00     0.000 A 
ENDBRANCH   6   7
ENDBRANCH   1   6
TORSDOF 4
ENDMDL
MODEL 2
REMARK VINA RESULT:      -7.3      0.195      1.430
REMARK SMILES O=C(O)CCc1ccccc1
REMARK SMILES IDX 4 1 2 2 1 3 3 4 5 6 6 7 7 8 11 9 8 10 10 11 9 12
REMARK H PARENT 3 5
REMARK Flexibility Score: inf
ROOT
ATOM      1  C   UNL     1       8.448  -0.773  -1.958  1.00  0.00     0.127 C 
ENDROOT
BRANCH   1   2
ATOM      2  C   UNL     1       8.460  -1.968  -2.841  1.00  0.00     0.303 C 
ATOM      3  O   UNL     1       9.548  -2.552  -3.067  1.00  0.00    -0.252 OA
BRANCH   2   4
ATOM      4  O   UNL     1       7.305  -2.473  -3.432  1.00  0.00    -0.481 OA
ATOM      5  H   UNL     1       6.795  -3.275  -3.032  1.00  0.00     0.296 HD
ENDBRANCH   2   4
ENDBRANCH   1   2
BRANCH   1   6
ATOM      6  C   UNL     1       7.086  -0.146  -2.065  1.00  0.00     0.047 C 
BRANCH   6   7
ATOM      7  C   UNL     1       6.468   0.100  -0.735  1.00  0.00    -0.047 A 
ATOM      8  C   UNL     1       6.538  -0.844   0.271  1.00  0.00     0.004 A 
ATOM      9  C   UNL     1       5.801   1.273  -0.439  1.00  0.00     0.004 A 
ATOM     10  C   UNL     1       5.961  -0.606   1.504  1.00  0.00     0.000 A 
ATOM     11  C   UNL     1       5.225   1.513   0.788  1.00  0.00     0.000 A 
ATOM     12  C   UNL     1       5.295   0.568   1.792  1.00  0.00     0.000 A 
ENDBRANCH   6   7
ENDBRANCH   1   6
TORSDOF 4
ENDMDL
MODEL 3
REMARK VINA RESULT:      -6.8      3.383      5.073
REMARK SMILES O=C(O)CCc1ccccc1
REMARK SMILES IDX 4 1 2 2 1 3 3 4 5 6 6 7 7 8 11 9 8 10 10 11 9 12
REMARK H PARENT 3 5
REMARK Flexibility Score: inf
ROOT
ATOM      1  C   UNL     1       4.986   1.792   0.690  1.00  0.00     0.127 C 
ENDROOT
BRANCH   1   2
ATOM      2  C   UNL     1       4.462   1.126   1.911  1.00  0.00     0.303 C 
ATOM      3  O   UNL     1       5.146   0.228   2.460  1.00  0.00    -0.252 OA
BRANCH   2   4
ATOM      4  O   UNL     1       3.234   1.459   2.476  1.00  0.00    -0.481 OA
ATOM      5  H   UNL     1       3.131   2.255   3.124  1.00  0.00     0.296 HD
ENDBRANCH   2   4
ENDBRANCH   1   2
BRANCH   1   6
ATOM      6  C   UNL     1       6.486   1.792   0.783  1.00  0.00     0.047 C 
BRANCH   6   7
ATOM      7  C   UNL     1       7.124   1.027  -0.320  1.00  0.00    -0.047 A 
ATOM      8  C   UNL     1       8.450   1.224  -0.654  1.00  0.00     0.004 A 
ATOM      9  C   UNL     1       6.430   0.088  -1.061  1.00  0.00     0.004 A 
ATOM     10  C   UNL     1       9.033   0.507  -1.682  1.00  0.00     0.000 A 
ATOM     11  C   UNL     1       7.009  -0.628  -2.085  1.00  0.00     0.000 A 
ATOM     12  C   UNL     1       8.334  -0.429  -2.417  1.00  0.00     0.000 A 
ENDBRANCH   6   7
ENDBRANCH   1   6
TORSDOF 4
ENDMDL
MODEL 4
REMARK VINA RESULT:      -6.6      1.942      2.658
REMARK SMILES O=C(O)CCc1ccccc1
REMARK SMILES IDX 4 1 2 2 1 3 3 4 5 6 6 7 7 8 11 9 8 10 10 11 9 12
REMARK H PARENT 3 5
REMARK Flexibility Score: inf
ROOT
ATOM      1  C   UNL     1       8.281   0.041  -2.187  1.00  0.00     0.127 C 
ENDROOT
BRANCH   1   2
ATOM      2  C   UNL     1       9.392   0.306  -1.236  1.00  0.00     0.303 C 
ATOM      3  O   UNL     1       9.485  -0.386  -0.194  1.00  0.00    -0.252 OA
BRANCH   2   4
ATOM      4  O   UNL     1      10.344   1.298  -1.457  1.00  0.00    -0.481 OA
ATOM      5  H   UNL     1      10.658   1.549  -2.407  1.00  0.00     0.296 HD
ENDBRANCH   2   4
ENDBRANCH   1   2
BRANCH   1   6
ATOM      6  C   UNL     1       7.217  -0.714  -1.439  1.00  0.00     0.047 C 
BRANCH   6   7
ATOM      7  C   UNL     1       6.403   0.170  -0.564  1.00  0.00    -0.047 A 
ATOM      8  C   UNL     1       6.136  -0.172   0.748  1.00  0.00     0.004 A 
ATOM      9  C   UNL     1       5.878   1.367  -1.012  1.00  0.00     0.004 A 
ATOM     10  C   UNL     1       5.379   0.657   1.553  1.00  0.00     0.000 A 
ATOM     11  C   UNL     1       5.123   2.195  -0.211  1.00  0.00     0.000 A 
ATOM     12  C   UNL     1       4.857   1.851   1.099  1.00  0.00     0.000 A 
ENDBRANCH   6   7
ENDBRANCH   1   6
TORSDOF 4
ENDMDL
MODEL 5
REMARK VINA RESULT:      -6.6      1.881      2.885
REMARK SMILES O=C(O)CCc1ccccc1
REMARK SMILES IDX 4 1 2 2 1 3 3 4 5 6 6 7 7 8 11 9 8 10 10 11 9 12
REMARK H PARENT 3 5
REMARK Flexibility Score: inf
ROOT
ATOM      1  C   UNL     1       8.194  -1.578   1.136  1.00  0.00     0.127 C 
ENDROOT
BRANCH   1   2
ATOM      2  C   UNL     1       8.495  -2.783   0.320  1.00  0.00     0.303 C 
ATOM      3  O   UNL     1       9.152  -3.721   0.833  1.00  0.00    -0.252 OA
BRANCH   2   4
ATOM      4  O   UNL     1       8.075  -2.915  -1.000  1.00  0.00    -0.481 OA
ATOM      5  H   UNL     1       8.684  -3.320  -1.728  1.00  0.00     0.296 HD
ENDBRANCH   2   4
ENDBRANCH   1   2
BRANCH   1   6
ATOM      6  C   UNL     1       6.700  -1.487   1.274  1.00  0.00     0.047 C 
BRANCH   6   7
ATOM      7  C   UNL     1       6.159  -0.203   0.754  1.00  0.00    -0.047 A 
ATOM      8  C   UNL     1       6.392   0.197  -0.547  1.00  0.00     0.004 A 
ATOM      9  C   UNL     1       5.401   0.647   1.538  1.00  0.00     0.004 A 
ATOM     10  C   UNL     1       5.885   1.392  -1.020  1.00  0.00     0.000 A 
ATOM     11  C   UNL     1       4.894   1.838   1.069  1.00  0.00     0.000 A 
ATOM     12  C   UNL     1       5.130   2.236  -0.232  1.00  0.00     0.000 A 
ENDBRANCH   6   7
ENDBRANCH   1   6
TORSDOF 4
ENDMDL
