@<TRIPOS>MOLECULE
/home/cewinharhar/GITHUB/reincatalyze/data/processed/docking_pred/2023-Apr-25-2033_maxeplen5_maxtrainstep200_exh16_gamma099_lrac3e-4_lrcr1e-3/c8a10dea28a77dd5a54e6b3bff917c6d12aef46d_ligand_2.pdbqt
 12 12 0 0 0
SMALL
GASTEIGER

@<TRIPOS>ATOM
      1  C          8.1940   -1.5780    1.1360 C.3     1  UNL1        0.1270
      2  C          8.4950   -2.7830    0.3200 C.2     1  UNL1        0.3030
      3  O          9.1520   -3.7210    0.8330 O.2     1  UNL1       -0.2520
      4  O          8.0750   -2.9150   -1.0000 O.3     1  UNL1       -0.4810
      5  H          8.6840   -3.3200   -1.7280 H       1  UNL1        0.2960
      6  C          6.7000   -1.4870    1.2740 C.3     1  UNL1        0.0470
      7  C          6.1590   -0.2030    0.7540 C.2     1  UNL1       -0.0470
      8  C          6.3920    0.1970   -0.5470 C.2     1  UNL1        0.0040
      9  C          5.4010    0.6470    1.5380 C.2     1  UNL1        0.0040
     10  C          5.8850    1.3920   -1.0200 C.2     1  UNL1        0.0000
     11  C          4.8940    1.8380    1.0690 C.2     1  UNL1        0.0000
     12  C          5.1300    2.2360   -0.2320 C.2     1  UNL1        0.0000
@<TRIPOS>BOND
     1     5     4    1
     2    10     8    1
     3    10    12    2
     4     4     2    1
     5     8     7    2
     6    12    11    1
     7     2     3    2
     8     2     1    1
     9     7     6    1
    10     7     9    1
    11    11     9    2
    12     1     6    1
