@<TRIPOS>MOLECULE
/home/cewinharhar/GITHUB/reincatalyze/data/processed/docking_pred/2023-Apr-25-2033_maxeplen5_maxtrainstep200_exh16_gamma099_lrac3e-4_lrcr1e-3/c8a10dea28a77dd5a54e6b3bff917c6d12aef46d_ligand_2.pdbqt
 12 12 0 0 0
SMALL
GASTEIGER

@<TRIPOS>ATOM
      1  C          8.2810    0.0410   -2.1870 C.3     1  UNL1        0.1270
      2  C          9.3920    0.3060   -1.2360 C.2     1  UNL1        0.3030
      3  O          9.4850   -0.3860   -0.1940 O.2     1  UNL1       -0.2520
      4  O         10.3440    1.2980   -1.4570 O.3     1  UNL1       -0.4810
      5  H         10.6580    1.5490   -2.4070 H       1  UNL1        0.2960
      6  C          7.2170   -0.7140   -1.4390 C.3     1  UNL1        0.0470
      7  C          6.4030    0.1700   -0.5640 C.2     1  UNL1       -0.0470
      8  C          6.1360   -0.1720    0.7480 C.2     1  UNL1        0.0040
      9  C          5.8780    1.3670   -1.0120 C.2     1  UNL1        0.0040
     10  C          5.3790    0.6570    1.5530 C.2     1  UNL1        0.0000
     11  C          5.1230    2.1950   -0.2110 C.2     1  UNL1        0.0000
     12  C          4.8570    1.8510    1.0990 C.2     1  UNL1        0.0000
@<TRIPOS>BOND
     1     5     4    1
     2     1     6    1
     3     1     2    1
     4     4     2    1
     5     6     7    1
     6     2     3    2
     7     9     7    2
     8     9    11    1
     9     7     8    1
    10    11    12    2
    11     8    10    2
    12    12    10    1
