@<TRIPOS>MOLECULE
/home/cewinharhar/GITHUB/reincatalyze/data/processed/docking_pred/2023-Apr-25-2033_maxeplen5_maxtrainstep200_exh16_gamma099_lrac3e-4_lrcr1e-3/c8a10dea28a77dd5a54e6b3bff917c6d12aef46d_ligand_2.pdbqt
 12 12 0 0 0
SMALL
GASTEIGER

@<TRIPOS>ATOM
      1  C          4.9860    1.7920    0.6900 C.3     1  UNL1        0.1270
      2  C          4.4620    1.1260    1.9110 C.2     1  UNL1        0.3030
      3  O          5.1460    0.2280    2.4600 O.2     1  UNL1       -0.2520
      4  O          3.2340    1.4590    2.4760 O.3     1  UNL1       -0.4810
      5  H          3.1310    2.2550    3.1240 H       1  UNL1        0.2960
      6  C          6.4860    1.7920    0.7830 C.3     1  UNL1        0.0470
      7  C          7.1240    1.0270   -0.3200 C.2     1  UNL1       -0.0470
      8  C          8.4500    1.2240   -0.6540 C.2     1  UNL1        0.0040
      9  C          6.4300    0.0880   -1.0610 C.2     1  UNL1        0.0040
     10  C          9.0330    0.5070   -1.6820 C.2     1  UNL1        0.0000
     11  C          7.0090   -0.6280   -2.0850 C.2     1  UNL1        0.0000
     12  C          8.3340   -0.4290   -2.4170 C.2     1  UNL1        0.0000
@<TRIPOS>BOND
     1    12    11    2
     2    12    10    1
     3    11     9    1
     4    10     8    2
     5     9     7    2
     6     8     7    1
     7     7     6    1
     8     1     6    1
     9     1     2    1
    10     2     3    2
    11     2     4    1
    12     4     5    1
