@<TRIPOS>MOLECULE
/home/cewinharhar/GITHUB/reincatalyze/data/processed/docking_pred/2023-Apr-25-2033_maxeplen5_maxtrainstep200_exh16_gamma099_lrac3e-4_lrcr1e-3/c8a10dea28a77dd5a54e6b3bff917c6d12aef46d_ligand_2.pdbqt
 12 12 0 0 0
SMALL
GASTEIGER

@<TRIPOS>ATOM
      1  C          8.4830   -0.6090   -2.1760 C.3     1  UNL1        0.1270
      2  C          8.4780   -1.9000   -2.9120 C.2     1  UNL1        0.3030
      3  O          9.5610   -2.5090   -3.0880 O.2     1  UNL1       -0.2520
      4  O          7.3110   -2.4670   -3.4170 O.3     1  UNL1       -0.4810
      5  H          6.7510   -3.1390   -2.8700 H       1  UNL1        0.2960
      6  C          7.0760   -0.0800   -2.1790 C.3     1  UNL1        0.0470
      7  C          6.5150    0.0500   -0.8090 C.2     1  UNL1       -0.0470
      8  C          5.8630    1.2010   -0.4090 C.2     1  UNL1        0.0040
      9  C          6.6150   -0.9630    0.1260 C.2     1  UNL1        0.0040
     10  C          5.3460    1.3120    0.8670 C.2     1  UNL1        0.0000
     11  C          6.1000   -0.8550    1.3990 C.2     1  UNL1        0.0000
     12  C          5.4500    0.2960    1.7960 C.2     1  UNL1        0.0000
@<TRIPOS>BOND
     1     4     2    1
     2     4     5    1
     3     3     2    2
     4     2     1    1
     5     6     1    1
     6     6     7    1
     7     7     8    2
     8     7     9    1
     9     8    10    1
    10     9    11    2
    11    10    12    2
    12    11    12    1
