@<TRIPOS>MOLECULE
/home/cewinharhar/GITHUB/reincatalyze/data/processed/docking_pred/2023-Apr-25-2033_maxeplen5_maxtrainstep200_exh16_gamma099_lrac3e-4_lrcr1e-3/cc4a81c85f0f72a0e9860fd8246284f5ccc1e781_ligand_2.pdbqt
 12 12 0 0 0
SMALL
GASTEIGER

@<TRIPOS>ATOM
      1  C          5.3370    2.9680    0.0280 C.3     1  UNL1        0.1270
      2  C          6.2230    3.8460    0.8370 C.2     1  UNL1        0.3030
      3  O          6.8750    4.7530    0.2650 O.2     1  UNL1       -0.2520
      4  O          6.3590    3.7030    2.2150 O.3     1  UNL1       -0.4810
      5  H          7.1470    3.1850    2.6330 H       1  UNL1        0.2960
      6  C          5.1960    1.6650    0.7650 C.3     1  UNL1        0.0470
      7  C          6.0040    0.5770    0.1560 C.2     1  UNL1       -0.0470
      8  C          6.3360    0.5980   -1.1850 C.2     1  UNL1        0.0040
      9  C          6.4620   -0.5000    0.8920 C.2     1  UNL1        0.0040
     10  C          7.0890   -0.4190   -1.7410 C.2     1  UNL1        0.0000
     11  C          7.2110   -1.5140    0.3400 C.2     1  UNL1        0.0000
     12  C          7.5410   -1.4910   -1.0000 C.2     1  UNL1        0.0000
@<TRIPOS>BOND
     1    10     8    1
     2    10    12    2
     3     8     7    2
     4    12    11    1
     5     1     6    1
     6     1     2    1
     7     7     6    1
     8     7     9    1
     9     3     2    2
    10    11     9    2
    11     2     4    1
    12     4     5    1
