@<TRIPOS>MOLECULE
/home/cewinharhar/GITHUB/reincatalyze/data/processed/docking_pred/2023-Apr-25-2033_maxeplen5_maxtrainstep200_exh16_gamma099_lrac3e-4_lrcr1e-3/cc4a81c85f0f72a0e9860fd8246284f5ccc1e781_ligand_2.pdbqt
 12 12 0 0 0
SMALL
GASTEIGER

@<TRIPOS>ATOM
      1  C          8.4550   -0.5880   -2.1970 C.3     1  UNL1        0.1270
      2  C          8.4660   -1.8870   -2.9180 C.2     1  UNL1        0.3030
      3  O          9.5570   -2.4860   -3.0830 O.2     1  UNL1       -0.2520
      4  O          7.3080   -2.4740   -3.4210 O.3     1  UNL1       -0.4810
      5  H          7.2790   -3.4640   -3.7070 H       1  UNL1        0.2960
      6  C          7.0350   -0.0940   -2.1780 C.3     1  UNL1        0.0470
      7  C          6.4980    0.0360   -0.7980 C.2     1  UNL1       -0.0470
      8  C          5.8620    1.1910   -0.3830 C.2     1  UNL1        0.0040
      9  C          6.6050   -0.9810    0.1320 C.2     1  UNL1        0.0040
     10  C          5.3660    1.3010    0.9020 C.2     1  UNL1        0.0000
     11  C          6.1120   -0.8730    1.4130 C.2     1  UNL1        0.0000
     12  C          5.4780    0.2810    1.8250 C.2     1  UNL1        0.0000
@<TRIPOS>BOND
     1     5     4    1
     2     4     2    1
     3     3     2    2
     4     2     1    1
     5     1     6    1
     6     6     7    1
     7     7     8    2
     8     7     9    1
     9     8    10    1
    10     9    11    2
    11    10    12    2
    12    11    12    1
