@<TRIPOS>MOLECULE
/home/cewinharhar/GITHUB/reincatalyze/data/processed/docking_pred/2023-Apr-25-2033_maxeplen5_maxtrainstep200_exh16_gamma099_lrac3e-4_lrcr1e-3/cc4a81c85f0f72a0e9860fd8246284f5ccc1e781_ligand_2.pdbqt
 12 12 0 0 0
SMALL
GASTEIGER

@<TRIPOS>ATOM
      1  C          8.4540   -0.5800   -2.2120 C.3     1  UNL1        0.1270
      2  C          8.4690   -1.8820   -2.9290 C.2     1  UNL1        0.3030
      3  O          9.5600   -2.4830   -3.0820 O.2     1  UNL1       -0.2520
      4  O          7.3140   -2.4670   -3.4420 O.3     1  UNL1       -0.4810
      5  H          6.3750   -2.1080   -3.2130 H       1  UNL1        0.2960
      6  C          7.0330   -0.0880   -2.1990 C.3     1  UNL1        0.0470
      7  C          6.4940    0.0560   -0.8210 C.2     1  UNL1       -0.0470
      8  C          6.6170   -0.9610    0.1050 C.2     1  UNL1        0.0040
      9  C          5.8510    1.2050   -0.4000 C.2     1  UNL1        0.0040
     10  C          6.1130   -0.8170    1.3830 C.2     1  UNL1        0.0000
     11  C          5.3480    1.3510    0.8740 C.2     1  UNL1        0.0000
     12  C          5.4710    0.3330    1.7970 C.2     1  UNL1        0.0000
@<TRIPOS>BOND
     1     4     5    1
     2     4     2    1
     3     3     2    2
     4     2     1    1
     5     1     6    1
     6     6     7    1
     7     7     9    2
     8     7     8    1
     9     9    11    1
    10     8    10    2
    11    11    12    2
    12    10    12    1
