@<TRIPOS>MOLECULE
/home/cewinharhar/GITHUB/reincatalyze/data/processed/docking_pred/2023-Apr-25-2033_maxeplen5_maxtrainstep200_exh16_gamma099_lrac3e-4_lrcr1e-3/cc4a81c85f0f72a0e9860fd8246284f5ccc1e781_ligand_2.pdbqt
 12 12 0 0 0
SMALL
GASTEIGER

@<TRIPOS>ATOM
      1  C          8.1100   -1.9880    0.8070 C.3     1  UNL1        0.1270
      2  C          8.7660   -3.2370    0.3420 C.2     1  UNL1        0.3030
      3  O          9.5610   -3.8330    1.1070 O.2     1  UNL1       -0.2520
      4  O          8.5310   -3.7790   -0.9190 O.3     1  UNL1       -0.4810
      5  H          8.9590   -4.6690   -1.2180 H       1  UNL1        0.2960
      6  C          7.3450   -1.4170   -0.3550 C.3     1  UNL1        0.0470
      7  C          6.5010   -0.2570    0.0340 C.2     1  UNL1       -0.0470
      8  C          5.9450   -0.1700    1.2960 C.2     1  UNL1        0.0040
      9  C          6.2340    0.7830   -0.8360 C.2     1  UNL1        0.0040
     10  C          5.1610    0.9130    1.6470 C.2     1  UNL1        0.0000
     11  C          5.4540    1.8630   -0.4870 C.2     1  UNL1        0.0000
     12  C          4.8980    1.9480    0.7730 C.2     1  UNL1        0.0000
@<TRIPOS>BOND
     1     5     4    1
     2     4     2    1
     3     9    11    1
     4     9     7    2
     5    11    12    2
     6     6     7    1
     7     6     1    1
     8     7     8    1
     9     2     1    1
    10     2     3    2
    11    12    10    1
    12     8    10    2
