MODEL 1
REMARK VINA RESULT:      -7.4      0.000      0.000
REMARK SMILES O=C(O)CCc1ccccc1
REMARK SMILES IDX 4 1 2 2 1 3 3 4 5 6 6 7 7 8 11 9 8 10 10 11 9 12
REMARK H PARENT 3 5
REMARK Flexibility Score: inf
ROOT
ATOM      1  C   UNL     1       8.455  -0.588  -2.197  1.00  0.00     0.127 C 
ENDROOT
BRANCH   1   2
ATOM      2  C   UNL     1       8.466  -1.887  -2.918  1.00  0.00     0.303 C 
ATOM      3  O   UNL     1       9.557  -2.486  -3.083  1.00  0.00    -0.252 OA
BRANCH   2   4
ATOM      4  O   UNL     1       7.308  -2.474  -3.421  1.00  0.00    -0.481 OA
ATOM      5  H   UNL     1       7.279  -3.464  -3.707  1.00  0.00     0.296 HD
ENDBRANCH   2   4
ENDBRANCH   1   2
BRANCH   1   6
ATOM      6  C   UNL     1       7.035  -0.094  -2.178  1.00  0.00     0.047 C 
BRANCH   6   7
ATOM      7  C   UNL     1       6.498   0.036  -0.798  1.00  0.00    -0.047 A 
ATOM      8  C   UNL     1       5.862   1.191  -0.383  1.00  0.00     0.004 A 
ATOM      9  C   UNL     1       6.605  -0.981   0.132  1.00  0.00     0.004 A 
ATOM     10  C   UNL     1       5.366   1.301   0.902  1.00  0.00     0.000 A 
ATOM     11  C   UNL     1       6.112  -0.873   1.413  1.00  0.00     0.000 A 
ATOM     12  C   UNL     1       5.478   0.281   1.825  1.00  0.00     0.000 A 
ENDBRANCH   6   7
ENDBRANCH   1   6
TORSDOF 4
ENDMDL
MODEL 2
REMARK VINA RESULT:      -7.4      0.038      1.420
REMARK SMILES O=C(O)CCc1ccccc1
REMARK SMILES IDX 4 1 2 2 1 3 3 4 5 6 6 7 7 8 11 9 8 10 10 11 9 12
REMARK H PARENT 3 5
REMARK Flexibility Score: inf
ROOT
ATOM      1  C   UNL     1       8.454  -0.580  -2.212  1.00  0.00     0.127 C 
ENDROOT
BRANCH   1   2
ATOM      2  C   UNL     1       8.469  -1.882  -2.929  1.00  0.00     0.303 C 
ATOM      3  O   UNL     1       9.560  -2.483  -3.082  1.00  0.00    -0.252 OA
BRANCH   2   4
ATOM      4  O   UNL     1       7.314  -2.467  -3.442  1.00  0.00    -0.481 OA
ATOM      5  H   UNL     1       6.375  -2.108  -3.213  1.00  0.00     0.296 HD
ENDBRANCH   2   4
ENDBRANCH   1   2
BRANCH   1   6
ATOM      6  C   UNL     1       7.033  -0.088  -2.199  1.00  0.00     0.047 C 
BRANCH   6   7
ATOM      7  C   UNL     1       6.494   0.056  -0.821  1.00  0.00    -0.047 A 
ATOM      8  C   UNL     1       6.617  -0.961   0.105  1.00  0.00     0.004 A 
ATOM      9  C   UNL     1       5.851   1.205  -0.400  1.00  0.00     0.004 A 
ATOM     10  C   UNL     1       6.113  -0.817   1.383  1.00  0.00     0.000 A 
ATOM     11  C   UNL     1       5.348   1.351   0.874  1.00  0.00     0.000 A 
ATOM     12  C   UNL     1       5.471   0.333   1.797  1.00  0.00     0.000 A 
ENDBRANCH   6   7
ENDBRANCH   1   6
TORSDOF 4
ENDMDL
MODEL 3
REMARK VINA RESULT:      -6.8      3.383      5.068
REMARK SMILES O=C(O)CCc1ccccc1
REMARK SMILES IDX 4 1 2 2 1 3 3 4 5 6 6 7 7 8 11 9 8 10 10 11 9 12
REMARK H PARENT 3 5
REMARK Flexibility Score: inf
ROOT
ATOM      1  C   UNL     1       4.995   1.791   0.685  1.00  0.00     0.127 C 
ENDROOT
BRANCH   1   2
ATOM      2  C   UNL     1       4.485   1.126   1.912  1.00  0.00     0.303 C 
ATOM      3  O   UNL     1       5.186   0.247   2.469  1.00  0.00    -0.252 OA
BRANCH   2   4
ATOM      4  O   UNL     1       3.250   1.440   2.474  1.00  0.00    -0.481 OA
ATOM      5  H   UNL     1       3.118   2.276   3.064  1.00  0.00     0.296 HD
ENDBRANCH   2   4
ENDBRANCH   1   2
BRANCH   1   6
ATOM      6  C   UNL     1       6.496   1.802   0.767  1.00  0.00     0.047 C 
BRANCH   6   7
ATOM      7  C   UNL     1       7.131   1.031  -0.334  1.00  0.00    -0.047 A 
ATOM      8  C   UNL     1       8.458   1.218  -0.666  1.00  0.00     0.004 A 
ATOM      9  C   UNL     1       6.432   0.095  -1.074  1.00  0.00     0.004 A 
ATOM     10  C   UNL     1       9.038   0.496  -1.692  1.00  0.00     0.000 A 
ATOM     11  C   UNL     1       7.007  -0.626  -2.096  1.00  0.00     0.000 A 
ATOM     12  C   UNL     1       8.334  -0.437  -2.426  1.00  0.00     0.000 A 
ENDBRANCH   6   7
ENDBRANCH   1   6
TORSDOF 4
ENDMDL
MODEL 4
REMARK VINA RESULT:      -6.6      3.728      4.960
REMARK SMILES O=C(O)CCc1ccccc1
REMARK SMILES IDX 4 1 2 2 1 3 3 4 5 6 6 7 7 8 11 9 8 10 10 11 9 12
REMARK H PARENT 3 5
REMARK Flexibility Score: inf
ROOT
ATOM      1  C   UNL     1       5.337   2.968   0.028  1.00  0.00     0.127 C 
ENDROOT
BRANCH   1   2
ATOM      2  C   UNL     1       6.223   3.846   0.837  1.00  0.00     0.303 C 
ATOM      3  O   UNL     1       6.875   4.753   0.265  1.00  0.00    -0.252 OA
BRANCH   2   4
ATOM      4  O   UNL     1       6.359   3.703   2.215  1.00  0.00    -0.481 OA
ATOM      5  H   UNL     1       7.147   3.185   2.633  1.00  0.00     0.296 HD
ENDBRANCH   2   4
ENDBRANCH   1   2
BRANCH   1   6
ATOM      6  C   UNL     1       5.196   1.665   0.765  1.00  0.00     0.047 C 
BRANCH   6   7
ATOM      7  C   UNL     1       6.004   0.577   0.156  1.00  0.00    -0.047 A 
ATOM      8  C   UNL     1       6.336   0.598  -1.185  1.00  0.00     0.004 A 
ATOM      9  C   UNL     1       6.462  -0.500   0.892  1.00  0.00     0.004 A 
ATOM     10  C   UNL     1       7.089  -0.419  -1.741  1.00  0.00     0.000 A 
ATOM     11  C   UNL     1       7.211  -1.514   0.340  1.00  0.00     0.000 A 
ATOM     12  C   UNL     1       7.541  -1.491  -1.000  1.00  0.00     0.000 A 
ENDBRANCH   6   7
ENDBRANCH   1   6
TORSDOF 4
ENDMDL
MODEL 5
REMARK VINA RESULT:      -6.6      2.016      2.760
REMARK SMILES O=C(O)CCc1ccccc1
REMARK SMILES IDX 4 1 2 2 1 3 3 4 5 6 6 7 7 8 11 9 8 10 10 11 9 12
REMARK H PARENT 3 5
REMARK Flexibility Score: inf
ROOT
ATOM      1  C   UNL     1       8.110  -1.988   0.807  1.00  0.00     0.127 C 
ENDROOT
BRANCH   1   2
ATOM      2  C   UNL     1       8.766  -3.237   0.342  1.00  0.00     0.303 C 
ATOM      3  O   UNL     1       9.561  -3.833   1.107  1.00  0.00    -0.252 OA
BRANCH   2   4
ATOM      4  O   UNL     1       8.531  -3.779  -0.919  1.00  0.00    -0.481 OA
ATOM      5  H   UNL     1       8.959  -4.669  -1.218  1.00  0.00     0.296 HD
ENDBRANCH   2   4
ENDBRANCH   1   2
BRANCH   1   6
ATOM      6  C   UNL     1       7.345  -1.417  -0.355  1.00  0.00     0.047 C 
BRANCH   6   7
ATOM      7  C   UNL     1       6.501  -0.257   0.034  1.00  0.00    -0.047 A 
ATOM      8  C   UNL     1       5.945  -0.170   1.296  1.00  0.00     0.004 A 
ATOM      9  C   UNL     1       6.234   0.783  -0.836  1.00  0.00     0.004 A 
ATOM     10  C   UNL     1       5.161   0.913   1.647  1.00  0.00     0.000 A 
ATOM     11  C   UNL     1       5.454   1.863  -0.487  1.00  0.00     0.000 A 
ATOM     12  C   UNL     1       4.898   1.948   0.773  1.00  0.00     0.000 A 
ENDBRANCH   6   7
ENDBRANCH   1   6
TORSDOF 4
ENDMDL
