@<TRIPOS>MOLECULE
/home/cewinharhar/GITHUB/reincatalyze/data/processed/docking_pred/2023-Apr-25-2033_maxeplen5_maxtrainstep200_exh16_gamma099_lrac3e-4_lrcr1e-3/cc4a81c85f0f72a0e9860fd8246284f5ccc1e781_ligand_2.pdbqt
 12 12 0 0 0
SMALL
GASTEIGER

@<TRIPOS>ATOM
      1  C          4.9950    1.7910    0.6850 C.3     1  UNL1        0.1270
      2  C          4.4850    1.1260    1.9120 C.2     1  UNL1        0.3030
      3  O          5.1860    0.2470    2.4690 O.2     1  UNL1       -0.2520
      4  O          3.2500    1.4400    2.4740 O.3     1  UNL1       -0.4810
      5  H          3.1180    2.2760    3.0640 H       1  UNL1        0.2960
      6  C          6.4960    1.8020    0.7670 C.3     1  UNL1        0.0470
      7  C          7.1310    1.0310   -0.3340 C.2     1  UNL1       -0.0470
      8  C          8.4580    1.2180   -0.6660 C.2     1  UNL1        0.0040
      9  C          6.4320    0.0950   -1.0740 C.2     1  UNL1        0.0040
     10  C          9.0380    0.4960   -1.6920 C.2     1  UNL1        0.0000
     11  C          7.0070   -0.6260   -2.0960 C.2     1  UNL1        0.0000
     12  C          8.3340   -0.4370   -2.4260 C.2     1  UNL1        0.0000
@<TRIPOS>BOND
     1    12    11    2
     2    12    10    1
     3    11     9    1
     4    10     8    2
     5     9     7    2
     6     8     7    1
     7     7     6    1
     8     1     6    1
     9     1     2    1
    10     2     3    2
    11     2     4    1
    12     4     5    1
