@<TRIPOS>MOLECULE
/home/cewinharhar/GITHUB/reincatalyze/data/processed/docking_pred/2023-Apr-25-2033_maxeplen5_maxtrainstep200_exh16_gamma099_lrac3e-4_lrcr1e-3/cdc825ac9d1cfd0e1f917a20457d8153cb4f8d56_ligand_2.pdbqt
 12 12 0 0 0
SMALL
GASTEIGER

@<TRIPOS>ATOM
      1  C          8.2890    0.2590   -2.1690 C.3     1  UNL1        0.1270
      2  C          9.4250    0.3860   -1.2190 C.2     1  UNL1        0.3030
      3  O          9.4820   -0.3790   -0.2270 O.2     1  UNL1       -0.2520
      4  O         10.4370    1.3270   -1.3860 O.3     1  UNL1       -0.4810
      5  H         10.5140    2.1580   -0.7800 H       1  UNL1        0.2960
      6  C          7.2270   -0.5660   -1.4970 C.3     1  UNL1        0.0470
      7  C          6.3980    0.2330   -0.5570 C.2     1  UNL1       -0.0470
      8  C          6.1480   -0.2070    0.7280 C.2     1  UNL1        0.0040
      9  C          5.8410    1.4460   -0.9170 C.2     1  UNL1        0.0040
     10  C          5.3760    0.5440    1.5940 C.2     1  UNL1        0.0000
     11  C          5.0720    2.1970   -0.0560 C.2     1  UNL1        0.0000
     12  C          4.8230    1.7540    1.2280 C.2     1  UNL1        0.0000
@<TRIPOS>BOND
     1     1     6    1
     2     1     2    1
     3     6     7    1
     4     4     2    1
     5     4     5    1
     6     2     3    2
     7     9     7    2
     8     9    11    1
     9     7     8    1
    10    11    12    2
    11     8    10    2
    12    12    10    1
