@<TRIPOS>MOLECULE
/home/cewinharhar/GITHUB/reincatalyze/data/processed/docking_pred/2023-Apr-25-2033_maxeplen5_maxtrainstep200_exh16_gamma099_lrac3e-4_lrcr1e-3/cdc825ac9d1cfd0e1f917a20457d8153cb4f8d56_ligand_2.pdbqt
 12 12 0 0 0
SMALL
GASTEIGER

@<TRIPOS>ATOM
      1  C          8.4460   -0.6270   -2.1200 C.3     1  UNL1        0.1270
      2  C          8.4220   -1.9010   -2.8850 C.2     1  UNL1        0.3030
      3  O          7.3170   -2.4000   -3.2080 O.2     1  UNL1       -0.2520
      4  O          9.5840   -2.5690   -3.2610 O.3     1  UNL1       -0.4810
      5  H          9.5580   -3.4260   -3.8340 H       1  UNL1        0.2960
      6  C          7.0510   -0.0660   -2.1320 C.3     1  UNL1        0.0470
      7  C          6.4830    0.0740   -0.7650 C.2     1  UNL1       -0.0470
      8  C          6.5950   -0.9430    0.1630 C.2     1  UNL1        0.0040
      9  C          5.8220    1.2170   -0.3570 C.2     1  UNL1        0.0040
     10  C          6.0640   -0.8020    1.4310 C.2     1  UNL1        0.0000
     11  C          5.2920    1.3600    0.9060 C.2     1  UNL1        0.0000
     12  C          5.4050    0.3420    1.8320 C.2     1  UNL1        0.0000
@<TRIPOS>BOND
     1     5     4    1
     2     4     2    1
     3     3     2    2
     4     2     1    1
     5     6     1    1
     6     6     7    1
     7     7     9    2
     8     7     8    1
     9     9    11    1
    10     8    10    2
    11    11    12    2
    12    10    12    1
