@<TRIPOS>MOLECULE
/home/cewinharhar/GITHUB/reincatalyze/data/processed/docking_pred/2023-Apr-25-2033_maxeplen5_maxtrainstep200_exh16_gamma099_lrac3e-4_lrcr1e-3/cdc825ac9d1cfd0e1f917a20457d8153cb4f8d56_ligand_2.pdbqt
 12 12 0 0 0
SMALL
GASTEIGER

@<TRIPOS>ATOM
      1  C          4.9850    1.7920    0.6920 C.3     1  UNL1        0.1270
      2  C          4.4680    1.1240    1.9150 C.2     1  UNL1        0.3030
      3  O          5.1620    0.2360    2.4670 O.2     1  UNL1       -0.2520
      4  O          3.2360    1.4460    2.4780 O.3     1  UNL1       -0.4810
      5  H          2.4740    1.8600    1.9190 H       1  UNL1        0.2960
      6  C          6.4860    1.8020    0.7830 C.3     1  UNL1        0.0470
      7  C          7.1270    1.0380   -0.3200 C.2     1  UNL1       -0.0470
      8  C          8.4570    1.2280   -0.6430 C.2     1  UNL1        0.0040
      9  C          6.4330    0.1070   -1.0690 C.2     1  UNL1        0.0040
     10  C          9.0420    0.5120   -1.6700 C.2     1  UNL1        0.0000
     11  C          7.0140   -0.6070   -2.0930 C.2     1  UNL1        0.0000
     12  C          8.3430   -0.4150   -2.4140 C.2     1  UNL1        0.0000
@<TRIPOS>BOND
     1    12    11    2
     2    12    10    1
     3    11     9    1
     4    10     8    2
     5     9     7    2
     6     8     7    1
     7     7     6    1
     8     1     6    1
     9     1     2    1
    10     2     3    2
    11     2     4    1
    12     5     4    1
