MODEL 1
REMARK VINA RESULT:      -7.3      0.000      0.000
REMARK SMILES O=C(O)CCc1ccccc1
REMARK SMILES IDX 4 1 2 2 1 3 3 4 5 6 6 7 7 8 11 9 8 10 10 11 9 12
REMARK H PARENT 3 5
REMARK Flexibility Score: inf
ROOT
ATOM      1  C   UNL     1       8.453  -0.651  -2.106  1.00  0.00     0.127 C 
ENDROOT
BRANCH   1   2
ATOM      2  C   UNL     1       8.411  -1.923  -2.872  1.00  0.00     0.303 C 
ATOM      3  O   UNL     1       7.301  -2.384  -3.234  1.00  0.00    -0.252 OA
BRANCH   2   4
ATOM      4  O   UNL     1       9.562  -2.632  -3.208  1.00  0.00    -0.481 OA
ATOM      5  H   UNL     1       9.538  -3.429  -3.862  1.00  0.00     0.296 HD
ENDBRANCH   2   4
ENDBRANCH   1   2
BRANCH   1   6
ATOM      6  C   UNL     1       7.069  -0.062  -2.130  1.00  0.00     0.047 C 
BRANCH   6   7
ATOM      7  C   UNL     1       6.491   0.084  -0.769  1.00  0.00    -0.047 A 
ATOM      8  C   UNL     1       5.810   1.228  -0.400  1.00  0.00     0.004 A 
ATOM      9  C   UNL     1       6.602  -0.908   0.187  1.00  0.00     0.004 A 
ATOM     10  C   UNL     1       5.276   1.354   0.868  1.00  0.00     0.000 A 
ATOM     11  C   UNL     1       6.070  -0.785   1.452  1.00  0.00     0.000 A 
ATOM     12  C   UNL     1       5.391   0.360   1.818  1.00  0.00     0.000 A 
ENDBRANCH   6   7
ENDBRANCH   1   6
TORSDOF 4
ENDMDL
MODEL 2
REMARK VINA RESULT:      -7.2      0.040      1.420
REMARK SMILES O=C(O)CCc1ccccc1
REMARK SMILES IDX 4 1 2 2 1 3 3 4 5 6 6 7 7 8 11 9 8 10 10 11 9 12
REMARK H PARENT 3 5
REMARK Flexibility Score: inf
ROOT
ATOM      1  C   UNL     1       8.446  -0.627  -2.120  1.00  0.00     0.127 C 
ENDROOT
BRANCH   1   2
ATOM      2  C   UNL     1       8.422  -1.901  -2.885  1.00  0.00     0.303 C 
ATOM      3  O   UNL     1       7.317  -2.400  -3.208  1.00  0.00    -0.252 OA
BRANCH   2   4
ATOM      4  O   UNL     1       9.584  -2.569  -3.261  1.00  0.00    -0.481 OA
ATOM      5  H   UNL     1       9.558  -3.426  -3.834  1.00  0.00     0.296 HD
ENDBRANCH   2   4
ENDBRANCH   1   2
BRANCH   1   6
ATOM      6  C   UNL     1       7.051  -0.066  -2.132  1.00  0.00     0.047 C 
BRANCH   6   7
ATOM      7  C   UNL     1       6.483   0.074  -0.765  1.00  0.00    -0.047 A 
ATOM      8  C   UNL     1       6.595  -0.943   0.163  1.00  0.00     0.004 A 
ATOM      9  C   UNL     1       5.822   1.217  -0.357  1.00  0.00     0.004 A 
ATOM     10  C   UNL     1       6.064  -0.802   1.431  1.00  0.00     0.000 A 
ATOM     11  C   UNL     1       5.292   1.360   0.906  1.00  0.00     0.000 A 
ATOM     12  C   UNL     1       5.405   0.342   1.832  1.00  0.00     0.000 A 
ENDBRANCH   6   7
ENDBRANCH   1   6
TORSDOF 4
ENDMDL
MODEL 3
REMARK VINA RESULT:      -6.8      3.308      5.153
REMARK SMILES O=C(O)CCc1ccccc1
REMARK SMILES IDX 4 1 2 2 1 3 3 4 5 6 6 7 7 8 11 9 8 10 10 11 9 12
REMARK H PARENT 3 5
REMARK Flexibility Score: inf
ROOT
ATOM      1  C   UNL     1       4.985   1.792   0.692  1.00  0.00     0.127 C 
ENDROOT
BRANCH   1   2
ATOM      2  C   UNL     1       4.468   1.124   1.915  1.00  0.00     0.303 C 
ATOM      3  O   UNL     1       5.162   0.236   2.467  1.00  0.00    -0.252 OA
BRANCH   2   4
ATOM      4  O   UNL     1       3.236   1.446   2.478  1.00  0.00    -0.481 OA
ATOM      5  H   UNL     1       2.474   1.860   1.919  1.00  0.00     0.296 HD
ENDBRANCH   2   4
ENDBRANCH   1   2
BRANCH   1   6
ATOM      6  C   UNL     1       6.486   1.802   0.783  1.00  0.00     0.047 C 
BRANCH   6   7
ATOM      7  C   UNL     1       7.127   1.038  -0.320  1.00  0.00    -0.047 A 
ATOM      8  C   UNL     1       8.457   1.228  -0.643  1.00  0.00     0.004 A 
ATOM      9  C   UNL     1       6.433   0.107  -1.069  1.00  0.00     0.004 A 
ATOM     10  C   UNL     1       9.042   0.512  -1.670  1.00  0.00     0.000 A 
ATOM     11  C   UNL     1       7.014  -0.607  -2.093  1.00  0.00     0.000 A 
ATOM     12  C   UNL     1       8.343  -0.415  -2.414  1.00  0.00     0.000 A 
ENDBRANCH   6   7
ENDBRANCH   1   6
TORSDOF 4
ENDMDL
MODEL 4
REMARK VINA RESULT:      -6.6      1.943      2.612
REMARK SMILES O=C(O)CCc1ccccc1
REMARK SMILES IDX 4 1 2 2 1 3 3 4 5 6 6 7 7 8 11 9 8 10 10 11 9 12
REMARK H PARENT 3 5
REMARK Flexibility Score: inf
ROOT
ATOM      1  C   UNL     1       8.289   0.259  -2.169  1.00  0.00     0.127 C 
ENDROOT
BRANCH   1   2
ATOM      2  C   UNL     1       9.425   0.386  -1.219  1.00  0.00     0.303 C 
ATOM      3  O   UNL     1       9.482  -0.379  -0.227  1.00  0.00    -0.252 OA
BRANCH   2   4
ATOM      4  O   UNL     1      10.437   1.327  -1.386  1.00  0.00    -0.481 OA
ATOM      5  H   UNL     1      10.514   2.158  -0.780  1.00  0.00     0.296 HD
ENDBRANCH   2   4
ENDBRANCH   1   2
BRANCH   1   6
ATOM      6  C   UNL     1       7.227  -0.566  -1.497  1.00  0.00     0.047 C 
BRANCH   6   7
ATOM      7  C   UNL     1       6.398   0.233  -0.557  1.00  0.00    -0.047 A 
ATOM      8  C   UNL     1       6.148  -0.207   0.728  1.00  0.00     0.004 A 
ATOM      9  C   UNL     1       5.841   1.446  -0.917  1.00  0.00     0.004 A 
ATOM     10  C   UNL     1       5.376   0.544   1.594  1.00  0.00     0.000 A 
ATOM     11  C   UNL     1       5.072   2.197  -0.056  1.00  0.00     0.000 A 
ATOM     12  C   UNL     1       4.823   1.754   1.228  1.00  0.00     0.000 A 
ENDBRANCH   6   7
ENDBRANCH   1   6
TORSDOF 4
ENDMDL
MODEL 5
REMARK VINA RESULT:      -6.5      1.887      2.928
REMARK SMILES O=C(O)CCc1ccccc1
REMARK SMILES IDX 4 1 2 2 1 3 3 4 5 6 6 7 7 8 11 9 8 10 10 11 9 12
REMARK H PARENT 3 5
REMARK Flexibility Score: inf
ROOT
ATOM      1  C   UNL     1       8.163  -1.627   1.202  1.00  0.00     0.127 C 
ENDROOT
BRANCH   1   2
ATOM      2  C   UNL     1       8.484  -2.809   0.361  1.00  0.00     0.303 C 
ATOM      3  O   UNL     1       9.172  -3.739   0.848  1.00  0.00    -0.252 OA
BRANCH   2   4
ATOM      4  O   UNL     1       8.049  -2.929  -0.956  1.00  0.00    -0.481 OA
ATOM      5  H   UNL     1       8.485  -2.397  -1.724  1.00  0.00     0.296 HD
ENDBRANCH   2   4
ENDBRANCH   1   2
BRANCH   1   6
ATOM      6  C   UNL     1       6.666  -1.535   1.300  1.00  0.00     0.047 C 
BRANCH   6   7
ATOM      7  C   UNL     1       6.141  -0.246   0.777  1.00  0.00    -0.047 A 
ATOM      8  C   UNL     1       5.399   0.602   1.576  1.00  0.00     0.004 A 
ATOM      9  C   UNL     1       6.369   0.167  -0.522  1.00  0.00     0.004 A 
ATOM     10  C   UNL     1       4.916   1.797   1.079  1.00  0.00     0.000 A 
ATOM     11  C   UNL     1       5.890   1.359  -1.020  1.00  0.00     0.000 A 
ATOM     12  C   UNL     1       5.147   2.203  -0.219  1.00  0.00     0.000 A 
ENDBRANCH   6   7
ENDBRANCH   1   6
TORSDOF 4
ENDMDL
