@<TRIPOS>MOLECULE
/home/cewinharhar/GITHUB/reincatalyze/data/processed/docking_pred/2023-Apr-25-2033_maxeplen5_maxtrainstep200_exh16_gamma099_lrac3e-4_lrcr1e-3/cdc825ac9d1cfd0e1f917a20457d8153cb4f8d56_ligand_2.pdbqt
 12 12 0 0 0
SMALL
GASTEIGER

@<TRIPOS>ATOM
      1  C          8.1630   -1.6270    1.2020 C.3     1  UNL1        0.1270
      2  C          8.4840   -2.8090    0.3610 C.2     1  UNL1        0.3030
      3  O          9.1720   -3.7390    0.8480 O.2     1  UNL1       -0.2520
      4  O          8.0490   -2.9290   -0.9560 O.3     1  UNL1       -0.4810
      5  H          8.4850   -2.3970   -1.7240 H       1  UNL1        0.2960
      6  C          6.6660   -1.5350    1.3000 C.3     1  UNL1        0.0470
      7  C          6.1410   -0.2460    0.7770 C.2     1  UNL1       -0.0470
      8  C          5.3990    0.6020    1.5760 C.2     1  UNL1        0.0040
      9  C          6.3690    0.1670   -0.5220 C.2     1  UNL1        0.0040
     10  C          4.9160    1.7970    1.0790 C.2     1  UNL1        0.0000
     11  C          5.8900    1.3590   -1.0200 C.2     1  UNL1        0.0000
     12  C          5.1470    2.2030   -0.2190 C.2     1  UNL1        0.0000
@<TRIPOS>BOND
     1     5     4    1
     2    11     9    1
     3    11    12    2
     4     4     2    1
     5     9     7    2
     6    12    10    1
     7     2     3    2
     8     2     1    1
     9     7     6    1
    10     7     8    1
    11    10     8    2
    12     1     6    1
