@<TRIPOS>MOLECULE
/home/cewinharhar/GITHUB/reincatalyze/data/processed/docking_pred/2023-Apr-25-2033_maxeplen5_maxtrainstep200_exh16_gamma099_lrac3e-4_lrcr1e-3/cdc825ac9d1cfd0e1f917a20457d8153cb4f8d56_ligand_2.pdbqt
 12 12 0 0 0
SMALL
GASTEIGER

@<TRIPOS>ATOM
      1  C          8.4530   -0.6510   -2.1060 C.3     1  UNL1        0.1270
      2  C          8.4110   -1.9230   -2.8720 C.2     1  UNL1        0.3030
      3  O          7.3010   -2.3840   -3.2340 O.2     1  UNL1       -0.2520
      4  O          9.5620   -2.6320   -3.2080 O.3     1  UNL1       -0.4810
      5  H          9.5380   -3.4290   -3.8620 H       1  UNL1        0.2960
      6  C          7.0690   -0.0620   -2.1300 C.3     1  UNL1        0.0470
      7  C          6.4910    0.0840   -0.7690 C.2     1  UNL1       -0.0470
      8  C          5.8100    1.2280   -0.4000 C.2     1  UNL1        0.0040
      9  C          6.6020   -0.9080    0.1870 C.2     1  UNL1        0.0040
     10  C          5.2760    1.3540    0.8680 C.2     1  UNL1        0.0000
     11  C          6.0700   -0.7850    1.4520 C.2     1  UNL1        0.0000
     12  C          5.3910    0.3600    1.8180 C.2     1  UNL1        0.0000
@<TRIPOS>BOND
     1     5     4    1
     2     3     2    2
     3     4     2    1
     4     2     1    1
     5     6     1    1
     6     6     7    1
     7     7     8    2
     8     7     9    1
     9     8    10    1
    10     9    11    2
    11    10    12    2
    12    11    12    1
