@<TRIPOS>MOLECULE
/home/cewinharhar/GITHUB/reincatalyze/data/processed/docking_pred/2023-Apr-25-2033_maxeplen5_maxtrainstep200_exh16_gamma099_lrac3e-4_lrcr1e-3/d18fc177cce43baae8a65556dd45e7572e61ad5e_ligand_2.pdbqt
 12 12 0 0 0
SMALL
GASTEIGER

@<TRIPOS>ATOM
      1  C          5.0390    1.7740    0.7520 C.3     1  UNL1        0.1270
      2  C          4.4600    1.1010    1.9430 C.2     1  UNL1        0.3030
      3  O          5.1010    0.1740    2.4940 O.2     1  UNL1       -0.2520
      4  O          3.2250    1.4600    2.4780 O.3     1  UNL1       -0.4810
      5  H          2.6360    0.7840    2.9880 H       1  UNL1        0.2960
      6  C          6.5360    1.6810    0.8620 C.3     1  UNL1        0.0470
      7  C          7.1440    0.9470   -0.2780 C.2     1  UNL1       -0.0470
      8  C          6.4340   -0.0140   -0.9720 C.2     1  UNL1        0.0040
      9  C          8.4390    1.1860   -0.7000 C.2     1  UNL1        0.0040
     10  C          7.0090   -0.6900   -2.0300 C.2     1  UNL1        0.0000
     11  C          9.0140    0.5140   -1.7550 C.2     1  UNL1        0.0000
     12  C          8.3020   -0.4460   -2.4460 C.2     1  UNL1        0.0000
@<TRIPOS>BOND
     1    12    10    2
     2    12    11    1
     3    10     8    1
     4    11     9    2
     5     8     7    2
     6     9     7    1
     7     7     6    1
     8     1     6    1
     9     1     2    1
    10     2     4    1
    11     2     3    2
    12     4     5    1
