@<TRIPOS>MOLECULE
/home/cewinharhar/GITHUB/reincatalyze/data/processed/docking_pred/2023-Apr-25-2033_maxeplen5_maxtrainstep200_exh16_gamma099_lrac3e-4_lrcr1e-3/d18fc177cce43baae8a65556dd45e7572e61ad5e_ligand_2.pdbqt
 12 12 0 0 0
SMALL
GASTEIGER

@<TRIPOS>ATOM
      1  C          4.9760    1.7970    0.6640 C.3     1  UNL1        0.1270
      2  C          4.4600    1.1360    1.8910 C.2     1  UNL1        0.3030
      3  O          5.1460    0.2380    2.4370 O.2     1  UNL1       -0.2520
      4  O          3.2370    1.4750    2.4640 O.3     1  UNL1       -0.4810
      5  H          2.3780    1.5670    1.9000 H       1  UNL1        0.2960
      6  C          6.4770    1.8170    0.7580 C.3     1  UNL1        0.0470
      7  C          7.1240    1.0450   -0.3350 C.2     1  UNL1       -0.0470
      8  C          8.4500    1.2470   -0.6650 C.2     1  UNL1        0.0040
      9  C          6.4400    0.0930   -1.0670 C.2     1  UNL1        0.0040
     10  C          9.0420    0.5230   -1.6830 C.2     1  UNL1        0.0000
     11  C          7.0280   -0.6300   -2.0820 C.2     1  UNL1        0.0000
     12  C          8.3530   -0.4250   -2.4100 C.2     1  UNL1        0.0000
@<TRIPOS>BOND
     1    12    11    2
     2    12    10    1
     3    11     9    1
     4    10     8    2
     5     9     7    2
     6     8     7    1
     7     7     6    1
     8     1     6    1
     9     1     2    1
    10     2     3    2
    11     2     4    1
    12     5     4    1
