@<TRIPOS>MOLECULE
/home/cewinharhar/GITHUB/reincatalyze/data/processed/docking_pred/2023-Apr-25-2033_maxeplen5_maxtrainstep200_exh16_gamma099_lrac3e-4_lrcr1e-3/d18fc177cce43baae8a65556dd45e7572e61ad5e_ligand_2.pdbqt
 12 12 0 0 0
SMALL
GASTEIGER

@<TRIPOS>ATOM
      1  C          8.4590   -0.5570   -2.2430 C.3     1  UNL1        0.1270
      2  C          8.4830   -1.8720   -2.9330 C.2     1  UNL1        0.3030
      3  O          9.5800   -2.4590   -3.0950 O.2     1  UNL1       -0.2520
      4  O          7.3280   -2.4870   -3.4110 O.3     1  UNL1       -0.4810
      5  H          6.4980   -2.6250   -2.8140 H       1  UNL1        0.2960
      6  C          7.0310   -0.0860   -2.2150 C.3     1  UNL1        0.0470
      7  C          6.5040    0.0470   -0.8310 C.2     1  UNL1       -0.0470
      8  C          5.8810    1.2050   -0.4110 C.2     1  UNL1        0.0040
      9  C          6.6090   -0.9730    0.0960 C.2     1  UNL1        0.0040
     10  C          5.3940    1.3180    0.8770 C.2     1  UNL1        0.0000
     11  C          6.1250   -0.8640    1.3810 C.2     1  UNL1        0.0000
     12  C          5.5030    0.2960    1.7980 C.2     1  UNL1        0.0000
@<TRIPOS>BOND
     1     4     2    1
     2     4     5    1
     3     3     2    2
     4     2     1    1
     5     1     6    1
     6     6     7    1
     7     7     8    2
     8     7     9    1
     9     8    10    1
    10     9    11    2
    11    10    12    2
    12    11    12    1
