@<TRIPOS>MOLECULE
/home/cewinharhar/GITHUB/reincatalyze/data/processed/docking_pred/2023-Apr-25-2033_maxeplen5_maxtrainstep200_exh16_gamma099_lrac3e-4_lrcr1e-3/d18fc177cce43baae8a65556dd45e7572e61ad5e_ligand_2.pdbqt
 12 12 0 0 0
SMALL
GASTEIGER

@<TRIPOS>ATOM
      1  C          8.2070    0.2300   -2.2700 C.3     1  UNL1        0.1270
      2  C          9.3320    0.3500   -1.3070 C.2     1  UNL1        0.3030
      3  O          9.3960   -0.4430   -0.3370 O.2     1  UNL1       -0.2520
      4  O         10.3270    1.3150   -1.4370 O.3     1  UNL1       -0.4810
      5  H         11.1790    1.3010   -0.8550 H       1  UNL1        0.2960
      6  C          7.1100   -0.5430   -1.5900 C.3     1  UNL1        0.0470
      7  C          6.3310    0.2940   -0.6400 C.2     1  UNL1       -0.0470
      8  C          5.8140    1.5170   -1.0220 C.2     1  UNL1        0.0040
      9  C          6.0850   -0.1050    0.6600 C.2     1  UNL1        0.0040
     10  C          5.0910    2.2870   -0.1310 C.2     1  UNL1        0.0000
     11  C          5.3650    0.6600    1.5500 C.2     1  UNL1        0.0000
     12  C          4.8500    1.8820    1.1660 C.2     1  UNL1        0.0000
@<TRIPOS>BOND
     1     1     6    1
     2     1     2    1
     3     6     7    1
     4     4     2    1
     5     4     5    1
     6     2     3    2
     7     8     7    2
     8     8    10    1
     9     7     9    1
    10    10    12    2
    11     9    11    2
    12    12    11    1
