MODEL 1
REMARK VINA RESULT:      -7.3      0.000      0.000
REMARK SMILES O=C(O)CCc1ccccc1
REMARK SMILES IDX 4 1 2 2 1 3 3 4 5 6 6 7 7 8 11 9 8 10 10 11 9 12
REMARK H PARENT 3 5
REMARK Flexibility Score: inf
ROOT
ATOM      1  C   UNL     1       8.459  -0.557  -2.243  1.00  0.00     0.127 C 
ENDROOT
BRANCH   1   2
ATOM      2  C   UNL     1       8.483  -1.872  -2.933  1.00  0.00     0.303 C 
ATOM      3  O   UNL     1       9.580  -2.459  -3.095  1.00  0.00    -0.252 OA
BRANCH   2   4
ATOM      4  O   UNL     1       7.328  -2.487  -3.411  1.00  0.00    -0.481 OA
ATOM      5  H   UNL     1       6.498  -2.625  -2.814  1.00  0.00     0.296 HD
ENDBRANCH   2   4
ENDBRANCH   1   2
BRANCH   1   6
ATOM      6  C   UNL     1       7.031  -0.086  -2.215  1.00  0.00     0.047 C 
BRANCH   6   7
ATOM      7  C   UNL     1       6.504   0.047  -0.831  1.00  0.00    -0.047 A 
ATOM      8  C   UNL     1       5.881   1.205  -0.411  1.00  0.00     0.004 A 
ATOM      9  C   UNL     1       6.609  -0.973   0.096  1.00  0.00     0.004 A 
ATOM     10  C   UNL     1       5.394   1.318   0.877  1.00  0.00     0.000 A 
ATOM     11  C   UNL     1       6.125  -0.864   1.381  1.00  0.00     0.000 A 
ATOM     12  C   UNL     1       5.503   0.296   1.798  1.00  0.00     0.000 A 
ENDBRANCH   6   7
ENDBRANCH   1   6
TORSDOF 4
ENDMDL
MODEL 2
REMARK VINA RESULT:      -7.3      0.129      1.719
REMARK SMILES O=C(O)CCc1ccccc1
REMARK SMILES IDX 4 1 2 2 1 3 3 4 5 6 6 7 7 8 11 9 8 10 10 11 9 12
REMARK H PARENT 3 5
REMARK Flexibility Score: inf
ROOT
ATOM      1  C   UNL     1       8.441  -0.632  -2.116  1.00  0.00     0.127 C 
ENDROOT
BRANCH   1   2
ATOM      2  C   UNL     1       8.418  -1.903  -2.885  1.00  0.00     0.303 C 
ATOM      3  O   UNL     1       7.314  -2.401  -3.212  1.00  0.00    -0.252 OA
BRANCH   2   4
ATOM      4  O   UNL     1       9.581  -2.571  -3.260  1.00  0.00    -0.481 OA
ATOM      5  H   UNL     1      10.486  -2.387  -2.801  1.00  0.00     0.296 HD
ENDBRANCH   2   4
ENDBRANCH   1   2
BRANCH   1   6
ATOM      6  C   UNL     1       7.046  -0.070  -2.129  1.00  0.00     0.047 C 
BRANCH   6   7
ATOM      7  C   UNL     1       6.479   0.072  -0.762  1.00  0.00    -0.047 A 
ATOM      8  C   UNL     1       6.591  -0.943   0.168  1.00  0.00     0.004 A 
ATOM      9  C   UNL     1       5.818   1.217  -0.356  1.00  0.00     0.004 A 
ATOM     10  C   UNL     1       6.060  -0.800   1.436  1.00  0.00     0.000 A 
ATOM     11  C   UNL     1       5.289   1.361   0.907  1.00  0.00     0.000 A 
ATOM     12  C   UNL     1       5.401   0.345   1.834  1.00  0.00     0.000 A 
ENDBRANCH   6   7
ENDBRANCH   1   6
TORSDOF 4
ENDMDL
MODEL 3
REMARK VINA RESULT:      -6.8      3.389      5.107
REMARK SMILES O=C(O)CCc1ccccc1
REMARK SMILES IDX 4 1 2 2 1 3 3 4 5 6 6 7 7 8 11 9 8 10 10 11 9 12
REMARK H PARENT 3 5
REMARK Flexibility Score: inf
ROOT
ATOM      1  C   UNL     1       5.039   1.774   0.752  1.00  0.00     0.127 C 
ENDROOT
BRANCH   1   2
ATOM      2  C   UNL     1       4.460   1.101   1.943  1.00  0.00     0.303 C 
ATOM      3  O   UNL     1       5.101   0.174   2.494  1.00  0.00    -0.252 OA
BRANCH   2   4
ATOM      4  O   UNL     1       3.225   1.460   2.478  1.00  0.00    -0.481 OA
ATOM      5  H   UNL     1       2.636   0.784   2.988  1.00  0.00     0.296 HD
ENDBRANCH   2   4
ENDBRANCH   1   2
BRANCH   1   6
ATOM      6  C   UNL     1       6.536   1.681   0.862  1.00  0.00     0.047 C 
BRANCH   6   7
ATOM      7  C   UNL     1       7.144   0.947  -0.278  1.00  0.00    -0.047 A 
ATOM      8  C   UNL     1       6.434  -0.014  -0.972  1.00  0.00     0.004 A 
ATOM      9  C   UNL     1       8.439   1.186  -0.700  1.00  0.00     0.004 A 
ATOM     10  C   UNL     1       7.009  -0.690  -2.030  1.00  0.00     0.000 A 
ATOM     11  C   UNL     1       9.014   0.514  -1.755  1.00  0.00     0.000 A 
ATOM     12  C   UNL     1       8.302  -0.446  -2.446  1.00  0.00     0.000 A 
ENDBRANCH   6   7
ENDBRANCH   1   6
TORSDOF 4
ENDMDL
MODEL 4
REMARK VINA RESULT:      -6.8      3.386      5.067
REMARK SMILES O=C(O)CCc1ccccc1
REMARK SMILES IDX 4 1 2 2 1 3 3 4 5 6 6 7 7 8 11 9 8 10 10 11 9 12
REMARK H PARENT 3 5
REMARK Flexibility Score: inf
ROOT
ATOM      1  C   UNL     1       4.976   1.797   0.664  1.00  0.00     0.127 C 
ENDROOT
BRANCH   1   2
ATOM      2  C   UNL     1       4.460   1.136   1.891  1.00  0.00     0.303 C 
ATOM      3  O   UNL     1       5.146   0.238   2.437  1.00  0.00    -0.252 OA
BRANCH   2   4
ATOM      4  O   UNL     1       3.237   1.475   2.464  1.00  0.00    -0.481 OA
ATOM      5  H   UNL     1       2.378   1.567   1.900  1.00  0.00     0.296 HD
ENDBRANCH   2   4
ENDBRANCH   1   2
BRANCH   1   6
ATOM      6  C   UNL     1       6.477   1.817   0.758  1.00  0.00     0.047 C 
BRANCH   6   7
ATOM      7  C   UNL     1       7.124   1.045  -0.335  1.00  0.00    -0.047 A 
ATOM      8  C   UNL     1       8.450   1.247  -0.665  1.00  0.00     0.004 A 
ATOM      9  C   UNL     1       6.440   0.093  -1.067  1.00  0.00     0.004 A 
ATOM     10  C   UNL     1       9.042   0.523  -1.683  1.00  0.00     0.000 A 
ATOM     11  C   UNL     1       7.028  -0.630  -2.082  1.00  0.00     0.000 A 
ATOM     12  C   UNL     1       8.353  -0.425  -2.410  1.00  0.00     0.000 A 
ENDBRANCH   6   7
ENDBRANCH   1   6
TORSDOF 4
ENDMDL
MODEL 5
REMARK VINA RESULT:      -6.6      1.902      2.314
REMARK SMILES O=C(O)CCc1ccccc1
REMARK SMILES IDX 4 1 2 2 1 3 3 4 5 6 6 7 7 8 11 9 8 10 10 11 9 12
REMARK H PARENT 3 5
REMARK Flexibility Score: inf
ROOT
ATOM      1  C   UNL     1       8.207   0.230  -2.270  1.00  0.00     0.127 C 
ENDROOT
BRANCH   1   2
ATOM      2  C   UNL     1       9.332   0.350  -1.307  1.00  0.00     0.303 C 
ATOM      3  O   UNL     1       9.396  -0.443  -0.337  1.00  0.00    -0.252 OA
BRANCH   2   4
ATOM      4  O   UNL     1      10.327   1.315  -1.437  1.00  0.00    -0.481 OA
ATOM      5  H   UNL     1      11.179   1.301  -0.855  1.00  0.00     0.296 HD
ENDBRANCH   2   4
ENDBRANCH   1   2
BRANCH   1   6
ATOM      6  C   UNL     1       7.110  -0.543  -1.590  1.00  0.00     0.047 C 
BRANCH   6   7
ATOM      7  C   UNL     1       6.331   0.294  -0.640  1.00  0.00    -0.047 A 
ATOM      8  C   UNL     1       5.814   1.517  -1.022  1.00  0.00     0.004 A 
ATOM      9  C   UNL     1       6.085  -0.105   0.660  1.00  0.00     0.004 A 
ATOM     10  C   UNL     1       5.091   2.287  -0.131  1.00  0.00     0.000 A 
ATOM     11  C   UNL     1       5.365   0.660   1.550  1.00  0.00     0.000 A 
ATOM     12  C   UNL     1       4.850   1.882   1.166  1.00  0.00     0.000 A 
ENDBRANCH   6   7
ENDBRANCH   1   6
TORSDOF 4
ENDMDL
