@<TRIPOS>MOLECULE
/home/cewinharhar/GITHUB/reincatalyze/data/processed/docking_pred/2023-Apr-25-2033_maxeplen5_maxtrainstep200_exh16_gamma099_lrac3e-4_lrcr1e-3/d18fc177cce43baae8a65556dd45e7572e61ad5e_ligand_2.pdbqt
 12 12 0 0 0
SMALL
GASTEIGER

@<TRIPOS>ATOM
      1  C          8.4410   -0.6320   -2.1160 C.3     1  UNL1        0.1270
      2  C          8.4180   -1.9030   -2.8850 C.2     1  UNL1        0.3030
      3  O          7.3140   -2.4010   -3.2120 O.2     1  UNL1       -0.2520
      4  O          9.5810   -2.5710   -3.2600 O.3     1  UNL1       -0.4810
      5  H         10.4860   -2.3870   -2.8010 H       1  UNL1        0.2960
      6  C          7.0460   -0.0700   -2.1290 C.3     1  UNL1        0.0470
      7  C          6.4790    0.0720   -0.7620 C.2     1  UNL1       -0.0470
      8  C          6.5910   -0.9430    0.1680 C.2     1  UNL1        0.0040
      9  C          5.8180    1.2170   -0.3560 C.2     1  UNL1        0.0040
     10  C          6.0600   -0.8000    1.4360 C.2     1  UNL1        0.0000
     11  C          5.2890    1.3610    0.9070 C.2     1  UNL1        0.0000
     12  C          5.4010    0.3450    1.8340 C.2     1  UNL1        0.0000
@<TRIPOS>BOND
     1     4     2    1
     2     4     5    1
     3     3     2    2
     4     2     1    1
     5     6     1    1
     6     6     7    1
     7     7     9    2
     8     7     8    1
     9     9    11    1
    10     8    10    2
    11    11    12    2
    12    10    12    1
