@<TRIPOS>MOLECULE
/home/cewinharhar/GITHUB/reincatalyze/data/processed/docking_pred/2023-Apr-25-2033_maxeplen5_maxtrainstep200_exh16_gamma099_lrac3e-4_lrcr1e-3/d27e6afc186b75c76b7fe435f4b9560b42cd14a2_ligand_2.pdbqt
 12 12 0 0 0
SMALL
GASTEIGER

@<TRIPOS>ATOM
      1  C          8.4370   -0.6920   -2.0670 C.3     1  UNL1        0.1270
      2  C          8.4090   -1.9430   -2.8690 C.2     1  UNL1        0.3030
      3  O          7.3040   -2.4020   -3.2490 O.2     1  UNL1       -0.2520
      4  O          9.5660   -2.6320   -3.2190 O.3     1  UNL1       -0.4810
      5  H         10.4590   -2.4850   -2.7230 H       1  UNL1        0.2960
      6  C          7.0540   -0.1030   -2.0990 C.3     1  UNL1        0.0470
      7  C          6.4750    0.0610   -0.7400 C.2     1  UNL1       -0.0470
      8  C          6.5890   -0.9340    0.2110 C.2     1  UNL1        0.0040
      9  C          5.8010    1.2070   -0.3610 C.2     1  UNL1        0.0040
     10  C          6.0470   -0.7710    1.4720 C.2     1  UNL1        0.0000
     11  C          5.2610    1.3720    0.8950 C.2     1  UNL1        0.0000
     12  C          5.3750    0.3750    1.8430 C.2     1  UNL1        0.0000
@<TRIPOS>BOND
     1     3     2    2
     2     4     2    1
     3     4     5    1
     4     2     1    1
     5     6     1    1
     6     6     7    1
     7     7     9    2
     8     7     8    1
     9     9    11    1
    10     8    10    2
    11    11    12    2
    12    10    12    1
