@<TRIPOS>MOLECULE
/home/cewinharhar/GITHUB/reincatalyze/data/processed/docking_pred/2023-Apr-25-2033_maxeplen5_maxtrainstep200_exh16_gamma099_lrac3e-4_lrcr1e-3/d27e6afc186b75c76b7fe435f4b9560b42cd14a2_ligand_2.pdbqt
 12 12 0 0 0
SMALL
GASTEIGER

@<TRIPOS>ATOM
      1  C          5.4430    2.8970   -0.0170 C.3     1  UNL1        0.1270
      2  C          6.2410    3.8360    0.8120 C.2     1  UNL1        0.3030
      3  O          6.8660    4.7690    0.2510 O.2     1  UNL1       -0.2520
      4  O          6.3250    3.7250    2.1980 O.3     1  UNL1       -0.4810
      5  H          7.0800    4.1780    2.7350 H       1  UNL1        0.2960
      6  C          4.8680    1.8560    0.9050 C.3     1  UNL1        0.0470
      7  C          5.6870    0.6160    0.9400 C.2     1  UNL1       -0.0470
      8  C          5.7390   -0.1740    2.0720 C.2     1  UNL1        0.0040
      9  C          6.4290    0.1930   -0.1470 C.2     1  UNL1        0.0040
     10  C          6.5040   -1.3250    2.0940 C.2     1  UNL1        0.0000
     11  C          7.1910   -0.9540   -0.1270 C.2     1  UNL1        0.0000
     12  C          7.2420   -1.7410    1.0060 C.2     1  UNL1        0.0000
@<TRIPOS>BOND
     1     9    11    1
     2     9     7    2
     3    11    12    2
     4     1     2    1
     5     1     6    1
     6     3     2    2
     7     2     4    1
     8     6     7    1
     9     7     8    1
    10    12    10    1
    11     8    10    2
    12     4     5    1
