@<TRIPOS>MOLECULE
/home/cewinharhar/GITHUB/reincatalyze/data/processed/docking_pred/2023-Apr-25-2033_maxeplen5_maxtrainstep200_exh16_gamma099_lrac3e-4_lrcr1e-3/d27e6afc186b75c76b7fe435f4b9560b42cd14a2_ligand_2.pdbqt
 12 12 0 0 0
SMALL
GASTEIGER

@<TRIPOS>ATOM
      1  C          8.4350   -0.5840   -2.1800 C.3     1  UNL1        0.1270
      2  C          8.4150   -1.8840   -2.8980 C.2     1  UNL1        0.3030
      3  O          7.3120   -2.4000   -3.2010 O.2     1  UNL1       -0.2520
      4  O          9.5800   -2.5600   -3.2530 O.3     1  UNL1       -0.4810
      5  H          9.6250   -3.1670   -4.0850 H       1  UNL1        0.2960
      6  C          7.0250   -0.0600   -2.1550 C.3     1  UNL1        0.0470
      7  C          6.4880    0.0570   -0.7740 C.2     1  UNL1       -0.0470
      8  C          5.8540    1.2080   -0.3480 C.2     1  UNL1        0.0040
      9  C          6.5920   -0.9700    0.1450 C.2     1  UNL1        0.0040
     10  C          5.3570    1.3060    0.9380 C.2     1  UNL1        0.0000
     11  C          6.0990   -0.8750    1.4270 C.2     1  UNL1        0.0000
     12  C          5.4660    0.2770    1.8500 C.2     1  UNL1        0.0000
@<TRIPOS>BOND
     1     5     4    1
     2     4     2    1
     3     3     2    2
     4     2     1    1
     5     1     6    1
     6     6     7    1
     7     7     8    2
     8     7     9    1
     9     8    10    1
    10     9    11    2
    11    10    12    2
    12    11    12    1
