MODEL 1
REMARK VINA RESULT:      -7.2      0.000      0.000
REMARK SMILES O=C(O)CCc1ccccc1
REMARK SMILES IDX 4 1 2 2 1 3 3 4 5 6 6 7 7 8 11 9 8 10 10 11 9 12
REMARK H PARENT 3 5
REMARK Flexibility Score: inf
ROOT
ATOM      1  C   UNL     1       8.437  -0.692  -2.067  1.00  0.00     0.127 C 
ENDROOT
BRANCH   1   2
ATOM      2  C   UNL     1       8.409  -1.943  -2.869  1.00  0.00     0.303 C 
ATOM      3  O   UNL     1       7.304  -2.402  -3.249  1.00  0.00    -0.252 OA
BRANCH   2   4
ATOM      4  O   UNL     1       9.566  -2.632  -3.219  1.00  0.00    -0.481 OA
ATOM      5  H   UNL     1      10.459  -2.485  -2.723  1.00  0.00     0.296 HD
ENDBRANCH   2   4
ENDBRANCH   1   2
BRANCH   1   6
ATOM      6  C   UNL     1       7.054  -0.103  -2.099  1.00  0.00     0.047 C 
BRANCH   6   7
ATOM      7  C   UNL     1       6.475   0.061  -0.740  1.00  0.00    -0.047 A 
ATOM      8  C   UNL     1       6.589  -0.934   0.211  1.00  0.00     0.004 A 
ATOM      9  C   UNL     1       5.801   1.207  -0.361  1.00  0.00     0.004 A 
ATOM     10  C   UNL     1       6.047  -0.771   1.472  1.00  0.00     0.000 A 
ATOM     11  C   UNL     1       5.261   1.372   0.895  1.00  0.00     0.000 A 
ATOM     12  C   UNL     1       5.375   0.375   1.843  1.00  0.00     0.000 A 
ENDBRANCH   6   7
ENDBRANCH   1   6
TORSDOF 4
ENDMDL
MODEL 2
REMARK VINA RESULT:      -7.2      0.097      1.422
REMARK SMILES O=C(O)CCc1ccccc1
REMARK SMILES IDX 4 1 2 2 1 3 3 4 5 6 6 7 7 8 11 9 8 10 10 11 9 12
REMARK H PARENT 3 5
REMARK Flexibility Score: inf
ROOT
ATOM      1  C   UNL     1       8.435  -0.584  -2.180  1.00  0.00     0.127 C 
ENDROOT
BRANCH   1   2
ATOM      2  C   UNL     1       8.415  -1.884  -2.898  1.00  0.00     0.303 C 
ATOM      3  O   UNL     1       7.312  -2.400  -3.201  1.00  0.00    -0.252 OA
BRANCH   2   4
ATOM      4  O   UNL     1       9.580  -2.560  -3.253  1.00  0.00    -0.481 OA
ATOM      5  H   UNL     1       9.625  -3.167  -4.085  1.00  0.00     0.296 HD
ENDBRANCH   2   4
ENDBRANCH   1   2
BRANCH   1   6
ATOM      6  C   UNL     1       7.025  -0.060  -2.155  1.00  0.00     0.047 C 
BRANCH   6   7
ATOM      7  C   UNL     1       6.488   0.057  -0.774  1.00  0.00    -0.047 A 
ATOM      8  C   UNL     1       5.854   1.208  -0.348  1.00  0.00     0.004 A 
ATOM      9  C   UNL     1       6.592  -0.970   0.145  1.00  0.00     0.004 A 
ATOM     10  C   UNL     1       5.357   1.306   0.938  1.00  0.00     0.000 A 
ATOM     11  C   UNL     1       6.099  -0.875   1.427  1.00  0.00     0.000 A 
ATOM     12  C   UNL     1       5.466   0.277   1.850  1.00  0.00     0.000 A 
ENDBRANCH   6   7
ENDBRANCH   1   6
TORSDOF 4
ENDMDL
MODEL 3
REMARK VINA RESULT:      -6.8      3.326      5.192
REMARK SMILES O=C(O)CCc1ccccc1
REMARK SMILES IDX 4 1 2 2 1 3 3 4 5 6 6 7 7 8 11 9 8 10 10 11 9 12
REMARK H PARENT 3 5
REMARK Flexibility Score: inf
ROOT
ATOM      1  C   UNL     1       4.985   1.834   0.739  1.00  0.00     0.127 C 
ENDROOT
BRANCH   1   2
ATOM      2  C   UNL     1       4.449   1.133   1.935  1.00  0.00     0.303 C 
ATOM      3  O   UNL     1       5.128   0.220   2.464  1.00  0.00    -0.252 OA
BRANCH   2   4
ATOM      4  O   UNL     1       3.215   1.450   2.497  1.00  0.00    -0.481 OA
ATOM      5  H   UNL     1       2.493   1.965   1.971  1.00  0.00     0.296 HD
ENDBRANCH   2   4
ENDBRANCH   1   2
BRANCH   1   6
ATOM      6  C   UNL     1       6.485   1.801   0.829  1.00  0.00     0.047 C 
BRANCH   6   7
ATOM      7  C   UNL     1       7.105   1.056  -0.297  1.00  0.00    -0.047 A 
ATOM      8  C   UNL     1       8.432   1.242  -0.635  1.00  0.00     0.004 A 
ATOM      9  C   UNL     1       6.394   0.146  -1.057  1.00  0.00     0.004 A 
ATOM     10  C   UNL     1       8.998   0.544  -1.684  1.00  0.00     0.000 A 
ATOM     11  C   UNL     1       6.956  -0.552  -2.103  1.00  0.00     0.000 A 
ATOM     12  C   UNL     1       8.281  -0.363  -2.438  1.00  0.00     0.000 A 
ENDBRANCH   6   7
ENDBRANCH   1   6
TORSDOF 4
ENDMDL
MODEL 4
REMARK VINA RESULT:      -6.7      3.833      4.947
REMARK SMILES O=C(O)CCc1ccccc1
REMARK SMILES IDX 4 1 2 2 1 3 3 4 5 6 6 7 7 8 11 9 8 10 10 11 9 12
REMARK H PARENT 3 5
REMARK Flexibility Score: inf
ROOT
ATOM      1  C   UNL     1       5.443   2.897  -0.017  1.00  0.00     0.127 C 
ENDROOT
BRANCH   1   2
ATOM      2  C   UNL     1       6.241   3.836   0.812  1.00  0.00     0.303 C 
ATOM      3  O   UNL     1       6.866   4.769   0.251  1.00  0.00    -0.252 OA
BRANCH   2   4
ATOM      4  O   UNL     1       6.325   3.725   2.198  1.00  0.00    -0.481 OA
ATOM      5  H   UNL     1       7.080   4.178   2.735  1.00  0.00     0.296 HD
ENDBRANCH   2   4
ENDBRANCH   1   2
BRANCH   1   6
ATOM      6  C   UNL     1       4.868   1.856   0.905  1.00  0.00     0.047 C 
BRANCH   6   7
ATOM      7  C   UNL     1       5.687   0.616   0.940  1.00  0.00    -0.047 A 
ATOM      8  C   UNL     1       5.739  -0.174   2.072  1.00  0.00     0.004 A 
ATOM      9  C   UNL     1       6.429   0.193  -0.147  1.00  0.00     0.004 A 
ATOM     10  C   UNL     1       6.504  -1.325   2.094  1.00  0.00     0.000 A 
ATOM     11  C   UNL     1       7.191  -0.954  -0.127  1.00  0.00     0.000 A 
ATOM     12  C   UNL     1       7.242  -1.741   1.006  1.00  0.00     0.000 A 
ENDBRANCH   6   7
ENDBRANCH   1   6
TORSDOF 4
ENDMDL
MODEL 5
REMARK VINA RESULT:      -6.5      1.874      2.936
REMARK SMILES O=C(O)CCc1ccccc1
REMARK SMILES IDX 4 1 2 2 1 3 3 4 5 6 6 7 7 8 11 9 8 10 10 11 9 12
REMARK H PARENT 3 5
REMARK Flexibility Score: inf
ROOT
ATOM      1  C   UNL     1       8.137  -1.537   1.172  1.00  0.00     0.127 C 
ENDROOT
BRANCH   1   2
ATOM      2  C   UNL     1       8.460  -2.724   0.338  1.00  0.00     0.303 C 
ATOM      3  O   UNL     1       9.131  -3.659   0.838  1.00  0.00    -0.252 OA
BRANCH   2   4
ATOM      4  O   UNL     1       8.044  -2.843  -0.985  1.00  0.00    -0.481 OA
ATOM      5  H   UNL     1       7.379  -3.573  -1.283  1.00  0.00     0.296 HD
ENDBRANCH   2   4
ENDBRANCH   1   2
BRANCH   1   6
ATOM      6  C   UNL     1       6.639  -1.443   1.265  1.00  0.00     0.047 C 
BRANCH   6   7
ATOM      7  C   UNL     1       6.117  -0.153   0.745  1.00  0.00    -0.047 A 
ATOM      8  C   UNL     1       5.365   0.688   1.542  1.00  0.00     0.004 A 
ATOM      9  C   UNL     1       6.356   0.269  -0.550  1.00  0.00     0.004 A 
ATOM     10  C   UNL     1       4.884   1.886   1.048  1.00  0.00     0.000 A 
ATOM     11  C   UNL     1       5.879   1.462  -1.044  1.00  0.00     0.000 A 
ATOM     12  C   UNL     1       5.127   2.300  -0.246  1.00  0.00     0.000 A 
ENDBRANCH   6   7
ENDBRANCH   1   6
TORSDOF 4
ENDMDL
