@<TRIPOS>MOLECULE
/home/cewinharhar/GITHUB/reincatalyze/data/processed/docking_pred/2023-Apr-25-2033_maxeplen5_maxtrainstep200_exh16_gamma099_lrac3e-4_lrcr1e-3/d27e6afc186b75c76b7fe435f4b9560b42cd14a2_ligand_2.pdbqt
 12 12 0 0 0
SMALL
GASTEIGER

@<TRIPOS>ATOM
      1  C          8.1370   -1.5370    1.1720 C.3     1  UNL1        0.1270
      2  C          8.4600   -2.7240    0.3380 C.2     1  UNL1        0.3030
      3  O          9.1310   -3.6590    0.8380 O.2     1  UNL1       -0.2520
      4  O          8.0440   -2.8430   -0.9850 O.3     1  UNL1       -0.4810
      5  H          7.3790   -3.5730   -1.2830 H       1  UNL1        0.2960
      6  C          6.6390   -1.4430    1.2650 C.3     1  UNL1        0.0470
      7  C          6.1170   -0.1530    0.7450 C.2     1  UNL1       -0.0470
      8  C          5.3650    0.6880    1.5420 C.2     1  UNL1        0.0040
      9  C          6.3560    0.2690   -0.5500 C.2     1  UNL1        0.0040
     10  C          4.8840    1.8860    1.0480 C.2     1  UNL1        0.0000
     11  C          5.8790    1.4620   -1.0440 C.2     1  UNL1        0.0000
     12  C          5.1270    2.3000   -0.2460 C.2     1  UNL1        0.0000
@<TRIPOS>BOND
     1     5     4    1
     2    11     9    1
     3    11    12    2
     4     4     2    1
     5     9     7    2
     6    12    10    1
     7     2     3    2
     8     2     1    1
     9     7     6    1
    10     7     8    1
    11    10     8    2
    12     1     6    1
