@<TRIPOS>MOLECULE
/home/cewinharhar/GITHUB/reincatalyze/data/processed/docking_pred/2023-Apr-25-2033_maxeplen5_maxtrainstep200_exh16_gamma099_lrac3e-4_lrcr1e-3/d27e6afc186b75c76b7fe435f4b9560b42cd14a2_ligand_2.pdbqt
 12 12 0 0 0
SMALL
GASTEIGER

@<TRIPOS>ATOM
      1  C          4.9850    1.8340    0.7390 C.3     1  UNL1        0.1270
      2  C          4.4490    1.1330    1.9350 C.2     1  UNL1        0.3030
      3  O          5.1280    0.2200    2.4640 O.2     1  UNL1       -0.2520
      4  O          3.2150    1.4500    2.4970 O.3     1  UNL1       -0.4810
      5  H          2.4930    1.9650    1.9710 H       1  UNL1        0.2960
      6  C          6.4850    1.8010    0.8290 C.3     1  UNL1        0.0470
      7  C          7.1050    1.0560   -0.2970 C.2     1  UNL1       -0.0470
      8  C          8.4320    1.2420   -0.6350 C.2     1  UNL1        0.0040
      9  C          6.3940    0.1460   -1.0570 C.2     1  UNL1        0.0040
     10  C          8.9980    0.5440   -1.6840 C.2     1  UNL1        0.0000
     11  C          6.9560   -0.5520   -2.1030 C.2     1  UNL1        0.0000
     12  C          8.2810   -0.3630   -2.4380 C.2     1  UNL1        0.0000
@<TRIPOS>BOND
     1    12    11    2
     2    12    10    1
     3    11     9    1
     4    10     8    2
     5     9     7    2
     6     8     7    1
     7     7     6    1
     8     1     6    1
     9     1     2    1
    10     2     3    2
    11     2     4    1
    12     5     4    1
