@<TRIPOS>MOLECULE
/home/cewinharhar/GITHUB/reincatalyze/data/processed/docking_pred/2023-Apr-25-2033_maxeplen5_maxtrainstep200_exh16_gamma099_lrac3e-4_lrcr1e-3/d32515ef85c53a65d829162c3cbbbf13c46f52f9_ligand_2.pdbqt
 12 12 0 0 0
SMALL
GASTEIGER

@<TRIPOS>ATOM
      1  C          4.9920    1.8020    0.7040 C.3     1  UNL1        0.1270
      2  C          4.4720    1.1250    1.9200 C.2     1  UNL1        0.3030
      3  O          5.1640    0.2330    2.4680 O.2     1  UNL1       -0.2520
      4  O          3.2380    1.4430    2.4830 O.3     1  UNL1       -0.4810
      5  H          3.0450    2.3750    2.8800 H       1  UNL1        0.2960
      6  C          6.4930    1.8060    0.7950 C.3     1  UNL1        0.0470
      7  C          7.1300    1.0480   -0.3130 C.2     1  UNL1       -0.0470
      8  C          6.4100    0.1450   -1.0700 C.2     1  UNL1        0.0040
      9  C          8.4640    1.2080   -0.6410 C.2     1  UNL1        0.0040
     10  C          7.0130   -0.5550   -2.0980 C.2     1  UNL1        0.0000
     11  C          9.0670    0.5120   -1.6650 C.2     1  UNL1        0.0000
     12  C          8.3440   -0.3910   -2.4190 C.2     1  UNL1        0.0000
@<TRIPOS>BOND
     1    12    10    2
     2    12    11    1
     3    10     8    1
     4    11     9    2
     5     8     7    2
     6     9     7    1
     7     7     6    1
     8     1     6    1
     9     1     2    1
    10     2     3    2
    11     2     4    1
    12     4     5    1
