@<TRIPOS>MOLECULE
/home/cewinharhar/GITHUB/reincatalyze/data/processed/docking_pred/2023-Apr-25-2033_maxeplen5_maxtrainstep200_exh16_gamma099_lrac3e-4_lrcr1e-3/d32515ef85c53a65d829162c3cbbbf13c46f52f9_ligand_2.pdbqt
 12 12 0 0 0
SMALL
GASTEIGER

@<TRIPOS>ATOM
      1  C          8.4710   -0.6470   -2.0930 C.3     1  UNL1        0.1270
      2  C          8.4650   -1.9070   -2.8810 C.2     1  UNL1        0.3030
      3  O          9.5480   -2.5100   -3.0790 O.2     1  UNL1       -0.2520
      4  O          7.2990   -2.4510   -3.4120 O.3     1  UNL1       -0.4810
      5  H          6.4220   -2.4920   -2.8710 H       1  UNL1        0.2960
      6  C          7.0720   -0.0950   -2.1120 C.3     1  UNL1        0.0470
      7  C          6.5000    0.0480   -0.7480 C.2     1  UNL1       -0.0470
      8  C          5.8630    1.2110   -0.3580 C.2     1  UNL1        0.0040
      9  C          6.5730   -0.9640    0.1910 C.2     1  UNL1        0.0040
     10  C          5.3350    1.3340    0.9130 C.2     1  UNL1        0.0000
     11  C          6.0470   -0.8440    1.4580 C.2     1  UNL1        0.0000
     12  C          5.4120    0.3190    1.8450 C.2     1  UNL1        0.0000
@<TRIPOS>BOND
     1     4     2    1
     2     4     5    1
     3     3     2    2
     4     2     1    1
     5     6     1    1
     6     6     7    1
     7     7     8    2
     8     7     9    1
     9     8    10    1
    10     9    11    2
    11    10    12    2
    12    11    12    1
