@<TRIPOS>MOLECULE
/home/cewinharhar/GITHUB/reincatalyze/data/processed/docking_pred/2023-Apr-25-2033_maxeplen5_maxtrainstep200_exh16_gamma099_lrac3e-4_lrcr1e-3/d32515ef85c53a65d829162c3cbbbf13c46f52f9_ligand_2.pdbqt
 12 12 0 0 0
SMALL
GASTEIGER

@<TRIPOS>ATOM
      1  C          5.6230    2.9310   -0.0840 C.3     1  UNL1        0.1270
      2  C          6.3260    3.8960    0.8000 C.2     1  UNL1        0.3030
      3  O          7.0600    4.7750    0.2870 O.2     1  UNL1       -0.2520
      4  O          6.2020    3.8670    2.1870 O.3     1  UNL1       -0.4810
      5  H          6.4190    3.0200    2.7350 H       1  UNL1        0.2960
      6  C          4.9440    1.9200    0.7980 C.3     1  UNL1        0.0470
      7  C          5.7030    0.6450    0.8900 C.2     1  UNL1       -0.0470
      8  C          6.3050    0.0900   -0.2230 C.2     1  UNL1        0.0040
      9  C          5.8450   -0.0420    2.0810 C.2     1  UNL1        0.0040
     10  C          7.0090   -1.0950   -0.1260 C.2     1  UNL1        0.0000
     11  C          6.5460   -1.2240    2.1790 C.2     1  UNL1        0.0000
     12  C          7.1460   -1.7770    1.0660 C.2     1  UNL1        0.0000
@<TRIPOS>BOND
     1     8    10    1
     2     8     7    2
     3    10    12    2
     4     1     6    1
     5     1     2    1
     6     3     2    2
     7     6     7    1
     8     2     4    1
     9     7     9    1
    10    12    11    1
    11     9    11    2
    12     4     5    1
