MODEL 1
REMARK VINA RESULT:      -7.3      0.000      0.000
REMARK SMILES O=C(O)CCc1ccccc1
REMARK SMILES IDX 4 1 2 2 1 3 3 4 5 6 6 7 7 8 11 9 8 10 10 11 9 12
REMARK H PARENT 3 5
REMARK Flexibility Score: inf
ROOT
ATOM      1  C   UNL     1       8.471  -0.647  -2.093  1.00  0.00     0.127 C 
ENDROOT
BRANCH   1   2
ATOM      2  C   UNL     1       8.465  -1.907  -2.881  1.00  0.00     0.303 C 
ATOM      3  O   UNL     1       9.548  -2.510  -3.079  1.00  0.00    -0.252 OA
BRANCH   2   4
ATOM      4  O   UNL     1       7.299  -2.451  -3.412  1.00  0.00    -0.481 OA
ATOM      5  H   UNL     1       6.422  -2.492  -2.871  1.00  0.00     0.296 HD
ENDBRANCH   2   4
ENDBRANCH   1   2
BRANCH   1   6
ATOM      6  C   UNL     1       7.072  -0.095  -2.112  1.00  0.00     0.047 C 
BRANCH   6   7
ATOM      7  C   UNL     1       6.500   0.048  -0.748  1.00  0.00    -0.047 A 
ATOM      8  C   UNL     1       5.863   1.211  -0.358  1.00  0.00     0.004 A 
ATOM      9  C   UNL     1       6.573  -0.964   0.191  1.00  0.00     0.004 A 
ATOM     10  C   UNL     1       5.335   1.334   0.913  1.00  0.00     0.000 A 
ATOM     11  C   UNL     1       6.047  -0.844   1.458  1.00  0.00     0.000 A 
ATOM     12  C   UNL     1       5.412   0.319   1.845  1.00  0.00     0.000 A 
ENDBRANCH   6   7
ENDBRANCH   1   6
TORSDOF 4
ENDMDL
MODEL 2
REMARK VINA RESULT:      -7.3      0.086      1.422
REMARK SMILES O=C(O)CCc1ccccc1
REMARK SMILES IDX 4 1 2 2 1 3 3 4 5 6 6 7 7 8 11 9 8 10 10 11 9 12
REMARK H PARENT 3 5
REMARK Flexibility Score: inf
ROOT
ATOM      1  C   UNL     1       8.437  -0.746  -1.990  1.00  0.00     0.127 C 
ENDROOT
BRANCH   1   2
ATOM      2  C   UNL     1       8.456  -1.944  -2.869  1.00  0.00     0.303 C 
ATOM      3  O   UNL     1       9.550  -2.509  -3.111  1.00  0.00    -0.252 OA
BRANCH   2   4
ATOM      4  O   UNL     1       7.300  -2.471  -3.439  1.00  0.00    -0.481 OA
ATOM      5  H   UNL     1       6.360  -2.166  -3.145  1.00  0.00     0.296 HD
ENDBRANCH   2   4
ENDBRANCH   1   2
BRANCH   1   6
ATOM      6  C   UNL     1       7.051  -0.166  -2.046  1.00  0.00     0.047 C 
BRANCH   6   7
ATOM      7  C   UNL     1       6.461   0.026  -0.695  1.00  0.00    -0.047 A 
ATOM      8  C   UNL     1       6.540  -0.962   0.267  1.00  0.00     0.004 A 
ATOM      9  C   UNL     1       5.813   1.193  -0.335  1.00  0.00     0.004 A 
ATOM     10  C   UNL     1       5.989  -0.772   1.520  1.00  0.00     0.000 A 
ATOM     11  C   UNL     1       5.263   1.384   0.913  1.00  0.00     0.000 A 
ATOM     12  C   UNL     1       5.342   0.394   1.873  1.00  0.00     0.000 A 
ENDBRANCH   6   7
ENDBRANCH   1   6
TORSDOF 4
ENDMDL
MODEL 3
REMARK VINA RESULT:      -6.8      3.377      5.103
REMARK SMILES O=C(O)CCc1ccccc1
REMARK SMILES IDX 4 1 2 2 1 3 3 4 5 6 6 7 7 8 11 9 8 10 10 11 9 12
REMARK H PARENT 3 5
REMARK Flexibility Score: inf
ROOT
ATOM      1  C   UNL     1       4.992   1.802   0.704  1.00  0.00     0.127 C 
ENDROOT
BRANCH   1   2
ATOM      2  C   UNL     1       4.472   1.125   1.920  1.00  0.00     0.303 C 
ATOM      3  O   UNL     1       5.164   0.233   2.468  1.00  0.00    -0.252 OA
BRANCH   2   4
ATOM      4  O   UNL     1       3.238   1.443   2.483  1.00  0.00    -0.481 OA
ATOM      5  H   UNL     1       3.045   2.375   2.880  1.00  0.00     0.296 HD
ENDBRANCH   2   4
ENDBRANCH   1   2
BRANCH   1   6
ATOM      6  C   UNL     1       6.493   1.806   0.795  1.00  0.00     0.047 C 
BRANCH   6   7
ATOM      7  C   UNL     1       7.130   1.048  -0.313  1.00  0.00    -0.047 A 
ATOM      8  C   UNL     1       6.410   0.145  -1.070  1.00  0.00     0.004 A 
ATOM      9  C   UNL     1       8.464   1.208  -0.641  1.00  0.00     0.004 A 
ATOM     10  C   UNL     1       7.013  -0.555  -2.098  1.00  0.00     0.000 A 
ATOM     11  C   UNL     1       9.067   0.512  -1.665  1.00  0.00     0.000 A 
ATOM     12  C   UNL     1       8.344  -0.391  -2.419  1.00  0.00     0.000 A 
ENDBRANCH   6   7
ENDBRANCH   1   6
TORSDOF 4
ENDMDL
MODEL 4
REMARK VINA RESULT:      -6.7      3.828      4.914
REMARK SMILES O=C(O)CCc1ccccc1
REMARK SMILES IDX 4 1 2 2 1 3 3 4 5 6 6 7 7 8 11 9 8 10 10 11 9 12
REMARK H PARENT 3 5
REMARK Flexibility Score: inf
ROOT
ATOM      1  C   UNL     1       5.623   2.931  -0.084  1.00  0.00     0.127 C 
ENDROOT
BRANCH   1   2
ATOM      2  C   UNL     1       6.326   3.896   0.800  1.00  0.00     0.303 C 
ATOM      3  O   UNL     1       7.060   4.775   0.287  1.00  0.00    -0.252 OA
BRANCH   2   4
ATOM      4  O   UNL     1       6.202   3.867   2.187  1.00  0.00    -0.481 OA
ATOM      5  H   UNL     1       6.419   3.020   2.735  1.00  0.00     0.296 HD
ENDBRANCH   2   4
ENDBRANCH   1   2
BRANCH   1   6
ATOM      6  C   UNL     1       4.944   1.920   0.798  1.00  0.00     0.047 C 
BRANCH   6   7
ATOM      7  C   UNL     1       5.703   0.645   0.890  1.00  0.00    -0.047 A 
ATOM      8  C   UNL     1       6.305   0.090  -0.223  1.00  0.00     0.004 A 
ATOM      9  C   UNL     1       5.845  -0.042   2.081  1.00  0.00     0.004 A 
ATOM     10  C   UNL     1       7.009  -1.095  -0.126  1.00  0.00     0.000 A 
ATOM     11  C   UNL     1       6.546  -1.224   2.179  1.00  0.00     0.000 A 
ATOM     12  C   UNL     1       7.146  -1.777   1.066  1.00  0.00     0.000 A 
ENDBRANCH   6   7
ENDBRANCH   1   6
TORSDOF 4
ENDMDL
MODEL 5
REMARK VINA RESULT:      -6.6      1.880      2.824
REMARK SMILES O=C(O)CCc1ccccc1
REMARK SMILES IDX 4 1 2 2 1 3 3 4 5 6 6 7 7 8 11 9 8 10 10 11 9 12
REMARK H PARENT 3 5
REMARK Flexibility Score: inf
ROOT
ATOM      1  C   UNL     1       8.194  -1.583   1.134  1.00  0.00     0.127 C 
ENDROOT
BRANCH   1   2
ATOM      2  C   UNL     1       8.488  -2.785   0.311  1.00  0.00     0.303 C 
ATOM      3  O   UNL     1       9.140  -3.730   0.818  1.00  0.00    -0.252 OA
BRANCH   2   4
ATOM      4  O   UNL     1       8.067  -2.907  -1.010  1.00  0.00    -0.481 OA
ATOM      5  H   UNL     1       8.608  -2.510  -1.793  1.00  0.00     0.296 HD
ENDBRANCH   2   4
ENDBRANCH   1   2
BRANCH   1   6
ATOM      6  C   UNL     1       6.701  -1.490   1.282  1.00  0.00     0.047 C 
BRANCH   6   7
ATOM      7  C   UNL     1       6.158  -0.206   0.766  1.00  0.00    -0.047 A 
ATOM      8  C   UNL     1       5.399   0.623   1.568  1.00  0.00     0.004 A 
ATOM      9  C   UNL     1       6.384   0.220  -0.529  1.00  0.00     0.004 A 
ATOM     10  C   UNL     1       4.899   1.815   1.079  1.00  0.00     0.000 A 
ATOM     11  C   UNL     1       5.887   1.407  -1.020  1.00  0.00     0.000 A 
ATOM     12  C   UNL     1       5.128   2.234  -0.216  1.00  0.00     0.000 A 
ENDBRANCH   6   7
ENDBRANCH   1   6
TORSDOF 4
ENDMDL
