@<TRIPOS>MOLECULE
/home/cewinharhar/GITHUB/reincatalyze/data/processed/docking_pred/2023-Apr-25-2033_maxeplen5_maxtrainstep200_exh16_gamma099_lrac3e-4_lrcr1e-3/d32515ef85c53a65d829162c3cbbbf13c46f52f9_ligand_2.pdbqt
 12 12 0 0 0
SMALL
GASTEIGER

@<TRIPOS>ATOM
      1  C          8.1940   -1.5830    1.1340 C.3     1  UNL1        0.1270
      2  C          8.4880   -2.7850    0.3110 C.2     1  UNL1        0.3030
      3  O          9.1400   -3.7300    0.8180 O.2     1  UNL1       -0.2520
      4  O          8.0670   -2.9070   -1.0100 O.3     1  UNL1       -0.4810
      5  H          8.6080   -2.5100   -1.7930 H       1  UNL1        0.2960
      6  C          6.7010   -1.4900    1.2820 C.3     1  UNL1        0.0470
      7  C          6.1580   -0.2060    0.7660 C.2     1  UNL1       -0.0470
      8  C          5.3990    0.6230    1.5680 C.2     1  UNL1        0.0040
      9  C          6.3840    0.2200   -0.5290 C.2     1  UNL1        0.0040
     10  C          4.8990    1.8150    1.0790 C.2     1  UNL1        0.0000
     11  C          5.8870    1.4070   -1.0200 C.2     1  UNL1        0.0000
     12  C          5.1280    2.2340   -0.2160 C.2     1  UNL1        0.0000
@<TRIPOS>BOND
     1     5     4    1
     2    11     9    1
     3    11    12    2
     4     4     2    1
     5     9     7    2
     6    12    10    1
     7     2     3    2
     8     2     1    1
     9     7     6    1
    10     7     8    1
    11    10     8    2
    12     1     6    1
