@<TRIPOS>MOLECULE
/home/cewinharhar/GITHUB/reincatalyze/data/processed/docking_pred/2023-Apr-25-2033_maxeplen5_maxtrainstep200_exh16_gamma099_lrac3e-4_lrcr1e-3/d32515ef85c53a65d829162c3cbbbf13c46f52f9_ligand_2.pdbqt
 12 12 0 0 0
SMALL
GASTEIGER

@<TRIPOS>ATOM
      1  C          8.4370   -0.7460   -1.9900 C.3     1  UNL1        0.1270
      2  C          8.4560   -1.9440   -2.8690 C.2     1  UNL1        0.3030
      3  O          9.5500   -2.5090   -3.1110 O.2     1  UNL1       -0.2520
      4  O          7.3000   -2.4710   -3.4390 O.3     1  UNL1       -0.4810
      5  H          6.3600   -2.1660   -3.1450 H       1  UNL1        0.2960
      6  C          7.0510   -0.1660   -2.0460 C.3     1  UNL1        0.0470
      7  C          6.4610    0.0260   -0.6950 C.2     1  UNL1       -0.0470
      8  C          6.5400   -0.9620    0.2670 C.2     1  UNL1        0.0040
      9  C          5.8130    1.1930   -0.3350 C.2     1  UNL1        0.0040
     10  C          5.9890   -0.7720    1.5200 C.2     1  UNL1        0.0000
     11  C          5.2630    1.3840    0.9130 C.2     1  UNL1        0.0000
     12  C          5.3420    0.3940    1.8730 C.2     1  UNL1        0.0000
@<TRIPOS>BOND
     1     4     5    1
     2     4     2    1
     3     3     2    2
     4     2     1    1
     5     6     1    1
     6     6     7    1
     7     7     9    2
     8     7     8    1
     9     9    11    1
    10     8    10    2
    11    11    12    2
    12    10    12    1
