@<TRIPOS>MOLECULE
/home/cewinharhar/GITHUB/reincatalyze/data/processed/docking_pred/2023-Apr-25-2033_maxeplen5_maxtrainstep200_exh16_gamma099_lrac3e-4_lrcr1e-3/d3a7bace4d7284fd134c29c8ba069397c7215f06_ligand_2.pdbqt
 12 12 0 0 0
SMALL
GASTEIGER

@<TRIPOS>ATOM
      1  C          8.4640   -0.6240   -2.1250 C.3     1  UNL1        0.1270
      2  C          8.4520   -1.8960   -2.8920 C.2     1  UNL1        0.3030
      3  O          9.5310   -2.5080   -3.0810 O.2     1  UNL1       -0.2520
      4  O          7.2820   -2.4420   -3.4140 O.3     1  UNL1       -0.4810
      5  H          6.6840   -1.9200   -4.0730 H       1  UNL1        0.2960
      6  C          7.0600   -0.0870   -2.1140 C.3     1  UNL1        0.0470
      7  C          6.5040    0.0210   -0.7400 C.2     1  UNL1       -0.0470
      8  C          5.8550    1.1660   -0.3190 C.2     1  UNL1        0.0040
      9  C          6.6040   -1.0080    0.1770 C.2     1  UNL1        0.0040
     10  C          5.3420    1.2560    0.9610 C.2     1  UNL1        0.0000
     11  C          6.0930   -0.9210    1.4530 C.2     1  UNL1        0.0000
     12  C          5.4470    0.2250    1.8710 C.2     1  UNL1        0.0000
@<TRIPOS>BOND
     1     5     4    1
     2     4     2    1
     3     3     2    2
     4     2     1    1
     5     1     6    1
     6     6     7    1
     7     7     8    2
     8     7     9    1
     9     8    10    1
    10     9    11    2
    11    10    12    2
    12    11    12    1
