MODEL 1
REMARK VINA RESULT:      -7.3      0.000      0.000
REMARK SMILES O=C(O)CCc1ccccc1
REMARK SMILES IDX 4 1 2 2 1 3 3 4 5 6 6 7 7 8 11 9 8 10 10 11 9 12
REMARK H PARENT 3 5
REMARK Flexibility Score: inf
ROOT
ATOM      1  C   UNL     1       8.464  -0.624  -2.125  1.00  0.00     0.127 C 
ENDROOT
BRANCH   1   2
ATOM      2  C   UNL     1       8.452  -1.896  -2.892  1.00  0.00     0.303 C 
ATOM      3  O   UNL     1       9.531  -2.508  -3.081  1.00  0.00    -0.252 OA
BRANCH   2   4
ATOM      4  O   UNL     1       7.282  -2.442  -3.414  1.00  0.00    -0.481 OA
ATOM      5  H   UNL     1       6.684  -1.920  -4.073  1.00  0.00     0.296 HD
ENDBRANCH   2   4
ENDBRANCH   1   2
BRANCH   1   6
ATOM      6  C   UNL     1       7.060  -0.087  -2.114  1.00  0.00     0.047 C 
BRANCH   6   7
ATOM      7  C   UNL     1       6.504   0.021  -0.740  1.00  0.00    -0.047 A 
ATOM      8  C   UNL     1       5.855   1.166  -0.319  1.00  0.00     0.004 A 
ATOM      9  C   UNL     1       6.604  -1.008   0.177  1.00  0.00     0.004 A 
ATOM     10  C   UNL     1       5.342   1.256   0.961  1.00  0.00     0.000 A 
ATOM     11  C   UNL     1       6.093  -0.921   1.453  1.00  0.00     0.000 A 
ATOM     12  C   UNL     1       5.447   0.225   1.871  1.00  0.00     0.000 A 
ENDBRANCH   6   7
ENDBRANCH   1   6
TORSDOF 4
ENDMDL
MODEL 2
REMARK VINA RESULT:      -7.2      0.107      1.718
REMARK SMILES O=C(O)CCc1ccccc1
REMARK SMILES IDX 4 1 2 2 1 3 3 4 5 6 6 7 7 8 11 9 8 10 10 11 9 12
REMARK H PARENT 3 5
REMARK Flexibility Score: inf
ROOT
ATOM      1  C   UNL     1       8.439  -0.611  -2.143  1.00  0.00     0.127 C 
ENDROOT
BRANCH   1   2
ATOM      2  C   UNL     1       8.416  -1.895  -2.891  1.00  0.00     0.303 C 
ATOM      3  O   UNL     1       7.311  -2.398  -3.209  1.00  0.00    -0.252 OA
BRANCH   2   4
ATOM      4  O   UNL     1       9.578  -2.568  -3.256  1.00  0.00    -0.481 OA
ATOM      5  H   UNL     1       9.585  -3.584  -3.437  1.00  0.00     0.296 HD
ENDBRANCH   2   4
ENDBRANCH   1   2
BRANCH   1   6
ATOM      6  C   UNL     1       7.039  -0.063  -2.141  1.00  0.00     0.047 C 
BRANCH   6   7
ATOM      7  C   UNL     1       6.482   0.068  -0.769  1.00  0.00    -0.047 A 
ATOM      8  C   UNL     1       6.595  -0.958   0.149  1.00  0.00     0.004 A 
ATOM      9  C   UNL     1       5.831   1.211  -0.345  1.00  0.00     0.004 A 
ATOM     10  C   UNL     1       6.074  -0.827   1.423  1.00  0.00     0.000 A 
ATOM     11  C   UNL     1       5.311   1.345   0.923  1.00  0.00     0.000 A 
ATOM     12  C   UNL     1       5.425   0.318   1.839  1.00  0.00     0.000 A 
ENDBRANCH   6   7
ENDBRANCH   1   6
TORSDOF 4
ENDMDL
MODEL 3
REMARK VINA RESULT:      -7.0      0.743      1.916
REMARK SMILES O=C(O)CCc1ccccc1
REMARK SMILES IDX 4 1 2 2 1 3 3 4 5 6 6 7 7 8 11 9 8 10 10 11 9 12
REMARK H PARENT 3 5
REMARK Flexibility Score: inf
ROOT
ATOM      1  C   UNL     1       8.314  -0.986  -1.649  1.00  0.00     0.127 C 
ENDROOT
BRANCH   1   2
ATOM      2  C   UNL     1       8.329  -1.933  -2.793  1.00  0.00     0.303 C 
ATOM      3  O   UNL     1       7.240  -2.351  -3.257  1.00  0.00    -0.252 OA
BRANCH   2   4
ATOM      4  O   UNL     1       9.511  -2.380  -3.378  1.00  0.00    -0.481 OA
ATOM      5  H   UNL     1       9.729  -2.199  -4.370  1.00  0.00     0.296 HD
ENDBRANCH   2   4
ENDBRANCH   1   2
BRANCH   1   6
ATOM      6  C   UNL     1       7.235  -1.436  -0.703  1.00  0.00     0.047 C 
BRANCH   6   7
ATOM      7  C   UNL     1       6.458  -0.298  -0.145  1.00  0.00    -0.047 A 
ATOM      8  C   UNL     1       5.992  -0.320   1.156  1.00  0.00     0.004 A 
ATOM      9  C   UNL     1       6.167   0.829  -0.889  1.00  0.00     0.004 A 
ATOM     10  C   UNL     1       5.272   0.744   1.665  1.00  0.00     0.000 A 
ATOM     11  C   UNL     1       5.449   1.890  -0.384  1.00  0.00     0.000 A 
ATOM     12  C   UNL     1       4.984   1.866   0.915  1.00  0.00     0.000 A 
ENDBRANCH   6   7
ENDBRANCH   1   6
TORSDOF 4
ENDMDL
MODEL 4
REMARK VINA RESULT:      -6.8      3.382      5.103
REMARK SMILES O=C(O)CCc1ccccc1
REMARK SMILES IDX 4 1 2 2 1 3 3 4 5 6 6 7 7 8 11 9 8 10 10 11 9 12
REMARK H PARENT 3 5
REMARK Flexibility Score: inf
ROOT
ATOM      1  C   UNL     1       5.004   1.809   0.737  1.00  0.00     0.127 C 
ENDROOT
BRANCH   1   2
ATOM      2  C   UNL     1       4.458   1.121   1.935  1.00  0.00     0.303 C 
ATOM      3  O   UNL     1       5.126   0.206   2.474  1.00  0.00    -0.252 OA
BRANCH   2   4
ATOM      4  O   UNL     1       3.224   1.452   2.490  1.00  0.00    -0.481 OA
ATOM      5  H   UNL     1       2.444   0.778   2.524  1.00  0.00     0.296 HD
ENDBRANCH   2   4
ENDBRANCH   1   2
BRANCH   1   6
ATOM      6  C   UNL     1       6.504   1.767   0.836  1.00  0.00     0.047 C 
BRANCH   6   7
ATOM      7  C   UNL     1       7.126   1.020  -0.289  1.00  0.00    -0.047 A 
ATOM      8  C   UNL     1       6.403   0.102  -1.025  1.00  0.00     0.004 A 
ATOM      9  C   UNL     1       8.447   1.205  -0.652  1.00  0.00     0.004 A 
ATOM     10  C   UNL     1       6.992  -0.587  -2.068  1.00  0.00     0.000 A 
ATOM     11  C   UNL     1       9.036   0.519  -1.692  1.00  0.00     0.000 A 
ATOM     12  C   UNL     1       8.311  -0.398  -2.425  1.00  0.00     0.000 A 
ENDBRANCH   6   7
ENDBRANCH   1   6
TORSDOF 4
ENDMDL
MODEL 5
REMARK VINA RESULT:      -6.6      1.953      2.672
REMARK SMILES O=C(O)CCc1ccccc1
REMARK SMILES IDX 4 1 2 2 1 3 3 4 5 6 6 7 7 8 11 9 8 10 10 11 9 12
REMARK H PARENT 3 5
REMARK Flexibility Score: inf
ROOT
ATOM      1  C   UNL     1       8.276   0.024  -2.176  1.00  0.00     0.127 C 
ENDROOT
BRANCH   1   2
ATOM      2  C   UNL     1       9.384   0.294  -1.224  1.00  0.00     0.303 C 
ATOM      3  O   UNL     1       9.473  -0.393  -0.177  1.00  0.00    -0.252 OA
BRANCH   2   4
ATOM      4  O   UNL     1      10.337   1.284  -1.448  1.00  0.00    -0.481 OA
ATOM      5  H   UNL     1      10.094   2.287  -1.432  1.00  0.00     0.296 HD
ENDBRANCH   2   4
ENDBRANCH   1   2
BRANCH   1   6
ATOM      6  C   UNL     1       7.204  -0.716  -1.425  1.00  0.00     0.047 C 
BRANCH   6   7
ATOM      7  C   UNL     1       6.393   0.181  -0.561  1.00  0.00    -0.047 A 
ATOM      8  C   UNL     1       6.116  -0.148   0.751  1.00  0.00     0.004 A 
ATOM      9  C   UNL     1       5.880   1.380  -1.022  1.00  0.00     0.004 A 
ATOM     10  C   UNL     1       5.361   0.694   1.546  1.00  0.00     0.000 A 
ATOM     11  C   UNL     1       5.128   2.220  -0.232  1.00  0.00     0.000 A 
ATOM     12  C   UNL     1       4.852   1.888   1.079  1.00  0.00     0.000 A 
ENDBRANCH   6   7
ENDBRANCH   1   6
TORSDOF 4
ENDMDL
