@<TRIPOS>MOLECULE
/home/cewinharhar/GITHUB/reincatalyze/data/processed/docking_pred/2023-Apr-25-2033_maxeplen5_maxtrainstep200_exh16_gamma099_lrac3e-4_lrcr1e-3/d3a7bace4d7284fd134c29c8ba069397c7215f06_ligand_2.pdbqt
 12 12 0 0 0
SMALL
GASTEIGER

@<TRIPOS>ATOM
      1  C          8.3140   -0.9860   -1.6490 C.3     1  UNL1        0.1270
      2  C          8.3290   -1.9330   -2.7930 C.2     1  UNL1        0.3030
      3  O          7.2400   -2.3510   -3.2570 O.2     1  UNL1       -0.2520
      4  O          9.5110   -2.3800   -3.3780 O.3     1  UNL1       -0.4810
      5  H          9.7290   -2.1990   -4.3700 H       1  UNL1        0.2960
      6  C          7.2350   -1.4360   -0.7030 C.3     1  UNL1        0.0470
      7  C          6.4580   -0.2980   -0.1450 C.2     1  UNL1       -0.0470
      8  C          5.9920   -0.3200    1.1560 C.2     1  UNL1        0.0040
      9  C          6.1670    0.8290   -0.8890 C.2     1  UNL1        0.0040
     10  C          5.2720    0.7440    1.6650 C.2     1  UNL1        0.0000
     11  C          5.4490    1.8900   -0.3840 C.2     1  UNL1        0.0000
     12  C          4.9840    1.8660    0.9150 C.2     1  UNL1        0.0000
@<TRIPOS>BOND
     1     5     4    1
     2     4     2    1
     3     3     2    2
     4     2     1    1
     5     1     6    1
     6     9    11    1
     7     9     7    2
     8     6     7    1
     9    11    12    2
    10     7     8    1
    11    12    10    1
    12     8    10    2
