@<TRIPOS>MOLECULE
/home/cewinharhar/GITHUB/reincatalyze/data/processed/docking_pred/2023-Apr-25-2033_maxeplen5_maxtrainstep200_exh16_gamma099_lrac3e-4_lrcr1e-3/d3a7bace4d7284fd134c29c8ba069397c7215f06_ligand_2.pdbqt
 12 12 0 0 0
SMALL
GASTEIGER

@<TRIPOS>ATOM
      1  C          5.0040    1.8090    0.7370 C.3     1  UNL1        0.1270
      2  C          4.4580    1.1210    1.9350 C.2     1  UNL1        0.3030
      3  O          5.1260    0.2060    2.4740 O.2     1  UNL1       -0.2520
      4  O          3.2240    1.4520    2.4900 O.3     1  UNL1       -0.4810
      5  H          2.4440    0.7780    2.5240 H       1  UNL1        0.2960
      6  C          6.5040    1.7670    0.8360 C.3     1  UNL1        0.0470
      7  C          7.1260    1.0200   -0.2890 C.2     1  UNL1       -0.0470
      8  C          6.4030    0.1020   -1.0250 C.2     1  UNL1        0.0040
      9  C          8.4470    1.2050   -0.6520 C.2     1  UNL1        0.0040
     10  C          6.9920   -0.5870   -2.0680 C.2     1  UNL1        0.0000
     11  C          9.0360    0.5190   -1.6920 C.2     1  UNL1        0.0000
     12  C          8.3110   -0.3980   -2.4250 C.2     1  UNL1        0.0000
@<TRIPOS>BOND
     1    12    10    2
     2    12    11    1
     3    10     8    1
     4    11     9    2
     5     8     7    2
     6     9     7    1
     7     7     6    1
     8     1     6    1
     9     1     2    1
    10     2     3    2
    11     2     4    1
    12     4     5    1
