@<TRIPOS>MOLECULE
/home/cewinharhar/GITHUB/reincatalyze/data/processed/docking_pred/2023-Apr-25-2033_maxeplen5_maxtrainstep200_exh16_gamma099_lrac3e-4_lrcr1e-3/d3a7bace4d7284fd134c29c8ba069397c7215f06_ligand_2.pdbqt
 12 12 0 0 0
SMALL
GASTEIGER

@<TRIPOS>ATOM
      1  C          8.2760    0.0240   -2.1760 C.3     1  UNL1        0.1270
      2  C          9.3840    0.2940   -1.2240 C.2     1  UNL1        0.3030
      3  O          9.4730   -0.3930   -0.1770 O.2     1  UNL1       -0.2520
      4  O         10.3370    1.2840   -1.4480 O.3     1  UNL1       -0.4810
      5  H         10.0940    2.2870   -1.4320 H       1  UNL1        0.2960
      6  C          7.2040   -0.7160   -1.4250 C.3     1  UNL1        0.0470
      7  C          6.3930    0.1810   -0.5610 C.2     1  UNL1       -0.0470
      8  C          6.1160   -0.1480    0.7510 C.2     1  UNL1        0.0040
      9  C          5.8800    1.3800   -1.0220 C.2     1  UNL1        0.0040
     10  C          5.3610    0.6940    1.5460 C.2     1  UNL1        0.0000
     11  C          5.1280    2.2200   -0.2320 C.2     1  UNL1        0.0000
     12  C          4.8520    1.8880    1.0790 C.2     1  UNL1        0.0000
@<TRIPOS>BOND
     1     1     6    1
     2     1     2    1
     3     4     5    1
     4     4     2    1
     5     6     7    1
     6     2     3    2
     7     9     7    2
     8     9    11    1
     9     7     8    1
    10    11    12    2
    11     8    10    2
    12    12    10    1
