@<TRIPOS>MOLECULE
/home/cewinharhar/GITHUB/reincatalyze/data/processed/docking_pred/2023-Apr-25-2033_maxeplen5_maxtrainstep200_exh16_gamma099_lrac3e-4_lrcr1e-3/d4292dbdc665c4d20b6271b363b9823f318ec372_ligand_2.pdbqt
 12 12 0 0 0
SMALL
GASTEIGER

@<TRIPOS>ATOM
      1  C          8.4350   -0.6040   -2.1530 C.3     1  UNL1        0.1270
      2  C          8.4220   -1.8930   -2.8920 C.2     1  UNL1        0.3030
      3  O          7.3210   -2.4100   -3.2020 O.2     1  UNL1       -0.2520
      4  O          9.5900   -2.5570   -3.2580 O.3     1  UNL1       -0.4810
      5  H          9.6450   -3.5870   -3.2850 H       1  UNL1        0.2960
      6  C          7.0290   -0.0720   -2.1450 C.3     1  UNL1        0.0470
      7  C          6.4790    0.0600   -0.7710 C.2     1  UNL1       -0.0470
      8  C          5.8320    1.2120   -0.3670 C.2     1  UNL1        0.0040
      9  C          6.5860   -0.9530    0.1640 C.2     1  UNL1        0.0040
     10  C          5.3250    1.3240    0.9140 C.2     1  UNL1        0.0000
     11  C          6.0810   -0.8430    1.4410 C.2     1  UNL1        0.0000
     12  C          5.4350    0.3090    1.8420 C.2     1  UNL1        0.0000
@<TRIPOS>BOND
     1     5     4    1
     2     4     2    1
     3     3     2    2
     4     2     1    1
     5     1     6    1
     6     6     7    1
     7     7     8    2
     8     7     9    1
     9     8    10    1
    10     9    11    2
    11    10    12    2
    12    11    12    1
