@<TRIPOS>MOLECULE
/home/cewinharhar/GITHUB/reincatalyze/data/processed/docking_pred/2023-Apr-25-2033_maxeplen5_maxtrainstep200_exh16_gamma099_lrac3e-4_lrcr1e-3/d4292dbdc665c4d20b6271b363b9823f318ec372_ligand_2.pdbqt
 12 12 0 0 0
SMALL
GASTEIGER

@<TRIPOS>ATOM
      1  C          8.1670   -0.7640   -2.0460 C.3     1  UNL1        0.1270
      2  C          8.3000   -1.9580   -2.9210 C.2     1  UNL1        0.3030
      3  O          7.2660   -2.4910   -3.3910 O.2     1  UNL1       -0.2520
      4  O          9.5350   -2.5140   -3.2430 O.3     1  UNL1       -0.4810
      5  H          9.6270   -3.4950   -3.5490 H       1  UNL1        0.2960
      6  C          7.5590   -1.2190   -0.7490 C.3     1  UNL1        0.0470
      7  C          6.6470   -0.2030   -0.1610 C.2     1  UNL1       -0.0470
      8  C          6.2290    0.8910   -0.8930 C.2     1  UNL1        0.0040
      9  C          6.1740   -0.3000    1.1340 C.2     1  UNL1        0.0040
     10  C          5.3810    1.8310   -0.3380 C.2     1  UNL1        0.0000
     11  C          5.3290    0.6340    1.6900 C.2     1  UNL1        0.0000
     12  C          4.9140    1.7270    0.9560 C.2     1  UNL1        0.0000
@<TRIPOS>BOND
     1     5     4    1
     2     3     2    2
     3     4     2    1
     4     2     1    1
     5     1     6    1
     6     8    10    1
     7     8     7    2
     8     6     7    1
     9    10    12    2
    10     7     9    1
    11    12    11    1
    12     9    11    2
