@<TRIPOS>MOLECULE
/home/cewinharhar/GITHUB/reincatalyze/data/processed/docking_pred/2023-Apr-25-2033_maxeplen5_maxtrainstep200_exh16_gamma099_lrac3e-4_lrcr1e-3/d4292dbdc665c4d20b6271b363b9823f318ec372_ligand_2.pdbqt
 12 12 0 0 0
SMALL
GASTEIGER

@<TRIPOS>ATOM
      1  C          4.9830    1.8070    0.7050 C.3     1  UNL1        0.1270
      2  C          4.4690    1.1330    1.9260 C.2     1  UNL1        0.3030
      3  O          5.1700    0.2520    2.4800 O.2     1  UNL1       -0.2520
      4  O          3.2320    1.4430    2.4860 O.3     1  UNL1       -0.4810
      5  H          2.7360    0.7850    3.1070 H       1  UNL1        0.2960
      6  C          6.4840    1.8220    0.7940 C.3     1  UNL1        0.0470
      7  C          7.1250    1.0620   -0.3110 C.2     1  UNL1       -0.0470
      8  C          6.4110    0.1450   -1.0580 C.2     1  UNL1        0.0040
      9  C          8.4560    1.2320   -0.6440 C.2     1  UNL1        0.0040
     10  C          7.0180   -0.5560   -2.0820 C.2     1  UNL1        0.0000
     11  C          9.0630    0.5340   -1.6650 C.2     1  UNL1        0.0000
     12  C          8.3470   -0.3810   -2.4090 C.2     1  UNL1        0.0000
@<TRIPOS>BOND
     1    12    10    2
     2    12    11    1
     3    10     8    1
     4    11     9    2
     5     8     7    2
     6     9     7    1
     7     7     6    1
     8     1     6    1
     9     1     2    1
    10     2     3    2
    11     2     4    1
    12     4     5    1
