@<TRIPOS>MOLECULE
/home/cewinharhar/GITHUB/reincatalyze/data/processed/docking_pred/2023-Apr-25-2033_maxeplen5_maxtrainstep200_exh16_gamma099_lrac3e-4_lrcr1e-3/d4292dbdc665c4d20b6271b363b9823f318ec372_ligand_2.pdbqt
 12 12 0 0 0
SMALL
GASTEIGER

@<TRIPOS>ATOM
      1  C          8.2370   -1.5930    1.0940 C.3     1  UNL1        0.1270
      2  C          8.5240   -2.8060    0.2850 C.2     1  UNL1        0.3030
      3  O          9.1470   -3.7590    0.8110 O.2     1  UNL1       -0.2520
      4  O          8.1260   -2.9290   -1.0440 O.3     1  UNL1       -0.4810
      5  H          7.6720   -3.7850   -1.3990 H       1  UNL1        0.2960
      6  C          6.7450   -1.5050    1.2650 C.3     1  UNL1        0.0470
      7  C          6.1900   -0.2230    0.7580 C.2     1  UNL1       -0.0470
      8  C          6.4230    0.1940   -0.5380 C.2     1  UNL1        0.0040
      9  C          5.4180    0.6080    1.5480 C.2     1  UNL1        0.0040
     10  C          5.9020    1.3880   -0.9990 C.2     1  UNL1        0.0000
     11  C          4.8980    1.7980    1.0910 C.2     1  UNL1        0.0000
     12  C          5.1330    2.2130   -0.2040 C.2     1  UNL1        0.0000
@<TRIPOS>BOND
     1     5     4    1
     2     4     2    1
     3    10     8    1
     4    10    12    2
     5     8     7    2
     6    12    11    1
     7     2     3    2
     8     2     1    1
     9     7     6    1
    10     7     9    1
    11    11     9    2
    12     1     6    1
