@<TRIPOS>MOLECULE
/home/cewinharhar/GITHUB/reincatalyze/data/processed/docking_pred/2023-Apr-25-2033_maxeplen5_maxtrainstep200_exh16_gamma099_lrac3e-4_lrcr1e-3/d4292dbdc665c4d20b6271b363b9823f318ec372_ligand_2.pdbqt
 12 12 0 0 0
SMALL
GASTEIGER

@<TRIPOS>ATOM
      1  C          8.4220   -0.5420   -2.2440 C.3     1  UNL1        0.1270
      2  C          8.4490   -1.8610   -2.9290 C.2     1  UNL1        0.3030
      3  O          9.5470   -2.4470   -3.0850 O.2     1  UNL1       -0.2520
      4  O          7.2960   -2.4770   -3.4090 O.3     1  UNL1       -0.4810
      5  H          6.5540   -1.9450   -3.8890 H       1  UNL1        0.2960
      6  C          6.9920   -0.0800   -2.2080 C.3     1  UNL1        0.0470
      7  C          6.4730    0.0520   -0.8220 C.2     1  UNL1       -0.0470
      8  C          6.6060   -0.9750    0.0930 C.2     1  UNL1        0.0040
      9  C          5.8380    1.1980   -0.3800 C.2     1  UNL1        0.0040
     10  C          6.1190   -0.8420    1.3790 C.2     1  UNL1        0.0000
     11  C          5.3520    1.3330    0.9020 C.2     1  UNL1        0.0000
     12  C          5.4860    0.3050    1.8130 C.2     1  UNL1        0.0000
@<TRIPOS>BOND
     1     5     4    1
     2     4     2    1
     3     3     2    2
     4     2     1    1
     5     1     6    1
     6     6     7    1
     7     7     9    2
     8     7     8    1
     9     9    11    1
    10     8    10    2
    11    11    12    2
    12    10    12    1
