MODEL 1
REMARK VINA RESULT:      -7.3      0.000      0.000
REMARK SMILES O=C(O)CCc1ccccc1
REMARK SMILES IDX 4 1 2 2 1 3 3 4 5 6 6 7 7 8 11 9 8 10 10 11 9 12
REMARK H PARENT 3 5
REMARK Flexibility Score: inf
ROOT
ATOM      1  C   UNL     1       8.422  -0.542  -2.244  1.00  0.00     0.127 C 
ENDROOT
BRANCH   1   2
ATOM      2  C   UNL     1       8.449  -1.861  -2.929  1.00  0.00     0.303 C 
ATOM      3  O   UNL     1       9.547  -2.447  -3.085  1.00  0.00    -0.252 OA
BRANCH   2   4
ATOM      4  O   UNL     1       7.296  -2.477  -3.409  1.00  0.00    -0.481 OA
ATOM      5  H   UNL     1       6.554  -1.945  -3.889  1.00  0.00     0.296 HD
ENDBRANCH   2   4
ENDBRANCH   1   2
BRANCH   1   6
ATOM      6  C   UNL     1       6.992  -0.080  -2.208  1.00  0.00     0.047 C 
BRANCH   6   7
ATOM      7  C   UNL     1       6.473   0.052  -0.822  1.00  0.00    -0.047 A 
ATOM      8  C   UNL     1       6.606  -0.975   0.093  1.00  0.00     0.004 A 
ATOM      9  C   UNL     1       5.838   1.198  -0.380  1.00  0.00     0.004 A 
ATOM     10  C   UNL     1       6.119  -0.842   1.379  1.00  0.00     0.000 A 
ATOM     11  C   UNL     1       5.352   1.333   0.902  1.00  0.00     0.000 A 
ATOM     12  C   UNL     1       5.486   0.305   1.813  1.00  0.00     0.000 A 
ENDBRANCH   6   7
ENDBRANCH   1   6
TORSDOF 4
ENDMDL
MODEL 2
REMARK VINA RESULT:      -7.2      0.109      1.718
REMARK SMILES O=C(O)CCc1ccccc1
REMARK SMILES IDX 4 1 2 2 1 3 3 4 5 6 6 7 7 8 11 9 8 10 10 11 9 12
REMARK H PARENT 3 5
REMARK Flexibility Score: inf
ROOT
ATOM      1  C   UNL     1       8.435  -0.604  -2.153  1.00  0.00     0.127 C 
ENDROOT
BRANCH   1   2
ATOM      2  C   UNL     1       8.422  -1.893  -2.892  1.00  0.00     0.303 C 
ATOM      3  O   UNL     1       7.321  -2.410  -3.202  1.00  0.00    -0.252 OA
BRANCH   2   4
ATOM      4  O   UNL     1       9.590  -2.557  -3.258  1.00  0.00    -0.481 OA
ATOM      5  H   UNL     1       9.645  -3.587  -3.285  1.00  0.00     0.296 HD
ENDBRANCH   2   4
ENDBRANCH   1   2
BRANCH   1   6
ATOM      6  C   UNL     1       7.029  -0.072  -2.145  1.00  0.00     0.047 C 
BRANCH   6   7
ATOM      7  C   UNL     1       6.479   0.060  -0.771  1.00  0.00    -0.047 A 
ATOM      8  C   UNL     1       5.832   1.212  -0.367  1.00  0.00     0.004 A 
ATOM      9  C   UNL     1       6.586  -0.953   0.164  1.00  0.00     0.004 A 
ATOM     10  C   UNL     1       5.325   1.324   0.914  1.00  0.00     0.000 A 
ATOM     11  C   UNL     1       6.081  -0.843   1.441  1.00  0.00     0.000 A 
ATOM     12  C   UNL     1       5.435   0.309   1.842  1.00  0.00     0.000 A 
ENDBRANCH   6   7
ENDBRANCH   1   6
TORSDOF 4
ENDMDL
MODEL 3
REMARK VINA RESULT:      -7.0      0.650      1.880
REMARK SMILES O=C(O)CCc1ccccc1
REMARK SMILES IDX 4 1 2 2 1 3 3 4 5 6 6 7 7 8 11 9 8 10 10 11 9 12
REMARK H PARENT 3 5
REMARK Flexibility Score: inf
ROOT
ATOM      1  C   UNL     1       8.167  -0.764  -2.046  1.00  0.00     0.127 C 
ENDROOT
BRANCH   1   2
ATOM      2  C   UNL     1       8.300  -1.958  -2.921  1.00  0.00     0.303 C 
ATOM      3  O   UNL     1       7.266  -2.491  -3.391  1.00  0.00    -0.252 OA
BRANCH   2   4
ATOM      4  O   UNL     1       9.535  -2.514  -3.243  1.00  0.00    -0.481 OA
ATOM      5  H   UNL     1       9.627  -3.495  -3.549  1.00  0.00     0.296 HD
ENDBRANCH   2   4
ENDBRANCH   1   2
BRANCH   1   6
ATOM      6  C   UNL     1       7.559  -1.219  -0.749  1.00  0.00     0.047 C 
BRANCH   6   7
ATOM      7  C   UNL     1       6.647  -0.203  -0.161  1.00  0.00    -0.047 A 
ATOM      8  C   UNL     1       6.229   0.891  -0.893  1.00  0.00     0.004 A 
ATOM      9  C   UNL     1       6.174  -0.300   1.134  1.00  0.00     0.004 A 
ATOM     10  C   UNL     1       5.381   1.831  -0.338  1.00  0.00     0.000 A 
ATOM     11  C   UNL     1       5.329   0.634   1.690  1.00  0.00     0.000 A 
ATOM     12  C   UNL     1       4.914   1.727   0.956  1.00  0.00     0.000 A 
ENDBRANCH   6   7
ENDBRANCH   1   6
TORSDOF 4
ENDMDL
MODEL 4
REMARK VINA RESULT:      -6.7      3.388      5.072
REMARK SMILES O=C(O)CCc1ccccc1
REMARK SMILES IDX 4 1 2 2 1 3 3 4 5 6 6 7 7 8 11 9 8 10 10 11 9 12
REMARK H PARENT 3 5
REMARK Flexibility Score: inf
ROOT
ATOM      1  C   UNL     1       4.983   1.807   0.705  1.00  0.00     0.127 C 
ENDROOT
BRANCH   1   2
ATOM      2  C   UNL     1       4.469   1.133   1.926  1.00  0.00     0.303 C 
ATOM      3  O   UNL     1       5.170   0.252   2.480  1.00  0.00    -0.252 OA
BRANCH   2   4
ATOM      4  O   UNL     1       3.232   1.443   2.486  1.00  0.00    -0.481 OA
ATOM      5  H   UNL     1       2.736   0.785   3.107  1.00  0.00     0.296 HD
ENDBRANCH   2   4
ENDBRANCH   1   2
BRANCH   1   6
ATOM      6  C   UNL     1       6.484   1.822   0.794  1.00  0.00     0.047 C 
BRANCH   6   7
ATOM      7  C   UNL     1       7.125   1.062  -0.311  1.00  0.00    -0.047 A 
ATOM      8  C   UNL     1       6.411   0.145  -1.058  1.00  0.00     0.004 A 
ATOM      9  C   UNL     1       8.456   1.232  -0.644  1.00  0.00     0.004 A 
ATOM     10  C   UNL     1       7.018  -0.556  -2.082  1.00  0.00     0.000 A 
ATOM     11  C   UNL     1       9.063   0.534  -1.665  1.00  0.00     0.000 A 
ATOM     12  C   UNL     1       8.347  -0.381  -2.409  1.00  0.00     0.000 A 
ENDBRANCH   6   7
ENDBRANCH   1   6
TORSDOF 4
ENDMDL
MODEL 5
REMARK VINA RESULT:      -6.5      1.881      2.842
REMARK SMILES O=C(O)CCc1ccccc1
REMARK SMILES IDX 4 1 2 2 1 3 3 4 5 6 6 7 7 8 11 9 8 10 10 11 9 12
REMARK H PARENT 3 5
REMARK Flexibility Score: inf
ROOT
ATOM      1  C   UNL     1       8.237  -1.593   1.094  1.00  0.00     0.127 C 
ENDROOT
BRANCH   1   2
ATOM      2  C   UNL     1       8.524  -2.806   0.285  1.00  0.00     0.303 C 
ATOM      3  O   UNL     1       9.147  -3.759   0.811  1.00  0.00    -0.252 OA
BRANCH   2   4
ATOM      4  O   UNL     1       8.126  -2.929  -1.044  1.00  0.00    -0.481 OA
ATOM      5  H   UNL     1       7.672  -3.785  -1.399  1.00  0.00     0.296 HD
ENDBRANCH   2   4
ENDBRANCH   1   2
BRANCH   1   6
ATOM      6  C   UNL     1       6.745  -1.505   1.265  1.00  0.00     0.047 C 
BRANCH   6   7
ATOM      7  C   UNL     1       6.190  -0.223   0.758  1.00  0.00    -0.047 A 
ATOM      8  C   UNL     1       6.423   0.194  -0.538  1.00  0.00     0.004 A 
ATOM      9  C   UNL     1       5.418   0.608   1.548  1.00  0.00     0.004 A 
ATOM     10  C   UNL     1       5.902   1.388  -0.999  1.00  0.00     0.000 A 
ATOM     11  C   UNL     1       4.898   1.798   1.091  1.00  0.00     0.000 A 
ATOM     12  C   UNL     1       5.133   2.213  -0.204  1.00  0.00     0.000 A 
ENDBRANCH   6   7
ENDBRANCH   1   6
TORSDOF 4
ENDMDL
