MODEL 1
REMARK VINA RESULT:      -7.3      0.000      0.000
REMARK SMILES O=C(O)CCc1ccccc1
REMARK SMILES IDX 4 1 2 2 1 3 3 4 5 6 6 7 7 8 11 9 8 10 10 11 9 12
REMARK H PARENT 3 5
REMARK Flexibility Score: inf
ROOT
ATOM      1  C   UNL     1       8.461  -0.620  -2.150  1.00  0.00     0.127 C 
ENDROOT
BRANCH   1   2
ATOM      2  C   UNL     1       8.463  -1.898  -2.907  1.00  0.00     0.303 C 
ATOM      3  O   UNL     1       9.550  -2.498  -3.093  1.00  0.00    -0.252 OA
BRANCH   2   4
ATOM      4  O   UNL     1       7.299  -2.464  -3.421  1.00  0.00    -0.481 OA
ATOM      5  H   UNL     1       6.364  -2.109  -3.170  1.00  0.00     0.296 HD
ENDBRANCH   2   4
ENDBRANCH   1   2
BRANCH   1   6
ATOM      6  C   UNL     1       7.051  -0.098  -2.146  1.00  0.00     0.047 C 
BRANCH   6   7
ATOM      7  C   UNL     1       6.499   0.035  -0.772  1.00  0.00    -0.047 A 
ATOM      8  C   UNL     1       6.604  -0.993   0.144  1.00  0.00     0.004 A 
ATOM      9  C   UNL     1       5.861   1.184  -0.344  1.00  0.00     0.004 A 
ATOM     10  C   UNL     1       6.088  -0.858   1.419  1.00  0.00     0.000 A 
ATOM     11  C   UNL     1       5.345   1.321   0.926  1.00  0.00     0.000 A 
ATOM     12  C   UNL     1       5.451   0.292   1.839  1.00  0.00     0.000 A 
ENDBRANCH   6   7
ENDBRANCH   1   6
TORSDOF 4
ENDMDL
MODEL 2
REMARK VINA RESULT:      -7.2      0.097      1.718
REMARK SMILES O=C(O)CCc1ccccc1
REMARK SMILES IDX 4 1 2 2 1 3 3 4 5 6 6 7 7 8 11 9 8 10 10 11 9 12
REMARK H PARENT 3 5
REMARK Flexibility Score: inf
ROOT
ATOM      1  C   UNL     1       8.417  -0.565  -2.209  1.00  0.00     0.127 C 
ENDROOT
BRANCH   1   2
ATOM      2  C   UNL     1       8.390  -1.878  -2.906  1.00  0.00     0.303 C 
ATOM      3  O   UNL     1       7.285  -2.386  -3.211  1.00  0.00    -0.252 OA
BRANCH   2   4
ATOM      4  O   UNL     1       9.551  -2.572  -3.236  1.00  0.00    -0.481 OA
ATOM      5  H   UNL     1       9.983  -2.498  -4.170  1.00  0.00     0.296 HD
ENDBRANCH   2   4
ENDBRANCH   1   2
BRANCH   1   6
ATOM      6  C   UNL     1       7.007  -0.043  -2.175  1.00  0.00     0.047 C 
BRANCH   6   7
ATOM      7  C   UNL     1       6.477   0.069  -0.790  1.00  0.00    -0.047 A 
ATOM      8  C   UNL     1       5.839   1.215  -0.359  1.00  0.00     0.004 A 
ATOM      9  C   UNL     1       6.594  -0.959   0.127  1.00  0.00     0.004 A 
ATOM     10  C   UNL     1       5.350   1.309   0.930  1.00  0.00     0.000 A 
ATOM     11  C   UNL     1       6.107  -0.869   1.412  1.00  0.00     0.000 A 
ATOM     12  C   UNL     1       5.470   0.279   1.840  1.00  0.00     0.000 A 
ENDBRANCH   6   7
ENDBRANCH   1   6
TORSDOF 4
ENDMDL
MODEL 3
REMARK VINA RESULT:      -6.9      0.682      1.864
REMARK SMILES O=C(O)CCc1ccccc1
REMARK SMILES IDX 4 1 2 2 1 3 3 4 5 6 6 7 7 8 11 9 8 10 10 11 9 12
REMARK H PARENT 3 5
REMARK Flexibility Score: inf
ROOT
ATOM      1  C   UNL     1       8.426  -0.728  -2.029  1.00  0.00     0.127 C 
ENDROOT
BRANCH   1   2
ATOM      2  C   UNL     1       8.411  -1.949  -2.876  1.00  0.00     0.303 C 
ATOM      3  O   UNL     1       7.310  -2.427  -3.242  1.00  0.00    -0.252 OA
BRANCH   2   4
ATOM      4  O   UNL     1       9.578  -2.589  -3.286  1.00  0.00    -0.481 OA
ATOM      5  H   UNL     1      10.069  -3.265  -2.681  1.00  0.00     0.296 HD
ENDBRANCH   2   4
ENDBRANCH   1   2
BRANCH   1   6
ATOM      6  C   UNL     1       7.976  -1.129  -0.651  1.00  0.00     0.047 C 
BRANCH   6   7
ATOM      7  C   UNL     1       6.951  -0.205  -0.098  1.00  0.00    -0.047 A 
ATOM      8  C   UNL     1       6.416   0.812  -0.865  1.00  0.00     0.004 A 
ATOM      9  C   UNL     1       6.484  -0.316   1.198  1.00  0.00     0.004 A 
ATOM     10  C   UNL     1       5.464   1.665  -0.341  1.00  0.00     0.000 A 
ATOM     11  C   UNL     1       5.535   0.533   1.723  1.00  0.00     0.000 A 
ATOM     12  C   UNL     1       5.003   1.549   0.955  1.00  0.00     0.000 A 
ENDBRANCH   6   7
ENDBRANCH   1   6
TORSDOF 4
ENDMDL
MODEL 4
REMARK VINA RESULT:      -6.8      3.386      5.109
REMARK SMILES O=C(O)CCc1ccccc1
REMARK SMILES IDX 4 1 2 2 1 3 3 4 5 6 6 7 7 8 11 9 8 10 10 11 9 12
REMARK H PARENT 3 5
REMARK Flexibility Score: inf
ROOT
ATOM      1  C   UNL     1       5.003   1.787   0.718  1.00  0.00     0.127 C 
ENDROOT
BRANCH   1   2
ATOM      2  C   UNL     1       4.460   1.117   1.928  1.00  0.00     0.303 C 
ATOM      3  O   UNL     1       5.131   0.211   2.480  1.00  0.00    -0.252 OA
BRANCH   2   4
ATOM      4  O   UNL     1       3.227   1.455   2.480  1.00  0.00    -0.481 OA
ATOM      5  H   UNL     1       2.887   1.028   3.355  1.00  0.00     0.296 HD
ENDBRANCH   2   4
ENDBRANCH   1   2
BRANCH   1   6
ATOM      6  C   UNL     1       6.503   1.753   0.817  1.00  0.00     0.047 C 
BRANCH   6   7
ATOM      7  C   UNL     1       7.130   1.003  -0.303  1.00  0.00    -0.047 A 
ATOM      8  C   UNL     1       8.443   1.227  -0.667  1.00  0.00     0.004 A 
ATOM      9  C   UNL     1       6.437   0.052  -1.029  1.00  0.00     0.004 A 
ATOM     10  C   UNL     1       9.016   0.524  -1.710  1.00  0.00     0.000 A 
ATOM     11  C   UNL     1       7.006  -0.649  -2.069  1.00  0.00     0.000 A 
ATOM     12  C   UNL     1       8.318  -0.423  -2.432  1.00  0.00     0.000 A 
ENDBRANCH   6   7
ENDBRANCH   1   6
TORSDOF 4
ENDMDL
MODEL 5
REMARK VINA RESULT:      -6.6      2.015      2.752
REMARK SMILES O=C(O)CCc1ccccc1
REMARK SMILES IDX 4 1 2 2 1 3 3 4 5 6 6 7 7 8 11 9 8 10 10 11 9 12
REMARK H PARENT 3 5
REMARK Flexibility Score: inf
ROOT
ATOM      1  C   UNL     1       7.990  -2.198   0.824  1.00  0.00     0.127 C 
ENDROOT
BRANCH   1   2
ATOM      2  C   UNL     1       8.765  -3.360   0.318  1.00  0.00     0.303 C 
ATOM      3  O   UNL     1       9.630  -3.889   1.058  1.00  0.00    -0.252 OA
BRANCH   2   4
ATOM      4  O   UNL     1       8.570  -3.891  -0.954  1.00  0.00    -0.481 OA
ATOM      5  H   UNL     1       9.143  -4.671  -1.312  1.00  0.00     0.296 HD
ENDBRANCH   2   4
ENDBRANCH   1   2
BRANCH   1   6
ATOM      6  C   UNL     1       7.390  -1.501  -0.365  1.00  0.00     0.047 C 
BRANCH   6   7
ATOM      7  C   UNL     1       6.552  -0.336   0.022  1.00  0.00    -0.047 A 
ATOM      8  C   UNL     1       6.298   0.690  -0.867  1.00  0.00     0.004 A 
ATOM      9  C   UNL     1       5.990  -0.221   1.280  1.00  0.00     0.004 A 
ATOM     10  C   UNL     1       5.517   1.768  -0.496  1.00  0.00     0.000 A 
ATOM     11  C   UNL     1       5.212   0.853   1.652  1.00  0.00     0.000 A 
ATOM     12  C   UNL     1       4.959   1.877   0.761  1.00  0.00     0.000 A 
ENDBRANCH   6   7
ENDBRANCH   1   6
TORSDOF 4
ENDMDL
