@<TRIPOS>MOLECULE
/home/cewinharhar/GITHUB/reincatalyze/data/processed/docking_pred/2023-Apr-25-2033_maxeplen5_maxtrainstep200_exh16_gamma099_lrac3e-4_lrcr1e-3/d68da6ca94917019a71bc3feefe4e6b6d631e6ad_ligand_2.pdbqt
 12 12 0 0 0
SMALL
GASTEIGER

@<TRIPOS>ATOM
      1  C          7.9900   -2.1980    0.8240 C.3     1  UNL1        0.1270
      2  C          8.7650   -3.3600    0.3180 C.2     1  UNL1        0.3030
      3  O          9.6300   -3.8890    1.0580 O.2     1  UNL1       -0.2520
      4  O          8.5700   -3.8910   -0.9540 O.3     1  UNL1       -0.4810
      5  H          9.1430   -4.6710   -1.3120 H       1  UNL1        0.2960
      6  C          7.3900   -1.5010   -0.3650 C.3     1  UNL1        0.0470
      7  C          6.5520   -0.3360    0.0220 C.2     1  UNL1       -0.0470
      8  C          6.2980    0.6900   -0.8670 C.2     1  UNL1        0.0040
      9  C          5.9900   -0.2210    1.2800 C.2     1  UNL1        0.0040
     10  C          5.5170    1.7680   -0.4960 C.2     1  UNL1        0.0000
     11  C          5.2120    0.8530    1.6520 C.2     1  UNL1        0.0000
     12  C          4.9590    1.8770    0.7610 C.2     1  UNL1        0.0000
@<TRIPOS>BOND
     1     5     4    1
     2     4     2    1
     3     8    10    1
     4     8     7    2
     5    10    12    2
     6     6     7    1
     7     6     1    1
     8     7     9    1
     9     2     1    1
    10     2     3    2
    11    12    11    1
    12     9    11    2
