@<TRIPOS>MOLECULE
/home/cewinharhar/GITHUB/reincatalyze/data/processed/docking_pred/2023-Apr-25-2033_maxeplen5_maxtrainstep200_exh16_gamma099_lrac3e-4_lrcr1e-3/d68da6ca94917019a71bc3feefe4e6b6d631e6ad_ligand_2.pdbqt
 12 12 0 0 0
SMALL
GASTEIGER

@<TRIPOS>ATOM
      1  C          8.4260   -0.7280   -2.0290 C.3     1  UNL1        0.1270
      2  C          8.4110   -1.9490   -2.8760 C.2     1  UNL1        0.3030
      3  O          7.3100   -2.4270   -3.2420 O.2     1  UNL1       -0.2520
      4  O          9.5780   -2.5890   -3.2860 O.3     1  UNL1       -0.4810
      5  H         10.0690   -3.2650   -2.6810 H       1  UNL1        0.2960
      6  C          7.9760   -1.1290   -0.6510 C.3     1  UNL1        0.0470
      7  C          6.9510   -0.2050   -0.0980 C.2     1  UNL1       -0.0470
      8  C          6.4160    0.8120   -0.8650 C.2     1  UNL1        0.0040
      9  C          6.4840   -0.3160    1.1980 C.2     1  UNL1        0.0040
     10  C          5.4640    1.6650   -0.3410 C.2     1  UNL1        0.0000
     11  C          5.5350    0.5330    1.7230 C.2     1  UNL1        0.0000
     12  C          5.0030    1.5490    0.9550 C.2     1  UNL1        0.0000
@<TRIPOS>BOND
     1     4     2    1
     2     4     5    1
     3     3     2    2
     4     2     1    1
     5     1     6    1
     6     8    10    1
     7     8     7    2
     8     6     7    1
     9    10    12    2
    10     7     9    1
    11    12    11    1
    12     9    11    2
