@<TRIPOS>MOLECULE
/home/cewinharhar/GITHUB/reincatalyze/data/processed/docking_pred/2023-Apr-25-2033_maxeplen5_maxtrainstep200_exh16_gamma099_lrac3e-4_lrcr1e-3/d68da6ca94917019a71bc3feefe4e6b6d631e6ad_ligand_2.pdbqt
 12 12 0 0 0
SMALL
GASTEIGER

@<TRIPOS>ATOM
      1  C          5.0030    1.7870    0.7180 C.3     1  UNL1        0.1270
      2  C          4.4600    1.1170    1.9280 C.2     1  UNL1        0.3030
      3  O          5.1310    0.2110    2.4800 O.2     1  UNL1       -0.2520
      4  O          3.2270    1.4550    2.4800 O.3     1  UNL1       -0.4810
      5  H          2.8870    1.0280    3.3550 H       1  UNL1        0.2960
      6  C          6.5030    1.7530    0.8170 C.3     1  UNL1        0.0470
      7  C          7.1300    1.0030   -0.3030 C.2     1  UNL1       -0.0470
      8  C          8.4430    1.2270   -0.6670 C.2     1  UNL1        0.0040
      9  C          6.4370    0.0520   -1.0290 C.2     1  UNL1        0.0040
     10  C          9.0160    0.5240   -1.7100 C.2     1  UNL1        0.0000
     11  C          7.0060   -0.6490   -2.0690 C.2     1  UNL1        0.0000
     12  C          8.3180   -0.4230   -2.4320 C.2     1  UNL1        0.0000
@<TRIPOS>BOND
     1    12    11    2
     2    12    10    1
     3    11     9    1
     4    10     8    2
     5     9     7    2
     6     8     7    1
     7     7     6    1
     8     1     6    1
     9     1     2    1
    10     2     3    2
    11     2     4    1
    12     4     5    1
