@<TRIPOS>MOLECULE
/home/cewinharhar/GITHUB/reincatalyze/data/processed/docking_pred/2023-Apr-25-2033_maxeplen5_maxtrainstep200_exh16_gamma099_lrac3e-4_lrcr1e-3/d68da6ca94917019a71bc3feefe4e6b6d631e6ad_ligand_2.pdbqt
 12 12 0 0 0
SMALL
GASTEIGER

@<TRIPOS>ATOM
      1  C          8.4610   -0.6200   -2.1500 C.3     1  UNL1        0.1270
      2  C          8.4630   -1.8980   -2.9070 C.2     1  UNL1        0.3030
      3  O          9.5500   -2.4980   -3.0930 O.2     1  UNL1       -0.2520
      4  O          7.2990   -2.4640   -3.4210 O.3     1  UNL1       -0.4810
      5  H          6.3640   -2.1090   -3.1700 H       1  UNL1        0.2960
      6  C          7.0510   -0.0980   -2.1460 C.3     1  UNL1        0.0470
      7  C          6.4990    0.0350   -0.7720 C.2     1  UNL1       -0.0470
      8  C          6.6040   -0.9930    0.1440 C.2     1  UNL1        0.0040
      9  C          5.8610    1.1840   -0.3440 C.2     1  UNL1        0.0040
     10  C          6.0880   -0.8580    1.4190 C.2     1  UNL1        0.0000
     11  C          5.3450    1.3210    0.9260 C.2     1  UNL1        0.0000
     12  C          5.4510    0.2920    1.8390 C.2     1  UNL1        0.0000
@<TRIPOS>BOND
     1     4     5    1
     2     4     2    1
     3     3     2    2
     4     2     1    1
     5     1     6    1
     6     6     7    1
     7     7     9    2
     8     7     8    1
     9     9    11    1
    10     8    10    2
    11    11    12    2
    12    10    12    1
