@<TRIPOS>MOLECULE
/home/cewinharhar/GITHUB/reincatalyze/data/processed/docking_pred/2023-Apr-25-2033_maxeplen5_maxtrainstep200_exh16_gamma099_lrac3e-4_lrcr1e-3/db57195a81496af8cffcd6b4d9524a1fe0637e4f_ligand_2.pdbqt
 12 12 0 0 0
SMALL
GASTEIGER

@<TRIPOS>ATOM
      1  C          8.2800    0.0410   -2.1910 C.3     1  UNL1        0.1270
      2  C          9.3850    0.2920   -1.2310 C.2     1  UNL1        0.3030
      3  O          9.4660   -0.4090   -0.1930 O.2     1  UNL1       -0.2520
      4  O         10.3430    1.2820   -1.4360 O.3     1  UNL1       -0.4810
      5  H         10.1040    2.2850   -1.4070 H       1  UNL1        0.2960
      6  C          7.2110   -0.7250   -1.4620 C.3     1  UNL1        0.0470
      7  C          6.4000    0.1430   -0.5680 C.2     1  UNL1       -0.0470
      8  C          5.8860    1.3460   -1.0130 C.2     1  UNL1        0.0040
      9  C          6.1210   -0.2050    0.7400 C.2     1  UNL1        0.0040
     10  C          5.1330    2.1450   -0.1740 C.2     1  UNL1        0.0000
     11  C          5.3720    0.5900    1.5790 C.2     1  UNL1        0.0000
     12  C          4.8590    1.7910    1.1320 C.2     1  UNL1        0.0000
@<TRIPOS>BOND
     1     1     6    1
     2     1     2    1
     3     6     7    1
     4     4     5    1
     5     4     2    1
     6     2     3    2
     7     8     7    2
     8     8    10    1
     9     7     9    1
    10    10    12    2
    11     9    11    2
    12    12    11    1
