@<TRIPOS>MOLECULE
/home/cewinharhar/GITHUB/reincatalyze/data/processed/docking_pred/2023-Apr-25-2033_maxeplen5_maxtrainstep200_exh16_gamma099_lrac3e-4_lrcr1e-3/db57195a81496af8cffcd6b4d9524a1fe0637e4f_ligand_2.pdbqt
 12 12 0 0 0
SMALL
GASTEIGER

@<TRIPOS>ATOM
      1  C          8.4050   -0.6010   -2.1660 C.3     1  UNL1        0.1270
      2  C          8.3900   -1.8990   -2.8890 C.2     1  UNL1        0.3030
      3  O          7.2890   -2.3990   -3.2250 O.2     1  UNL1       -0.2520
      4  O          9.5550   -2.5880   -3.2130 O.3     1  UNL1       -0.4810
      5  H         10.0130   -2.4820   -4.1310 H       1  UNL1        0.2960
      6  C          6.9970   -0.0740   -2.1510 C.3     1  UNL1        0.0470
      7  C          6.4590    0.0680   -0.7730 C.2     1  UNL1       -0.0470
      8  C          6.5860   -0.9490    0.1530 C.2     1  UNL1        0.0040
      9  C          5.8110    1.2140   -0.3510 C.2     1  UNL1        0.0040
     10  C          6.0810   -0.8070    1.4310 C.2     1  UNL1        0.0000
     11  C          5.3070    1.3580    0.9230 C.2     1  UNL1        0.0000
     12  C          5.4350    0.3400    1.8460 C.2     1  UNL1        0.0000
@<TRIPOS>BOND
     1     5     4    1
     2     3     2    2
     3     4     2    1
     4     2     1    1
     5     1     6    1
     6     6     7    1
     7     7     9    2
     8     7     8    1
     9     9    11    1
    10     8    10    2
    11    11    12    2
    12    10    12    1
