@<TRIPOS>MOLECULE
/home/cewinharhar/GITHUB/reincatalyze/data/processed/docking_pred/2023-Apr-25-2033_maxeplen5_maxtrainstep200_exh16_gamma099_lrac3e-4_lrcr1e-3/db57195a81496af8cffcd6b4d9524a1fe0637e4f_ligand_2.pdbqt
 12 12 0 0 0
SMALL
GASTEIGER

@<TRIPOS>ATOM
      1  C          8.3470   -1.0340   -1.6920 C.3     1  UNL1        0.1270
      2  C          8.3810   -2.0370   -2.7890 C.2     1  UNL1        0.3030
      3  O          7.3000   -2.4420   -3.2810 O.2     1  UNL1       -0.2520
      4  O          9.5710   -2.5490   -3.2970 O.3     1  UNL1       -0.4810
      5  H          9.8960   -2.3270   -4.2510 H       1  UNL1        0.2960
      6  C          7.3350   -1.5000   -0.6830 C.3     1  UNL1        0.0470
      7  C          6.5310   -0.3800   -0.1270 C.2     1  UNL1       -0.0470
      8  C          6.0680   -0.4090    1.1740 C.2     1  UNL1        0.0040
      9  C          6.2100    0.7380   -0.8750 C.2     1  UNL1        0.0040
     10  C          5.3220    0.6380    1.6820 C.2     1  UNL1        0.0000
     11  C          5.4670    1.7820   -0.3720 C.2     1  UNL1        0.0000
     12  C          5.0050    1.7500    0.9290 C.2     1  UNL1        0.0000
@<TRIPOS>BOND
     1     5     4    1
     2     4     2    1
     3     3     2    2
     4     2     1    1
     5     1     6    1
     6     9    11    1
     7     9     7    2
     8     6     7    1
     9    11    12    2
    10     7     8    1
    11    12    10    1
    12     8    10    2
