@<TRIPOS>MOLECULE
/home/cewinharhar/GITHUB/reincatalyze/data/processed/docking_pred/2023-Apr-25-2033_maxeplen5_maxtrainstep200_exh16_gamma099_lrac3e-4_lrcr1e-3/db57195a81496af8cffcd6b4d9524a1fe0637e4f_ligand_2.pdbqt
 12 12 0 0 0
SMALL
GASTEIGER

@<TRIPOS>ATOM
      1  C          8.4470   -0.6050   -2.1540 C.3     1  UNL1        0.1270
      2  C          8.4070   -1.9010   -2.8790 C.2     1  UNL1        0.3030
      3  O          7.2980   -2.3760   -3.2240 O.2     1  UNL1       -0.2520
      4  O          9.5590   -2.6170   -3.1950 O.3     1  UNL1       -0.4810
      5  H          9.6260   -3.1920   -4.0490 H       1  UNL1        0.2960
      6  C          7.0560   -0.0340   -2.1710 C.3     1  UNL1        0.0470
      7  C          6.4850    0.1080   -0.8060 C.2     1  UNL1       -0.0470
      8  C          5.8050    1.2500   -0.4300 C.2     1  UNL1        0.0040
      9  C          6.6020   -0.8860    0.1470 C.2     1  UNL1        0.0040
     10  C          5.2770    1.3710    0.8410 C.2     1  UNL1        0.0000
     11  C          6.0770   -0.7680    1.4150 C.2     1  UNL1        0.0000
     12  C          5.3980    0.3750    1.7880 C.2     1  UNL1        0.0000
@<TRIPOS>BOND
     1     5     4    1
     2     3     2    2
     3     4     2    1
     4     2     1    1
     5     6     1    1
     6     6     7    1
     7     7     8    2
     8     7     9    1
     9     8    10    1
    10     9    11    2
    11    10    12    2
    12    11    12    1
