@<TRIPOS>MOLECULE
/home/cewinharhar/GITHUB/reincatalyze/data/processed/docking_pred/2023-Apr-25-2033_maxeplen5_maxtrainstep200_exh16_gamma099_lrac3e-4_lrcr1e-3/db57195a81496af8cffcd6b4d9524a1fe0637e4f_ligand_2.pdbqt
 12 12 0 0 0
SMALL
GASTEIGER

@<TRIPOS>ATOM
      1  C          5.0140    1.7610    0.7150 C.3     1  UNL1        0.1270
      2  C          4.4670    1.1030    1.9300 C.2     1  UNL1        0.3030
      3  O          5.1350    0.2000    2.4900 O.2     1  UNL1       -0.2520
      4  O          3.2350    1.4500    2.4780 O.3     1  UNL1       -0.4810
      5  H          2.6890    2.2510    2.1260 H       1  UNL1        0.2960
      6  C          6.5140    1.7220    0.8150 C.3     1  UNL1        0.0470
      7  C          7.1370    0.9650   -0.3020 C.2     1  UNL1       -0.0470
      8  C          8.4420    1.2050   -0.6890 C.2     1  UNL1        0.0040
      9  C          6.4520   -0.0090   -1.0030 C.2     1  UNL1        0.0040
     10  C          9.0110    0.4960   -1.7290 C.2     1  UNL1        0.0000
     11  C          7.0170   -0.7180   -2.0400 C.2     1  UNL1        0.0000
     12  C          8.3210   -0.4750   -2.4250 C.2     1  UNL1        0.0000
@<TRIPOS>BOND
     1    12    11    2
     2    12    10    1
     3    11     9    1
     4    10     8    2
     5     9     7    2
     6     8     7    1
     7     7     6    1
     8     1     6    1
     9     1     2    1
    10     2     4    1
    11     2     3    2
    12     5     4    1
