MODEL 1
REMARK VINA RESULT:      -7.3      0.000      0.000
REMARK SMILES O=C(O)CCc1ccccc1
REMARK SMILES IDX 4 1 2 2 1 3 3 4 5 6 6 7 7 8 11 9 8 10 10 11 9 12
REMARK H PARENT 3 5
REMARK Flexibility Score: inf
ROOT
ATOM      1  C   UNL     1       8.447  -0.605  -2.154  1.00  0.00     0.127 C 
ENDROOT
BRANCH   1   2
ATOM      2  C   UNL     1       8.407  -1.901  -2.879  1.00  0.00     0.303 C 
ATOM      3  O   UNL     1       7.298  -2.376  -3.224  1.00  0.00    -0.252 OA
BRANCH   2   4
ATOM      4  O   UNL     1       9.559  -2.617  -3.195  1.00  0.00    -0.481 OA
ATOM      5  H   UNL     1       9.626  -3.192  -4.049  1.00  0.00     0.296 HD
ENDBRANCH   2   4
ENDBRANCH   1   2
BRANCH   1   6
ATOM      6  C   UNL     1       7.056  -0.034  -2.171  1.00  0.00     0.047 C 
BRANCH   6   7
ATOM      7  C   UNL     1       6.485   0.108  -0.806  1.00  0.00    -0.047 A 
ATOM      8  C   UNL     1       5.805   1.250  -0.430  1.00  0.00     0.004 A 
ATOM      9  C   UNL     1       6.602  -0.886   0.147  1.00  0.00     0.004 A 
ATOM     10  C   UNL     1       5.277   1.371   0.841  1.00  0.00     0.000 A 
ATOM     11  C   UNL     1       6.077  -0.768   1.415  1.00  0.00     0.000 A 
ATOM     12  C   UNL     1       5.398   0.375   1.788  1.00  0.00     0.000 A 
ENDBRANCH   6   7
ENDBRANCH   1   6
TORSDOF 4
ENDMDL
MODEL 2
REMARK VINA RESULT:      -7.2      0.060      1.420
REMARK SMILES O=C(O)CCc1ccccc1
REMARK SMILES IDX 4 1 2 2 1 3 3 4 5 6 6 7 7 8 11 9 8 10 10 11 9 12
REMARK H PARENT 3 5
REMARK Flexibility Score: inf
ROOT
ATOM      1  C   UNL     1       8.405  -0.601  -2.166  1.00  0.00     0.127 C 
ENDROOT
BRANCH   1   2
ATOM      2  C   UNL     1       8.390  -1.899  -2.889  1.00  0.00     0.303 C 
ATOM      3  O   UNL     1       7.289  -2.399  -3.225  1.00  0.00    -0.252 OA
BRANCH   2   4
ATOM      4  O   UNL     1       9.555  -2.588  -3.213  1.00  0.00    -0.481 OA
ATOM      5  H   UNL     1      10.013  -2.482  -4.131  1.00  0.00     0.296 HD
ENDBRANCH   2   4
ENDBRANCH   1   2
BRANCH   1   6
ATOM      6  C   UNL     1       6.997  -0.074  -2.151  1.00  0.00     0.047 C 
BRANCH   6   7
ATOM      7  C   UNL     1       6.459   0.068  -0.773  1.00  0.00    -0.047 A 
ATOM      8  C   UNL     1       6.586  -0.949   0.153  1.00  0.00     0.004 A 
ATOM      9  C   UNL     1       5.811   1.214  -0.351  1.00  0.00     0.004 A 
ATOM     10  C   UNL     1       6.081  -0.807   1.431  1.00  0.00     0.000 A 
ATOM     11  C   UNL     1       5.307   1.358   0.923  1.00  0.00     0.000 A 
ATOM     12  C   UNL     1       5.435   0.340   1.846  1.00  0.00     0.000 A 
ENDBRANCH   6   7
ENDBRANCH   1   6
TORSDOF 4
ENDMDL
MODEL 3
REMARK VINA RESULT:      -7.1      0.679      1.622
REMARK SMILES O=C(O)CCc1ccccc1
REMARK SMILES IDX 4 1 2 2 1 3 3 4 5 6 6 7 7 8 11 9 8 10 10 11 9 12
REMARK H PARENT 3 5
REMARK Flexibility Score: inf
ROOT
ATOM      1  C   UNL     1       8.347  -1.034  -1.692  1.00  0.00     0.127 C 
ENDROOT
BRANCH   1   2
ATOM      2  C   UNL     1       8.381  -2.037  -2.789  1.00  0.00     0.303 C 
ATOM      3  O   UNL     1       7.300  -2.442  -3.281  1.00  0.00    -0.252 OA
BRANCH   2   4
ATOM      4  O   UNL     1       9.571  -2.549  -3.297  1.00  0.00    -0.481 OA
ATOM      5  H   UNL     1       9.896  -2.327  -4.251  1.00  0.00     0.296 HD
ENDBRANCH   2   4
ENDBRANCH   1   2
BRANCH   1   6
ATOM      6  C   UNL     1       7.335  -1.500  -0.683  1.00  0.00     0.047 C 
BRANCH   6   7
ATOM      7  C   UNL     1       6.531  -0.380  -0.127  1.00  0.00    -0.047 A 
ATOM      8  C   UNL     1       6.068  -0.409   1.174  1.00  0.00     0.004 A 
ATOM      9  C   UNL     1       6.210   0.738  -0.875  1.00  0.00     0.004 A 
ATOM     10  C   UNL     1       5.322   0.638   1.682  1.00  0.00     0.000 A 
ATOM     11  C   UNL     1       5.467   1.782  -0.372  1.00  0.00     0.000 A 
ATOM     12  C   UNL     1       5.005   1.750   0.929  1.00  0.00     0.000 A 
ENDBRANCH   6   7
ENDBRANCH   1   6
TORSDOF 4
ENDMDL
MODEL 4
REMARK VINA RESULT:      -6.8      3.299      5.134
REMARK SMILES O=C(O)CCc1ccccc1
REMARK SMILES IDX 4 1 2 2 1 3 3 4 5 6 6 7 7 8 11 9 8 10 10 11 9 12
REMARK H PARENT 3 5
REMARK Flexibility Score: inf
ROOT
ATOM      1  C   UNL     1       5.014   1.761   0.715  1.00  0.00     0.127 C 
ENDROOT
BRANCH   1   2
ATOM      2  C   UNL     1       4.467   1.103   1.930  1.00  0.00     0.303 C 
ATOM      3  O   UNL     1       5.135   0.200   2.490  1.00  0.00    -0.252 OA
BRANCH   2   4
ATOM      4  O   UNL     1       3.235   1.450   2.478  1.00  0.00    -0.481 OA
ATOM      5  H   UNL     1       2.689   2.251   2.126  1.00  0.00     0.296 HD
ENDBRANCH   2   4
ENDBRANCH   1   2
BRANCH   1   6
ATOM      6  C   UNL     1       6.514   1.722   0.815  1.00  0.00     0.047 C 
BRANCH   6   7
ATOM      7  C   UNL     1       7.137   0.965  -0.302  1.00  0.00    -0.047 A 
ATOM      8  C   UNL     1       8.442   1.205  -0.689  1.00  0.00     0.004 A 
ATOM      9  C   UNL     1       6.452  -0.009  -1.003  1.00  0.00     0.004 A 
ATOM     10  C   UNL     1       9.011   0.496  -1.729  1.00  0.00     0.000 A 
ATOM     11  C   UNL     1       7.017  -0.718  -2.040  1.00  0.00     0.000 A 
ATOM     12  C   UNL     1       8.321  -0.475  -2.425  1.00  0.00     0.000 A 
ENDBRANCH   6   7
ENDBRANCH   1   6
TORSDOF 4
ENDMDL
MODEL 5
REMARK VINA RESULT:      -6.6      1.910      2.232
REMARK SMILES O=C(O)CCc1ccccc1
REMARK SMILES IDX 4 1 2 2 1 3 3 4 5 6 6 7 7 8 11 9 8 10 10 11 9 12
REMARK H PARENT 3 5
REMARK Flexibility Score: inf
ROOT
ATOM      1  C   UNL     1       8.280   0.041  -2.191  1.00  0.00     0.127 C 
ENDROOT
BRANCH   1   2
ATOM      2  C   UNL     1       9.385   0.292  -1.231  1.00  0.00     0.303 C 
ATOM      3  O   UNL     1       9.466  -0.409  -0.193  1.00  0.00    -0.252 OA
BRANCH   2   4
ATOM      4  O   UNL     1      10.343   1.282  -1.436  1.00  0.00    -0.481 OA
ATOM      5  H   UNL     1      10.104   2.285  -1.407  1.00  0.00     0.296 HD
ENDBRANCH   2   4
ENDBRANCH   1   2
BRANCH   1   6
ATOM      6  C   UNL     1       7.211  -0.725  -1.462  1.00  0.00     0.047 C 
BRANCH   6   7
ATOM      7  C   UNL     1       6.400   0.143  -0.568  1.00  0.00    -0.047 A 
ATOM      8  C   UNL     1       5.886   1.346  -1.013  1.00  0.00     0.004 A 
ATOM      9  C   UNL     1       6.121  -0.205   0.740  1.00  0.00     0.004 A 
ATOM     10  C   UNL     1       5.133   2.145  -0.174  1.00  0.00     0.000 A 
ATOM     11  C   UNL     1       5.372   0.590   1.579  1.00  0.00     0.000 A 
ATOM     12  C   UNL     1       4.859   1.791   1.132  1.00  0.00     0.000 A 
ENDBRANCH   6   7
ENDBRANCH   1   6
TORSDOF 4
ENDMDL
