MODEL 1
REMARK VINA RESULT:      -7.3      0.000      0.000
REMARK SMILES O=C(O)CCc1ccccc1
REMARK SMILES IDX 4 1 2 2 1 3 3 4 5 6 6 7 7 8 11 9 8 10 10 11 9 12
REMARK H PARENT 3 5
REMARK Flexibility Score: inf
ROOT
ATOM      1  C   UNL     1       8.447  -0.628  -2.123  1.00  0.00     0.127 C 
ENDROOT
BRANCH   1   2
ATOM      2  C   UNL     1       8.427  -1.902  -2.886  1.00  0.00     0.303 C 
ATOM      3  O   UNL     1       7.324  -2.403  -3.213  1.00  0.00    -0.252 OA
BRANCH   2   4
ATOM      4  O   UNL     1       9.591  -2.569  -3.258  1.00  0.00    -0.481 OA
ATOM      5  H   UNL     1      10.480  -2.069  -3.411  1.00  0.00     0.296 HD
ENDBRANCH   2   4
ENDBRANCH   1   2
BRANCH   1   6
ATOM      6  C   UNL     1       7.054  -0.063  -2.148  1.00  0.00     0.047 C 
BRANCH   6   7
ATOM      7  C   UNL     1       6.480   0.093  -0.785  1.00  0.00    -0.047 A 
ATOM      8  C   UNL     1       5.819   1.249  -0.416  1.00  0.00     0.004 A 
ATOM      9  C   UNL     1       6.577  -0.899   0.172  1.00  0.00     0.004 A 
ATOM     10  C   UNL     1       5.290   1.384   0.853  1.00  0.00     0.000 A 
ATOM     11  C   UNL     1       6.050  -0.767   1.437  1.00  0.00     0.000 A 
ATOM     12  C   UNL     1       5.391   0.389   1.804  1.00  0.00     0.000 A 
ENDBRANCH   6   7
ENDBRANCH   1   6
TORSDOF 4
ENDMDL
MODEL 2
REMARK VINA RESULT:      -7.3      0.023      1.419
REMARK SMILES O=C(O)CCc1ccccc1
REMARK SMILES IDX 4 1 2 2 1 3 3 4 5 6 6 7 7 8 11 9 8 10 10 11 9 12
REMARK H PARENT 3 5
REMARK Flexibility Score: inf
ROOT
ATOM      1  C   UNL     1       8.441  -0.639  -2.110  1.00  0.00     0.127 C 
ENDROOT
BRANCH   1   2
ATOM      2  C   UNL     1       8.417  -1.910  -2.881  1.00  0.00     0.303 C 
ATOM      3  O   UNL     1       7.313  -2.409  -3.205  1.00  0.00    -0.252 OA
BRANCH   2   4
ATOM      4  O   UNL     1       9.580  -2.575  -3.261  1.00  0.00    -0.481 OA
ATOM      5  H   UNL     1       9.975  -3.344  -2.700  1.00  0.00     0.296 HD
ENDBRANCH   2   4
ENDBRANCH   1   2
BRANCH   1   6
ATOM      6  C   UNL     1       7.049  -0.070  -2.132  1.00  0.00     0.047 C 
BRANCH   6   7
ATOM      7  C   UNL     1       6.477   0.084  -0.769  1.00  0.00    -0.047 A 
ATOM      8  C   UNL     1       6.583  -0.924   0.169  1.00  0.00     0.004 A 
ATOM      9  C   UNL     1       5.817   1.232  -0.374  1.00  0.00     0.004 A 
ATOM     10  C   UNL     1       6.048  -0.770   1.434  1.00  0.00     0.000 A 
ATOM     11  C   UNL     1       5.283   1.388   0.885  1.00  0.00     0.000 A 
ATOM     12  C   UNL     1       5.390   0.379   1.821  1.00  0.00     0.000 A 
ENDBRANCH   6   7
ENDBRANCH   1   6
TORSDOF 4
ENDMDL
MODEL 3
REMARK VINA RESULT:      -7.1      0.623      1.454
REMARK SMILES O=C(O)CCc1ccccc1
REMARK SMILES IDX 4 1 2 2 1 3 3 4 5 6 6 7 7 8 11 9 8 10 10 11 9 12
REMARK H PARENT 3 5
REMARK Flexibility Score: inf
ROOT
ATOM      1  C   UNL     1       8.325  -0.859  -1.955  1.00  0.00     0.127 C 
ENDROOT
BRANCH   1   2
ATOM      2  C   UNL     1       8.409  -2.029  -2.868  1.00  0.00     0.303 C 
ATOM      3  O   UNL     1       9.525  -2.562  -3.079  1.00  0.00    -0.252 OA
BRANCH   2   4
ATOM      4  O   UNL     1       7.291  -2.563  -3.503  1.00  0.00    -0.481 OA
ATOM      5  H   UNL     1       7.283  -2.760  -4.516  1.00  0.00     0.296 HD
ENDBRANCH   2   4
ENDBRANCH   1   2
BRANCH   1   6
ATOM      6  C   UNL     1       7.676  -1.324  -0.682  1.00  0.00     0.047 C 
BRANCH   6   7
ATOM      7  C   UNL     1       6.740  -0.314  -0.120  1.00  0.00    -0.047 A 
ATOM      8  C   UNL     1       6.342   0.781  -0.861  1.00  0.00     0.004 A 
ATOM      9  C   UNL     1       6.226  -0.420   1.159  1.00  0.00     0.004 A 
ATOM     10  C   UNL     1       5.472   1.714  -0.328  1.00  0.00     0.000 A 
ATOM     11  C   UNL     1       5.359   0.508   1.691  1.00  0.00     0.000 A 
ATOM     12  C   UNL     1       4.963   1.603   0.949  1.00  0.00     0.000 A 
ENDBRANCH   6   7
ENDBRANCH   1   6
TORSDOF 4
ENDMDL
MODEL 4
REMARK VINA RESULT:      -6.8      3.310      5.182
REMARK SMILES O=C(O)CCc1ccccc1
REMARK SMILES IDX 4 1 2 2 1 3 3 4 5 6 6 7 7 8 11 9 8 10 10 11 9 12
REMARK H PARENT 3 5
REMARK Flexibility Score: inf
ROOT
ATOM      1  C   UNL     1       5.007   1.791   0.715  1.00  0.00     0.127 C 
ENDROOT
BRANCH   1   2
ATOM      2  C   UNL     1       4.467   1.121   1.926  1.00  0.00     0.303 C 
ATOM      3  O   UNL     1       5.143   0.221   2.481  1.00  0.00    -0.252 OA
BRANCH   2   4
ATOM      4  O   UNL     1       3.232   1.454   2.476  1.00  0.00    -0.481 OA
ATOM      5  H   UNL     1       3.137   2.185   3.198  1.00  0.00     0.296 HD
ENDBRANCH   2   4
ENDBRANCH   1   2
BRANCH   1   6
ATOM      6  C   UNL     1       6.507   1.769   0.817  1.00  0.00     0.047 C 
BRANCH   6   7
ATOM      7  C   UNL     1       7.142   1.025  -0.303  1.00  0.00    -0.047 A 
ATOM      8  C   UNL     1       6.425   0.111  -1.052  1.00  0.00     0.004 A 
ATOM      9  C   UNL     1       8.467   1.208  -0.650  1.00  0.00     0.004 A 
ATOM     10  C   UNL     1       7.025  -0.575  -2.091  1.00  0.00     0.000 A 
ATOM     11  C   UNL     1       9.067   0.525  -1.685  1.00  0.00     0.000 A 
ATOM     12  C   UNL     1       8.348  -0.387  -2.431  1.00  0.00     0.000 A 
ENDBRANCH   6   7
ENDBRANCH   1   6
TORSDOF 4
ENDMDL
MODEL 5
REMARK VINA RESULT:      -6.5      2.065      2.612
REMARK SMILES O=C(O)CCc1ccccc1
REMARK SMILES IDX 4 1 2 2 1 3 3 4 5 6 6 7 7 8 11 9 8 10 10 11 9 12
REMARK H PARENT 3 5
REMARK Flexibility Score: inf
ROOT
ATOM      1  C   UNL     1       8.083  -2.126   0.789  1.00  0.00     0.127 C 
ENDROOT
BRANCH   1   2
ATOM      2  C   UNL     1       8.774  -3.348   0.303  1.00  0.00     0.303 C 
ATOM      3  O   UNL     1       9.619  -3.908   1.043  1.00  0.00    -0.252 OA
BRANCH   2   4
ATOM      4  O   UNL     1       8.521  -3.902  -0.949  1.00  0.00    -0.481 OA
ATOM      5  H   UNL     1       9.037  -4.726  -1.294  1.00  0.00     0.296 HD
ENDBRANCH   2   4
ENDBRANCH   1   2
BRANCH   1   6
ATOM      6  C   UNL     1       7.354  -1.523  -0.380  1.00  0.00     0.047 C 
BRANCH   6   7
ATOM      7  C   UNL     1       6.532  -0.347   0.008  1.00  0.00    -0.047 A 
ATOM      8  C   UNL     1       6.285   0.679  -0.883  1.00  0.00     0.004 A 
ATOM      9  C   UNL     1       5.976  -0.223   1.268  1.00  0.00     0.004 A 
ATOM     10  C   UNL     1       5.518   1.767  -0.511  1.00  0.00     0.000 A 
ATOM     11  C   UNL     1       5.212   0.861   1.641  1.00  0.00     0.000 A 
ATOM     12  C   UNL     1       4.967   1.885   0.749  1.00  0.00     0.000 A 
ENDBRANCH   6   7
ENDBRANCH   1   6
TORSDOF 4
ENDMDL
