@<TRIPOS>MOLECULE
/home/cewinharhar/GITHUB/reincatalyze/data/processed/docking_pred/2023-Apr-25-2033_maxeplen5_maxtrainstep200_exh16_gamma099_lrac3e-4_lrcr1e-3/dba3942d2f0306a5a819952336ad453bb769fd78_ligand_2.pdbqt
 12 12 0 0 0
SMALL
GASTEIGER

@<TRIPOS>ATOM
      1  C          8.3250   -0.8590   -1.9550 C.3     1  UNL1        0.1270
      2  C          8.4090   -2.0290   -2.8680 C.2     1  UNL1        0.3030
      3  O          9.5250   -2.5620   -3.0790 O.2     1  UNL1       -0.2520
      4  O          7.2910   -2.5630   -3.5030 O.3     1  UNL1       -0.4810
      5  H          7.2830   -2.7600   -4.5160 H       1  UNL1        0.2960
      6  C          7.6760   -1.3240   -0.6820 C.3     1  UNL1        0.0470
      7  C          6.7400   -0.3140   -0.1200 C.2     1  UNL1       -0.0470
      8  C          6.3420    0.7810   -0.8610 C.2     1  UNL1        0.0040
      9  C          6.2260   -0.4200    1.1590 C.2     1  UNL1        0.0040
     10  C          5.4720    1.7140   -0.3280 C.2     1  UNL1        0.0000
     11  C          5.3590    0.5080    1.6910 C.2     1  UNL1        0.0000
     12  C          4.9630    1.6030    0.9490 C.2     1  UNL1        0.0000
@<TRIPOS>BOND
     1     5     4    1
     2     4     2    1
     3     3     2    2
     4     2     1    1
     5     1     6    1
     6     8    10    1
     7     8     7    2
     8     6     7    1
     9    10    12    2
    10     7     9    1
    11    12    11    1
    12     9    11    2
