@<TRIPOS>MOLECULE
/home/cewinharhar/GITHUB/reincatalyze/data/processed/docking_pred/2023-Apr-25-2033_maxeplen5_maxtrainstep200_exh16_gamma099_lrac3e-4_lrcr1e-3/dba3942d2f0306a5a819952336ad453bb769fd78_ligand_2.pdbqt
 12 12 0 0 0
SMALL
GASTEIGER

@<TRIPOS>ATOM
      1  C          8.4470   -0.6280   -2.1230 C.3     1  UNL1        0.1270
      2  C          8.4270   -1.9020   -2.8860 C.2     1  UNL1        0.3030
      3  O          7.3240   -2.4030   -3.2130 O.2     1  UNL1       -0.2520
      4  O          9.5910   -2.5690   -3.2580 O.3     1  UNL1       -0.4810
      5  H         10.4800   -2.0690   -3.4110 H       1  UNL1        0.2960
      6  C          7.0540   -0.0630   -2.1480 C.3     1  UNL1        0.0470
      7  C          6.4800    0.0930   -0.7850 C.2     1  UNL1       -0.0470
      8  C          5.8190    1.2490   -0.4160 C.2     1  UNL1        0.0040
      9  C          6.5770   -0.8990    0.1720 C.2     1  UNL1        0.0040
     10  C          5.2900    1.3840    0.8530 C.2     1  UNL1        0.0000
     11  C          6.0500   -0.7670    1.4370 C.2     1  UNL1        0.0000
     12  C          5.3910    0.3890    1.8040 C.2     1  UNL1        0.0000
@<TRIPOS>BOND
     1     5     4    1
     2     4     2    1
     3     3     2    2
     4     2     1    1
     5     6     1    1
     6     6     7    1
     7     7     8    2
     8     7     9    1
     9     8    10    1
    10     9    11    2
    11    10    12    2
    12    11    12    1
