@<TRIPOS>MOLECULE
/home/cewinharhar/GITHUB/reincatalyze/data/processed/docking_pred/2023-Apr-25-2033_maxeplen5_maxtrainstep200_exh16_gamma099_lrac3e-4_lrcr1e-3/dba3942d2f0306a5a819952336ad453bb769fd78_ligand_2.pdbqt
 12 12 0 0 0
SMALL
GASTEIGER

@<TRIPOS>ATOM
      1  C          8.0830   -2.1260    0.7890 C.3     1  UNL1        0.1270
      2  C          8.7740   -3.3480    0.3030 C.2     1  UNL1        0.3030
      3  O          9.6190   -3.9080    1.0430 O.2     1  UNL1       -0.2520
      4  O          8.5210   -3.9020   -0.9490 O.3     1  UNL1       -0.4810
      5  H          9.0370   -4.7260   -1.2940 H       1  UNL1        0.2960
      6  C          7.3540   -1.5230   -0.3800 C.3     1  UNL1        0.0470
      7  C          6.5320   -0.3470    0.0080 C.2     1  UNL1       -0.0470
      8  C          6.2850    0.6790   -0.8830 C.2     1  UNL1        0.0040
      9  C          5.9760   -0.2230    1.2680 C.2     1  UNL1        0.0040
     10  C          5.5180    1.7670   -0.5110 C.2     1  UNL1        0.0000
     11  C          5.2120    0.8610    1.6410 C.2     1  UNL1        0.0000
     12  C          4.9670    1.8850    0.7490 C.2     1  UNL1        0.0000
@<TRIPOS>BOND
     1     5     4    1
     2     4     2    1
     3     8    10    1
     4     8     7    2
     5    10    12    2
     6     6     7    1
     7     6     1    1
     8     7     9    1
     9     2     1    1
    10     2     3    2
    11    12    11    1
    12     9    11    2
