@<TRIPOS>MOLECULE
/home/cewinharhar/GITHUB/reincatalyze/data/processed/docking_pred/2023-Apr-25-2033_maxeplen5_maxtrainstep200_exh16_gamma099_lrac3e-4_lrcr1e-3/dba3942d2f0306a5a819952336ad453bb769fd78_ligand_2.pdbqt
 12 12 0 0 0
SMALL
GASTEIGER

@<TRIPOS>ATOM
      1  C          8.4410   -0.6390   -2.1100 C.3     1  UNL1        0.1270
      2  C          8.4170   -1.9100   -2.8810 C.2     1  UNL1        0.3030
      3  O          7.3130   -2.4090   -3.2050 O.2     1  UNL1       -0.2520
      4  O          9.5800   -2.5750   -3.2610 O.3     1  UNL1       -0.4810
      5  H          9.9750   -3.3440   -2.7000 H       1  UNL1        0.2960
      6  C          7.0490   -0.0700   -2.1320 C.3     1  UNL1        0.0470
      7  C          6.4770    0.0840   -0.7690 C.2     1  UNL1       -0.0470
      8  C          6.5830   -0.9240    0.1690 C.2     1  UNL1        0.0040
      9  C          5.8170    1.2320   -0.3740 C.2     1  UNL1        0.0040
     10  C          6.0480   -0.7700    1.4340 C.2     1  UNL1        0.0000
     11  C          5.2830    1.3880    0.8850 C.2     1  UNL1        0.0000
     12  C          5.3900    0.3790    1.8210 C.2     1  UNL1        0.0000
@<TRIPOS>BOND
     1     4     2    1
     2     4     5    1
     3     3     2    2
     4     2     1    1
     5     6     1    1
     6     6     7    1
     7     7     9    2
     8     7     8    1
     9     9    11    1
    10     8    10    2
    11    11    12    2
    12    10    12    1
