@<TRIPOS>MOLECULE
/home/cewinharhar/GITHUB/reincatalyze/data/processed/docking_pred/2023-Apr-25-2033_maxeplen5_maxtrainstep200_exh16_gamma099_lrac3e-4_lrcr1e-3/dd626561b0241c753f5aa586a778cbbb50e2da15_ligand_2.pdbqt
 12 12 0 0 0
SMALL
GASTEIGER

@<TRIPOS>ATOM
      1  C          8.4560   -0.6840   -2.0310 C.3     1  UNL1        0.1270
      2  C          8.4260   -1.9190   -2.8570 C.2     1  UNL1        0.3030
      3  O          7.3180   -2.4000   -3.1980 O.2     1  UNL1       -0.2520
      4  O          9.5850   -2.5690   -3.2720 O.3     1  UNL1       -0.4810
      5  H         10.5210   -2.2570   -2.9710 H       1  UNL1        0.2960
      6  C          7.0850   -0.0700   -2.0840 C.3     1  UNL1        0.0470
      7  C          6.4820    0.0900   -0.7340 C.2     1  UNL1       -0.0470
      8  C          5.8100    1.2450   -0.3830 C.2     1  UNL1        0.0040
      9  C          6.5600   -0.9000    0.2280 C.2     1  UNL1        0.0040
     10  C          5.2540    1.3820    0.8740 C.2     1  UNL1        0.0000
     11  C          6.0050   -0.7650    1.4810 C.2     1  UNL1        0.0000
     12  C          5.3360    0.3910    1.8300 C.2     1  UNL1        0.0000
@<TRIPOS>BOND
     1     4     5    1
     2     4     2    1
     3     3     2    2
     4     2     1    1
     5     6     1    1
     6     6     7    1
     7     7     8    2
     8     7     9    1
     9     8    10    1
    10     9    11    2
    11    10    12    2
    12    11    12    1
