@<TRIPOS>MOLECULE
/home/cewinharhar/GITHUB/reincatalyze/data/processed/docking_pred/2023-Apr-25-2033_maxeplen5_maxtrainstep200_exh16_gamma099_lrac3e-4_lrcr1e-3/dd626561b0241c753f5aa586a778cbbb50e2da15_ligand_2.pdbqt
 12 12 0 0 0
SMALL
GASTEIGER

@<TRIPOS>ATOM
      1  C          8.2160    0.2420   -2.2820 C.3     1  UNL1        0.1270
      2  C          9.3440    0.3390   -1.3200 C.2     1  UNL1        0.3030
      3  O          9.3880   -0.4500   -0.3450 O.2     1  UNL1       -0.2520
      4  O         10.3630    1.2780   -1.4560 O.3     1  UNL1       -0.4810
      5  H         11.3040    1.0160   -1.7890 H       1  UNL1        0.2960
      6  C          7.1150   -0.5330   -1.6120 C.3     1  UNL1        0.0470
      7  C          6.3350    0.2990   -0.6580 C.2     1  UNL1       -0.0470
      8  C          5.8090    1.5190   -1.0370 C.2     1  UNL1        0.0040
      9  C          6.0980   -0.1020    0.6440 C.2     1  UNL1        0.0040
     10  C          5.0850    2.2840   -0.1420 C.2     1  UNL1        0.0000
     11  C          5.3780    0.6590    1.5370 C.2     1  UNL1        0.0000
     12  C          4.8530    1.8780    1.1560 C.2     1  UNL1        0.0000
@<TRIPOS>BOND
     1     1     6    1
     2     1     2    1
     3     5     4    1
     4     6     7    1
     5     4     2    1
     6     2     3    2
     7     8     7    2
     8     8    10    1
     9     7     9    1
    10    10    12    2
    11     9    11    2
    12    12    11    1
