@<TRIPOS>MOLECULE
/home/cewinharhar/GITHUB/reincatalyze/data/processed/docking_pred/2023-Apr-25-2033_maxeplen5_maxtrainstep200_exh16_gamma099_lrac3e-4_lrcr1e-3/dd626561b0241c753f5aa586a778cbbb50e2da15_ligand_2.pdbqt
 12 12 0 0 0
SMALL
GASTEIGER

@<TRIPOS>ATOM
      1  C          5.3930    2.8050    0.0400 C.3     1  UNL1        0.1270
      2  C          6.1700    3.7970    0.8290 C.2     1  UNL1        0.3030
      3  O          6.1170    3.7590    2.0820 O.2     1  UNL1       -0.2520
      4  O          6.9610    4.7740    0.2300 O.3     1  UNL1       -0.4810
      5  H          7.5220    5.4370    0.7860 H       1  UNL1        0.2960
      6  C          4.9100    1.7480    0.9940 C.3     1  UNL1        0.0470
      7  C          5.7670    0.5340    0.9780 C.2     1  UNL1       -0.0470
      8  C          6.5840    0.2490   -0.0990 C.2     1  UNL1        0.0040
      9  C          5.7920   -0.3630    2.0290 C.2     1  UNL1        0.0040
     10  C          7.3770   -0.8820   -0.1040 C.2     1  UNL1        0.0000
     11  C          6.5810   -1.4910    2.0270 C.2     1  UNL1        0.0000
     12  C          7.3960   -1.7740    0.9490 C.2     1  UNL1        0.0000
@<TRIPOS>BOND
     1    10     8    1
     2    10    12    2
     3     8     7    2
     4     1     2    1
     5     1     6    1
     6     4     5    1
     7     4     2    1
     8     2     3    2
     9    12    11    1
    10     7     6    1
    11     7     9    1
    12    11     9    2
