MODEL 1
REMARK VINA RESULT:      -7.3      0.000      0.000
REMARK SMILES O=C(O)CCc1ccccc1
REMARK SMILES IDX 4 1 2 2 1 3 3 4 5 6 6 7 7 8 11 9 8 10 10 11 9 12
REMARK H PARENT 3 5
REMARK Flexibility Score: inf
ROOT
ATOM      1  C   UNL     1       8.458  -0.616  -2.156  1.00  0.00     0.127 C 
ENDROOT
BRANCH   1   2
ATOM      2  C   UNL     1       8.465  -1.897  -2.909  1.00  0.00     0.303 C 
ATOM      3  O   UNL     1       9.554  -2.492  -3.095  1.00  0.00    -0.252 OA
BRANCH   2   4
ATOM      4  O   UNL     1       7.304  -2.471  -3.420  1.00  0.00    -0.481 OA
ATOM      5  H   UNL     1       7.030  -3.439  -3.193  1.00  0.00     0.296 HD
ENDBRANCH   2   4
ENDBRANCH   1   2
BRANCH   1   6
ATOM      6  C   UNL     1       7.045  -0.100  -2.156  1.00  0.00     0.047 C 
BRANCH   6   7
ATOM      7  C   UNL     1       6.492   0.039  -0.783  1.00  0.00    -0.047 A 
ATOM      8  C   UNL     1       6.609  -0.980   0.142  1.00  0.00     0.004 A 
ATOM      9  C   UNL     1       5.841   1.185  -0.365  1.00  0.00     0.004 A 
ATOM     10  C   UNL     1       6.091  -0.840   1.415  1.00  0.00     0.000 A 
ATOM     11  C   UNL     1       5.324   1.326   0.903  1.00  0.00     0.000 A 
ATOM     12  C   UNL     1       5.441   0.306   1.825  1.00  0.00     0.000 A 
ENDBRANCH   6   7
ENDBRANCH   1   6
TORSDOF 4
ENDMDL
MODEL 2
REMARK VINA RESULT:      -7.3      0.133      1.719
REMARK SMILES O=C(O)CCc1ccccc1
REMARK SMILES IDX 4 1 2 2 1 3 3 4 5 6 6 7 7 8 11 9 8 10 10 11 9 12
REMARK H PARENT 3 5
REMARK Flexibility Score: inf
ROOT
ATOM      1  C   UNL     1       8.456  -0.684  -2.031  1.00  0.00     0.127 C 
ENDROOT
BRANCH   1   2
ATOM      2  C   UNL     1       8.426  -1.919  -2.857  1.00  0.00     0.303 C 
ATOM      3  O   UNL     1       7.318  -2.400  -3.198  1.00  0.00    -0.252 OA
BRANCH   2   4
ATOM      4  O   UNL     1       9.585  -2.569  -3.272  1.00  0.00    -0.481 OA
ATOM      5  H   UNL     1      10.521  -2.257  -2.971  1.00  0.00     0.296 HD
ENDBRANCH   2   4
ENDBRANCH   1   2
BRANCH   1   6
ATOM      6  C   UNL     1       7.085  -0.070  -2.084  1.00  0.00     0.047 C 
BRANCH   6   7
ATOM      7  C   UNL     1       6.482   0.090  -0.734  1.00  0.00    -0.047 A 
ATOM      8  C   UNL     1       5.810   1.245  -0.383  1.00  0.00     0.004 A 
ATOM      9  C   UNL     1       6.560  -0.900   0.228  1.00  0.00     0.004 A 
ATOM     10  C   UNL     1       5.254   1.382   0.874  1.00  0.00     0.000 A 
ATOM     11  C   UNL     1       6.005  -0.765   1.481  1.00  0.00     0.000 A 
ATOM     12  C   UNL     1       5.336   0.391   1.830  1.00  0.00     0.000 A 
ENDBRANCH   6   7
ENDBRANCH   1   6
TORSDOF 4
ENDMDL
MODEL 3
REMARK VINA RESULT:      -6.8      3.377      5.103
REMARK SMILES O=C(O)CCc1ccccc1
REMARK SMILES IDX 4 1 2 2 1 3 3 4 5 6 6 7 7 8 11 9 8 10 10 11 9 12
REMARK H PARENT 3 5
REMARK Flexibility Score: inf
ROOT
ATOM      1  C   UNL     1       5.063   1.757   0.729  1.00  0.00     0.127 C 
ENDROOT
BRANCH   1   2
ATOM      2  C   UNL     1       4.487   1.096   1.929  1.00  0.00     0.303 C 
ATOM      3  O   UNL     1       5.134   0.181   2.493  1.00  0.00    -0.252 OA
BRANCH   2   4
ATOM      4  O   UNL     1       3.251   1.455   2.459  1.00  0.00    -0.481 OA
ATOM      5  H   UNL     1       2.640   0.769   2.928  1.00  0.00     0.296 HD
ENDBRANCH   2   4
ENDBRANCH   1   2
BRANCH   1   6
ATOM      6  C   UNL     1       6.560   1.662   0.834  1.00  0.00     0.047 C 
BRANCH   6   7
ATOM      7  C   UNL     1       7.162   0.914  -0.301  1.00  0.00    -0.047 A 
ATOM      8  C   UNL     1       8.448   1.179  -0.730  1.00  0.00     0.004 A 
ATOM      9  C   UNL     1       6.474  -0.077  -0.976  1.00  0.00     0.004 A 
ATOM     10  C   UNL     1       8.998   0.477  -1.786  1.00  0.00     0.000 A 
ATOM     11  C   UNL     1       7.021  -0.778  -2.028  1.00  0.00     0.000 A 
ATOM     12  C   UNL     1       8.306  -0.510  -2.456  1.00  0.00     0.000 A 
ENDBRANCH   6   7
ENDBRANCH   1   6
TORSDOF 4
ENDMDL
MODEL 4
REMARK VINA RESULT:      -6.6      1.904      2.647
REMARK SMILES O=C(O)CCc1ccccc1
REMARK SMILES IDX 4 1 2 2 1 3 3 4 5 6 6 7 7 8 11 9 8 10 10 11 9 12
REMARK H PARENT 3 5
REMARK Flexibility Score: inf
ROOT
ATOM      1  C   UNL     1       8.216   0.242  -2.282  1.00  0.00     0.127 C 
ENDROOT
BRANCH   1   2
ATOM      2  C   UNL     1       9.344   0.339  -1.320  1.00  0.00     0.303 C 
ATOM      3  O   UNL     1       9.388  -0.450  -0.345  1.00  0.00    -0.252 OA
BRANCH   2   4
ATOM      4  O   UNL     1      10.363   1.278  -1.456  1.00  0.00    -0.481 OA
ATOM      5  H   UNL     1      11.304   1.016  -1.789  1.00  0.00     0.296 HD
ENDBRANCH   2   4
ENDBRANCH   1   2
BRANCH   1   6
ATOM      6  C   UNL     1       7.115  -0.533  -1.612  1.00  0.00     0.047 C 
BRANCH   6   7
ATOM      7  C   UNL     1       6.335   0.299  -0.658  1.00  0.00    -0.047 A 
ATOM      8  C   UNL     1       5.809   1.519  -1.037  1.00  0.00     0.004 A 
ATOM      9  C   UNL     1       6.098  -0.102   0.644  1.00  0.00     0.004 A 
ATOM     10  C   UNL     1       5.085   2.284  -0.142  1.00  0.00     0.000 A 
ATOM     11  C   UNL     1       5.378   0.659   1.537  1.00  0.00     0.000 A 
ATOM     12  C   UNL     1       4.853   1.878   1.156  1.00  0.00     0.000 A 
ENDBRANCH   6   7
ENDBRANCH   1   6
TORSDOF 4
ENDMDL
MODEL 5
REMARK VINA RESULT:      -6.6      3.825      5.012
REMARK SMILES O=C(O)CCc1ccccc1
REMARK SMILES IDX 4 1 2 2 1 3 3 4 5 6 6 7 7 8 11 9 8 10 10 11 9 12
REMARK H PARENT 3 5
REMARK Flexibility Score: inf
ROOT
ATOM      1  C   UNL     1       5.393   2.805   0.040  1.00  0.00     0.127 C 
ENDROOT
BRANCH   1   2
ATOM      2  C   UNL     1       6.170   3.797   0.829  1.00  0.00     0.303 C 
ATOM      3  O   UNL     1       6.117   3.759   2.082  1.00  0.00    -0.252 OA
BRANCH   2   4
ATOM      4  O   UNL     1       6.961   4.774   0.230  1.00  0.00    -0.481 OA
ATOM      5  H   UNL     1       7.522   5.437   0.786  1.00  0.00     0.296 HD
ENDBRANCH   2   4
ENDBRANCH   1   2
BRANCH   1   6
ATOM      6  C   UNL     1       4.910   1.748   0.994  1.00  0.00     0.047 C 
BRANCH   6   7
ATOM      7  C   UNL     1       5.767   0.534   0.978  1.00  0.00    -0.047 A 
ATOM      8  C   UNL     1       6.584   0.249  -0.099  1.00  0.00     0.004 A 
ATOM      9  C   UNL     1       5.792  -0.363   2.029  1.00  0.00     0.004 A 
ATOM     10  C   UNL     1       7.377  -0.882  -0.104  1.00  0.00     0.000 A 
ATOM     11  C   UNL     1       6.581  -1.491   2.027  1.00  0.00     0.000 A 
ATOM     12  C   UNL     1       7.396  -1.774   0.949  1.00  0.00     0.000 A 
ENDBRANCH   6   7
ENDBRANCH   1   6
TORSDOF 4
ENDMDL
