@<TRIPOS>MOLECULE
/home/cewinharhar/GITHUB/reincatalyze/data/processed/docking_pred/2023-Apr-25-2033_maxeplen5_maxtrainstep200_exh16_gamma099_lrac3e-4_lrcr1e-3/dd626561b0241c753f5aa586a778cbbb50e2da15_ligand_2.pdbqt
 12 12 0 0 0
SMALL
GASTEIGER

@<TRIPOS>ATOM
      1  C          5.0630    1.7570    0.7290 C.3     1  UNL1        0.1270
      2  C          4.4870    1.0960    1.9290 C.2     1  UNL1        0.3030
      3  O          5.1340    0.1810    2.4930 O.2     1  UNL1       -0.2520
      4  O          3.2510    1.4550    2.4590 O.3     1  UNL1       -0.4810
      5  H          2.6400    0.7690    2.9280 H       1  UNL1        0.2960
      6  C          6.5600    1.6620    0.8340 C.3     1  UNL1        0.0470
      7  C          7.1620    0.9140   -0.3010 C.2     1  UNL1       -0.0470
      8  C          8.4480    1.1790   -0.7300 C.2     1  UNL1        0.0040
      9  C          6.4740   -0.0770   -0.9760 C.2     1  UNL1        0.0040
     10  C          8.9980    0.4770   -1.7860 C.2     1  UNL1        0.0000
     11  C          7.0210   -0.7780   -2.0280 C.2     1  UNL1        0.0000
     12  C          8.3060   -0.5100   -2.4560 C.2     1  UNL1        0.0000
@<TRIPOS>BOND
     1    12    11    2
     2    12    10    1
     3    11     9    1
     4    10     8    2
     5     9     7    2
     6     8     7    1
     7     7     6    1
     8     1     6    1
     9     1     2    1
    10     2     4    1
    11     2     3    2
    12     4     5    1
