@<TRIPOS>MOLECULE
/home/cewinharhar/GITHUB/reincatalyze/data/processed/docking_pred/2023-Apr-25-2033_maxeplen5_maxtrainstep200_exh16_gamma099_lrac3e-4_lrcr1e-3/dd626561b0241c753f5aa586a778cbbb50e2da15_ligand_2.pdbqt
 12 12 0 0 0
SMALL
GASTEIGER

@<TRIPOS>ATOM
      1  C          8.4580   -0.6160   -2.1560 C.3     1  UNL1        0.1270
      2  C          8.4650   -1.8970   -2.9090 C.2     1  UNL1        0.3030
      3  O          9.5540   -2.4920   -3.0950 O.2     1  UNL1       -0.2520
      4  O          7.3040   -2.4710   -3.4200 O.3     1  UNL1       -0.4810
      5  H          7.0300   -3.4390   -3.1930 H       1  UNL1        0.2960
      6  C          7.0450   -0.1000   -2.1560 C.3     1  UNL1        0.0470
      7  C          6.4920    0.0390   -0.7830 C.2     1  UNL1       -0.0470
      8  C          6.6090   -0.9800    0.1420 C.2     1  UNL1        0.0040
      9  C          5.8410    1.1850   -0.3650 C.2     1  UNL1        0.0040
     10  C          6.0910   -0.8400    1.4150 C.2     1  UNL1        0.0000
     11  C          5.3240    1.3260    0.9030 C.2     1  UNL1        0.0000
     12  C          5.4410    0.3060    1.8250 C.2     1  UNL1        0.0000
@<TRIPOS>BOND
     1     4     5    1
     2     4     2    1
     3     3     2    2
     4     2     1    1
     5     1     6    1
     6     6     7    1
     7     7     9    2
     8     7     8    1
     9     9    11    1
    10     8    10    2
    11    11    12    2
    12    10    12    1
