@<TRIPOS>MOLECULE
/home/cewinharhar/GITHUB/reincatalyze/data/processed/docking_pred/2023-Apr-25-2033_maxeplen5_maxtrainstep200_exh16_gamma099_lrac3e-4_lrcr1e-3/e1ac879641feb84a16575019a922afe40680d27c_ligand_2.pdbqt
 12 12 0 0 0
SMALL
GASTEIGER

@<TRIPOS>ATOM
      1  C          8.4240   -0.6400   -2.1120 C.3     1  UNL1        0.1270
      2  C          8.4100   -1.9140   -2.8780 C.2     1  UNL1        0.3030
      3  O          7.3090   -2.4120   -3.2190 O.2     1  UNL1       -0.2520
      4  O          9.5770   -2.5840   -3.2360 O.3     1  UNL1       -0.4810
      5  H          9.9600   -3.3520   -2.6650 H       1  UNL1        0.2960
      6  C          7.0240   -0.0900   -2.1240 C.3     1  UNL1        0.0470
      7  C          6.4610    0.0570   -0.7560 C.2     1  UNL1       -0.0470
      8  C          6.5730   -0.9560    0.1770 C.2     1  UNL1        0.0040
      9  C          5.8050    1.2040   -0.3500 C.2     1  UNL1        0.0040
     10  C          6.0460   -0.8080    1.4460 C.2     1  UNL1        0.0000
     11  C          5.2790    1.3540    0.9130 C.2     1  UNL1        0.0000
     12  C          5.3910    0.3400    1.8430 C.2     1  UNL1        0.0000
@<TRIPOS>BOND
     1     4     2    1
     2     4     5    1
     3     3     2    2
     4     2     1    1
     5     6     1    1
     6     6     7    1
     7     7     9    2
     8     7     8    1
     9     9    11    1
    10     8    10    2
    11    11    12    2
    12    10    12    1
