@<TRIPOS>MOLECULE
/home/cewinharhar/GITHUB/reincatalyze/data/processed/docking_pred/2023-Apr-25-2033_maxeplen5_maxtrainstep200_exh16_gamma099_lrac3e-4_lrcr1e-3/e1ac879641feb84a16575019a922afe40680d27c_ligand_2.pdbqt
 12 12 0 0 0
SMALL
GASTEIGER

@<TRIPOS>ATOM
      1  C          8.4500   -0.5860   -2.1750 C.3     1  UNL1        0.1270
      2  C          8.4590   -1.8760   -2.9130 C.2     1  UNL1        0.3030
      3  O          9.5480   -2.4710   -3.0930 O.2     1  UNL1       -0.2520
      4  O          7.2980   -2.4550   -3.4170 O.3     1  UNL1       -0.4810
      5  H          7.0240   -2.3530   -4.4060 H       1  UNL1        0.2960
      6  C          7.0320   -0.0860   -2.1520 C.3     1  UNL1        0.0470
      7  C          6.4970    0.0430   -0.7720 C.2     1  UNL1       -0.0470
      8  C          5.8640    1.1970   -0.3540 C.2     1  UNL1        0.0040
      9  C          6.6030   -0.9770    0.1560 C.2     1  UNL1        0.0040
     10  C          5.3710    1.3070    0.9320 C.2     1  UNL1        0.0000
     11  C          6.1120   -0.8700    1.4380 C.2     1  UNL1        0.0000
     12  C          5.4810    0.2850    1.8530 C.2     1  UNL1        0.0000
@<TRIPOS>BOND
     1     5     4    1
     2     4     2    1
     3     3     2    2
     4     2     1    1
     5     1     6    1
     6     6     7    1
     7     7     8    2
     8     7     9    1
     9     8    10    1
    10     9    11    2
    11    10    12    2
    12    11    12    1
