@<TRIPOS>MOLECULE
/home/cewinharhar/GITHUB/reincatalyze/data/processed/docking_pred/2023-Apr-25-2033_maxeplen5_maxtrainstep200_exh16_gamma099_lrac3e-4_lrcr1e-3/e1ac879641feb84a16575019a922afe40680d27c_ligand_2.pdbqt
 12 12 0 0 0
SMALL
GASTEIGER

@<TRIPOS>ATOM
      1  C          4.9900    1.7920    0.7090 C.3     1  UNL1        0.1270
      2  C          4.4630    1.1190    1.9250 C.2     1  UNL1        0.3030
      3  O          5.1480    0.2220    2.4740 O.2     1  UNL1       -0.2520
      4  O          3.2310    1.4460    2.4850 O.3     1  UNL1       -0.4810
      5  H          2.5010    1.9350    1.9450 H       1  UNL1        0.2960
      6  C          6.4910    1.7870    0.8040 C.3     1  UNL1        0.0470
      7  C          7.1280    1.0330   -0.3070 C.2     1  UNL1       -0.0470
      8  C          6.4110    0.1190   -1.0550 C.2     1  UNL1        0.0040
      9  C          8.4570    1.2070   -0.6470 C.2     1  UNL1        0.0040
     10  C          7.0130   -0.5760   -2.0860 C.2     1  UNL1        0.0000
     11  C          9.0590    0.5150   -1.6740 C.2     1  UNL1        0.0000
     12  C          8.3400   -0.3980   -2.4190 C.2     1  UNL1        0.0000
@<TRIPOS>BOND
     1    12    10    2
     2    12    11    1
     3    10     8    1
     4    11     9    2
     5     8     7    2
     6     9     7    1
     7     7     6    1
     8     1     6    1
     9     1     2    1
    10     2     3    2
    11     2     4    1
    12     5     4    1
