MODEL 1
REMARK VINA RESULT:      -7.3      0.000      0.000
REMARK SMILES O=C(O)CCc1ccccc1
REMARK SMILES IDX 4 1 2 2 1 3 3 4 5 6 6 7 7 8 11 9 8 10 10 11 9 12
REMARK H PARENT 3 5
REMARK Flexibility Score: inf
ROOT
ATOM      1  C   UNL     1       8.450  -0.586  -2.175  1.00  0.00     0.127 C 
ENDROOT
BRANCH   1   2
ATOM      2  C   UNL     1       8.459  -1.876  -2.913  1.00  0.00     0.303 C 
ATOM      3  O   UNL     1       9.548  -2.471  -3.093  1.00  0.00    -0.252 OA
BRANCH   2   4
ATOM      4  O   UNL     1       7.298  -2.455  -3.417  1.00  0.00    -0.481 OA
ATOM      5  H   UNL     1       7.024  -2.353  -4.406  1.00  0.00     0.296 HD
ENDBRANCH   2   4
ENDBRANCH   1   2
BRANCH   1   6
ATOM      6  C   UNL     1       7.032  -0.086  -2.152  1.00  0.00     0.047 C 
BRANCH   6   7
ATOM      7  C   UNL     1       6.497   0.043  -0.772  1.00  0.00    -0.047 A 
ATOM      8  C   UNL     1       5.864   1.197  -0.354  1.00  0.00     0.004 A 
ATOM      9  C   UNL     1       6.603  -0.977   0.156  1.00  0.00     0.004 A 
ATOM     10  C   UNL     1       5.371   1.307   0.932  1.00  0.00     0.000 A 
ATOM     11  C   UNL     1       6.112  -0.870   1.438  1.00  0.00     0.000 A 
ATOM     12  C   UNL     1       5.481   0.285   1.853  1.00  0.00     0.000 A 
ENDBRANCH   6   7
ENDBRANCH   1   6
TORSDOF 4
ENDMDL
MODEL 2
REMARK VINA RESULT:      -7.3      0.107      1.718
REMARK SMILES O=C(O)CCc1ccccc1
REMARK SMILES IDX 4 1 2 2 1 3 3 4 5 6 6 7 7 8 11 9 8 10 10 11 9 12
REMARK H PARENT 3 5
REMARK Flexibility Score: inf
ROOT
ATOM      1  C   UNL     1       8.424  -0.640  -2.112  1.00  0.00     0.127 C 
ENDROOT
BRANCH   1   2
ATOM      2  C   UNL     1       8.410  -1.914  -2.878  1.00  0.00     0.303 C 
ATOM      3  O   UNL     1       7.309  -2.412  -3.219  1.00  0.00    -0.252 OA
BRANCH   2   4
ATOM      4  O   UNL     1       9.577  -2.584  -3.236  1.00  0.00    -0.481 OA
ATOM      5  H   UNL     1       9.960  -3.352  -2.665  1.00  0.00     0.296 HD
ENDBRANCH   2   4
ENDBRANCH   1   2
BRANCH   1   6
ATOM      6  C   UNL     1       7.024  -0.090  -2.124  1.00  0.00     0.047 C 
BRANCH   6   7
ATOM      7  C   UNL     1       6.461   0.057  -0.756  1.00  0.00    -0.047 A 
ATOM      8  C   UNL     1       6.573  -0.956   0.177  1.00  0.00     0.004 A 
ATOM      9  C   UNL     1       5.805   1.204  -0.350  1.00  0.00     0.004 A 
ATOM     10  C   UNL     1       6.046  -0.808   1.446  1.00  0.00     0.000 A 
ATOM     11  C   UNL     1       5.279   1.354   0.913  1.00  0.00     0.000 A 
ATOM     12  C   UNL     1       5.391   0.340   1.843  1.00  0.00     0.000 A 
ENDBRANCH   6   7
ENDBRANCH   1   6
TORSDOF 4
ENDMDL
MODEL 3
REMARK VINA RESULT:      -6.8      3.382      5.099
REMARK SMILES O=C(O)CCc1ccccc1
REMARK SMILES IDX 4 1 2 2 1 3 3 4 5 6 6 7 7 8 11 9 8 10 10 11 9 12
REMARK H PARENT 3 5
REMARK Flexibility Score: inf
ROOT
ATOM      1  C   UNL     1       4.990   1.792   0.709  1.00  0.00     0.127 C 
ENDROOT
BRANCH   1   2
ATOM      2  C   UNL     1       4.463   1.119   1.925  1.00  0.00     0.303 C 
ATOM      3  O   UNL     1       5.148   0.222   2.474  1.00  0.00    -0.252 OA
BRANCH   2   4
ATOM      4  O   UNL     1       3.231   1.446   2.485  1.00  0.00    -0.481 OA
ATOM      5  H   UNL     1       2.501   1.935   1.945  1.00  0.00     0.296 HD
ENDBRANCH   2   4
ENDBRANCH   1   2
BRANCH   1   6
ATOM      6  C   UNL     1       6.491   1.787   0.804  1.00  0.00     0.047 C 
BRANCH   6   7
ATOM      7  C   UNL     1       7.128   1.033  -0.307  1.00  0.00    -0.047 A 
ATOM      8  C   UNL     1       6.411   0.119  -1.055  1.00  0.00     0.004 A 
ATOM      9  C   UNL     1       8.457   1.207  -0.647  1.00  0.00     0.004 A 
ATOM     10  C   UNL     1       7.013  -0.576  -2.086  1.00  0.00     0.000 A 
ATOM     11  C   UNL     1       9.059   0.515  -1.674  1.00  0.00     0.000 A 
ATOM     12  C   UNL     1       8.340  -0.398  -2.419  1.00  0.00     0.000 A 
ENDBRANCH   6   7
ENDBRANCH   1   6
TORSDOF 4
ENDMDL
MODEL 4
REMARK VINA RESULT:      -6.6      1.928      2.324
REMARK SMILES O=C(O)CCc1ccccc1
REMARK SMILES IDX 4 1 2 2 1 3 3 4 5 6 6 7 7 8 11 9 8 10 10 11 9 12
REMARK H PARENT 3 5
REMARK Flexibility Score: inf
ROOT
ATOM      1  C   UNL     1       8.266   0.194  -2.209  1.00  0.00     0.127 C 
ENDROOT
BRANCH   1   2
ATOM      2  C   UNL     1       9.390   0.379  -1.254  1.00  0.00     0.303 C 
ATOM      3  O   UNL     1       9.478  -0.380  -0.259  1.00  0.00    -0.252 OA
BRANCH   2   4
ATOM      4  O   UNL     1      10.357   1.366  -1.420  1.00  0.00    -0.481 OA
ATOM      5  H   UNL     1      10.924   1.433  -2.279  1.00  0.00     0.296 HD
ENDBRANCH   2   4
ENDBRANCH   1   2
BRANCH   1   6
ATOM      6  C   UNL     1       7.208  -0.614  -1.511  1.00  0.00     0.047 C 
BRANCH   6   7
ATOM      7  C   UNL     1       6.396   0.203  -0.572  1.00  0.00    -0.047 A 
ATOM      8  C   UNL     1       5.852   1.412  -0.963  1.00  0.00     0.004 A 
ATOM      9  C   UNL     1       6.145  -0.200   0.726  1.00  0.00     0.004 A 
ATOM     10  C   UNL     1       5.098   2.164  -0.082  1.00  0.00     0.000 A 
ATOM     11  C   UNL     1       5.394   0.548   1.606  1.00  0.00     0.000 A 
ATOM     12  C   UNL     1       4.852   1.755   1.213  1.00  0.00     0.000 A 
ENDBRANCH   6   7
ENDBRANCH   1   6
TORSDOF 4
ENDMDL
MODEL 5
REMARK VINA RESULT:      -6.6      1.884      2.890
REMARK SMILES O=C(O)CCc1ccccc1
REMARK SMILES IDX 4 1 2 2 1 3 3 4 5 6 6 7 7 8 11 9 8 10 10 11 9 12
REMARK H PARENT 3 5
REMARK Flexibility Score: inf
ROOT
ATOM      1  C   UNL     1       8.212  -1.548   1.123  1.00  0.00     0.127 C 
ENDROOT
BRANCH   1   2
ATOM      2  C   UNL     1       8.491  -2.762   0.312  1.00  0.00     0.303 C 
ATOM      3  O   UNL     1       9.122  -3.714   0.831  1.00  0.00    -0.252 OA
BRANCH   2   4
ATOM      4  O   UNL     1       8.076  -2.888  -1.011  1.00  0.00    -0.481 OA
ATOM      5  H   UNL     1       7.559  -3.716  -1.343  1.00  0.00     0.296 HD
ENDBRANCH   2   4
ENDBRANCH   1   2
BRANCH   1   6
ATOM      6  C   UNL     1       6.722  -1.455   1.301  1.00  0.00     0.047 C 
BRANCH   6   7
ATOM      7  C   UNL     1       6.166  -0.180   0.777  1.00  0.00    -0.047 A 
ATOM      8  C   UNL     1       6.400   0.221  -0.525  1.00  0.00     0.004 A 
ATOM      9  C   UNL     1       5.395   0.662   1.556  1.00  0.00     0.004 A 
ATOM     10  C   UNL     1       5.879   1.409  -1.001  1.00  0.00     0.000 A 
ATOM     11  C   UNL     1       4.874   1.846   1.083  1.00  0.00     0.000 A 
ATOM     12  C   UNL     1       5.110   2.244  -0.217  1.00  0.00     0.000 A 
ENDBRANCH   6   7
ENDBRANCH   1   6
TORSDOF 4
ENDMDL
