@<TRIPOS>MOLECULE
/home/cewinharhar/GITHUB/reincatalyze/data/processed/docking_pred/2023-Apr-25-2033_maxeplen5_maxtrainstep200_exh16_gamma099_lrac3e-4_lrcr1e-3/e1ac879641feb84a16575019a922afe40680d27c_ligand_2.pdbqt
 12 12 0 0 0
SMALL
GASTEIGER

@<TRIPOS>ATOM
      1  C          8.2120   -1.5480    1.1230 C.3     1  UNL1        0.1270
      2  C          8.4910   -2.7620    0.3120 C.2     1  UNL1        0.3030
      3  O          9.1220   -3.7140    0.8310 O.2     1  UNL1       -0.2520
      4  O          8.0760   -2.8880   -1.0110 O.3     1  UNL1       -0.4810
      5  H          7.5590   -3.7160   -1.3430 H       1  UNL1        0.2960
      6  C          6.7220   -1.4550    1.3010 C.3     1  UNL1        0.0470
      7  C          6.1660   -0.1800    0.7770 C.2     1  UNL1       -0.0470
      8  C          6.4000    0.2210   -0.5250 C.2     1  UNL1        0.0040
      9  C          5.3950    0.6620    1.5560 C.2     1  UNL1        0.0040
     10  C          5.8790    1.4090   -1.0010 C.2     1  UNL1        0.0000
     11  C          4.8740    1.8460    1.0830 C.2     1  UNL1        0.0000
     12  C          5.1100    2.2440   -0.2170 C.2     1  UNL1        0.0000
@<TRIPOS>BOND
     1     5     4    1
     2     4     2    1
     3    10     8    1
     4    10    12    2
     5     8     7    2
     6    12    11    1
     7     2     3    2
     8     2     1    1
     9     7     6    1
    10     7     9    1
    11    11     9    2
    12     1     6    1
