@<TRIPOS>MOLECULE
/home/cewinharhar/GITHUB/reincatalyze/data/processed/docking_pred/2023-Apr-25-2033_maxeplen5_maxtrainstep200_exh16_gamma099_lrac3e-4_lrcr1e-3/e1ac879641feb84a16575019a922afe40680d27c_ligand_2.pdbqt
 12 12 0 0 0
SMALL
GASTEIGER

@<TRIPOS>ATOM
      1  C          8.2660    0.1940   -2.2090 C.3     1  UNL1        0.1270
      2  C          9.3900    0.3790   -1.2540 C.2     1  UNL1        0.3030
      3  O          9.4780   -0.3800   -0.2590 O.2     1  UNL1       -0.2520
      4  O         10.3570    1.3660   -1.4200 O.3     1  UNL1       -0.4810
      5  H         10.9240    1.4330   -2.2790 H       1  UNL1        0.2960
      6  C          7.2080   -0.6140   -1.5110 C.3     1  UNL1        0.0470
      7  C          6.3960    0.2030   -0.5720 C.2     1  UNL1       -0.0470
      8  C          5.8520    1.4120   -0.9630 C.2     1  UNL1        0.0040
      9  C          6.1450   -0.2000    0.7260 C.2     1  UNL1        0.0040
     10  C          5.0980    2.1640   -0.0820 C.2     1  UNL1        0.0000
     11  C          5.3940    0.5480    1.6060 C.2     1  UNL1        0.0000
     12  C          4.8520    1.7550    1.2130 C.2     1  UNL1        0.0000
@<TRIPOS>BOND
     1     5     4    1
     2     1     6    1
     3     1     2    1
     4     6     7    1
     5     4     2    1
     6     2     3    2
     7     8     7    2
     8     8    10    1
     9     7     9    1
    10    10    12    2
    11     9    11    2
    12    12    11    1
