@<TRIPOS>MOLECULE
/home/cewinharhar/GITHUB/reincatalyze/data/processed/docking_pred/2023-Apr-25-2033_maxeplen5_maxtrainstep200_exh16_gamma099_lrac3e-4_lrcr1e-3/e3e0f9713a2c6d1770d60d03407d62bfa70f046f_ligand_2.pdbqt
 12 12 0 0 0
SMALL
GASTEIGER

@<TRIPOS>ATOM
      1  C          5.3820    2.9450   -0.0110 C.3     1  UNL1        0.1270
      2  C          6.2060    3.8840    0.7940 C.2     1  UNL1        0.3030
      3  O          6.9360    4.7180    0.2050 O.2     1  UNL1       -0.2520
      4  O          6.2000    3.8780    2.1870 O.3     1  UNL1       -0.4810
      5  H          5.3700    3.5890    2.7260 H       1  UNL1        0.2960
      6  C          4.8800    1.8740    0.9170 C.3     1  UNL1        0.0470
      7  C          5.7210    0.6490    0.8770 C.2     1  UNL1       -0.0470
      8  C          5.8120   -0.1920    1.9690 C.2     1  UNL1        0.0040
      9  C          6.4470    0.2920   -0.2440 C.2     1  UNL1        0.0040
     10  C          6.5970   -1.3280    1.9210 C.2     1  UNL1        0.0000
     11  C          7.2300   -0.8400   -0.2940 C.2     1  UNL1        0.0000
     12  C          7.3200   -1.6790    0.7990 C.2     1  UNL1        0.0000
@<TRIPOS>BOND
     1    11     9    1
     2    11    12    2
     3     9     7    2
     4     1     2    1
     5     1     6    1
     6     3     2    2
     7     2     4    1
     8    12    10    1
     9     7     6    1
    10     7     8    1
    11    10     8    2
    12     4     5    1
