@<TRIPOS>MOLECULE
/home/cewinharhar/GITHUB/reincatalyze/data/processed/docking_pred/2023-Apr-25-2033_maxeplen5_maxtrainstep200_exh16_gamma099_lrac3e-4_lrcr1e-3/e3e0f9713a2c6d1770d60d03407d62bfa70f046f_ligand_2.pdbqt
 12 12 0 0 0
SMALL
GASTEIGER

@<TRIPOS>ATOM
      1  C          8.4400   -0.6090   -2.1510 C.3     1  UNL1        0.1270
      2  C          8.4190   -1.8960   -2.8940 C.2     1  UNL1        0.3030
      3  O          7.3150   -2.4010   -3.2120 O.2     1  UNL1       -0.2520
      4  O          9.5830   -2.5690   -3.2560 O.3     1  UNL1       -0.4810
      5  H          9.5930   -3.2680   -4.0140 H       1  UNL1        0.2960
      6  C          7.0390   -0.0630   -2.1520 C.3     1  UNL1        0.0470
      7  C          6.4820    0.0740   -0.7800 C.2     1  UNL1       -0.0470
      8  C          6.5930   -0.9490    0.1420 C.2     1  UNL1        0.0040
      9  C          5.8330    1.2200   -0.3600 C.2     1  UNL1        0.0040
     10  C          6.0710   -0.8120    1.4140 C.2     1  UNL1        0.0000
     11  C          5.3130    1.3590    0.9070 C.2     1  UNL1        0.0000
     12  C          5.4240    0.3350    1.8260 C.2     1  UNL1        0.0000
@<TRIPOS>BOND
     1     5     4    1
     2     4     2    1
     3     3     2    2
     4     2     1    1
     5     6     1    1
     6     6     7    1
     7     7     9    2
     8     7     8    1
     9     9    11    1
    10     8    10    2
    11    11    12    2
    12    10    12    1
