@<TRIPOS>MOLECULE
/home/cewinharhar/GITHUB/reincatalyze/data/processed/docking_pred/2023-Apr-25-2033_maxeplen5_maxtrainstep200_exh16_gamma099_lrac3e-4_lrcr1e-3/e3e0f9713a2c6d1770d60d03407d62bfa70f046f_ligand_2.pdbqt
 12 12 0 0 0
SMALL
GASTEIGER

@<TRIPOS>ATOM
      1  C          8.3250   -1.0560   -1.7040 C.3     1  UNL1        0.1270
      2  C          8.4030   -2.0500   -2.8060 C.2     1  UNL1        0.3030
      3  O          9.5250   -2.4950   -3.1510 O.2     1  UNL1       -0.2520
      4  O          7.2740   -2.5130   -3.4760 O.3     1  UNL1       -0.4810
      5  H          7.1580   -2.3930   -4.4940 H       1  UNL1        0.2960
      6  C          7.2550   -1.5160   -0.7540 C.3     1  UNL1        0.0470
      7  C          6.4880   -0.3840   -0.1710 C.2     1  UNL1       -0.0470
      8  C          6.0570   -0.4120    1.1410 C.2     1  UNL1        0.0040
      9  C          6.1710    0.7440   -0.9040 C.2     1  UNL1        0.0040
     10  C          5.3450    0.6460    1.6730 C.2     1  UNL1        0.0000
     11  C          5.4620    1.8000   -0.3760 C.2     1  UNL1        0.0000
     12  C          5.0320    1.7690    0.9350 C.2     1  UNL1        0.0000
@<TRIPOS>BOND
     1     5     4    1
     2     4     2    1
     3     3     2    2
     4     2     1    1
     5     1     6    1
     6     9    11    1
     7     9     7    2
     8     6     7    1
     9    11    12    2
    10     7     8    1
    11    12    10    1
    12     8    10    2
