MODEL 1
REMARK VINA RESULT:      -7.2      0.000      0.000
REMARK SMILES O=C(O)CCc1ccccc1
REMARK SMILES IDX 4 1 2 2 1 3 3 4 5 6 6 7 7 8 11 9 8 10 10 11 9 12
REMARK H PARENT 3 5
REMARK Flexibility Score: inf
ROOT
ATOM      1  C   UNL     1       8.445  -0.611  -2.154  1.00  0.00     0.127 C 
ENDROOT
BRANCH   1   2
ATOM      2  C   UNL     1       8.428  -1.900  -2.894  1.00  0.00     0.303 C 
ATOM      3  O   UNL     1       7.327  -2.414  -3.204  1.00  0.00    -0.252 OA
BRANCH   2   4
ATOM      4  O   UNL     1       9.595  -2.565  -3.263  1.00  0.00    -0.481 OA
ATOM      5  H   UNL     1      10.512  -2.321  -2.858  1.00  0.00     0.296 HD
ENDBRANCH   2   4
ENDBRANCH   1   2
BRANCH   1   6
ATOM      6  C   UNL     1       7.040  -0.075  -2.147  1.00  0.00     0.047 C 
BRANCH   6   7
ATOM      7  C   UNL     1       6.488   0.053  -0.773  1.00  0.00    -0.047 A 
ATOM      8  C   UNL     1       5.844   1.205  -0.366  1.00  0.00     0.004 A 
ATOM      9  C   UNL     1       6.589  -0.964   0.158  1.00  0.00     0.004 A 
ATOM     10  C   UNL     1       5.334   1.313   0.914  1.00  0.00     0.000 A 
ATOM     11  C   UNL     1       6.082  -0.858   1.434  1.00  0.00     0.000 A 
ATOM     12  C   UNL     1       5.439   0.294   1.839  1.00  0.00     0.000 A 
ENDBRANCH   6   7
ENDBRANCH   1   6
TORSDOF 4
ENDMDL
MODEL 2
REMARK VINA RESULT:      -7.2      0.029      1.420
REMARK SMILES O=C(O)CCc1ccccc1
REMARK SMILES IDX 4 1 2 2 1 3 3 4 5 6 6 7 7 8 11 9 8 10 10 11 9 12
REMARK H PARENT 3 5
REMARK Flexibility Score: inf
ROOT
ATOM      1  C   UNL     1       8.440  -0.609  -2.151  1.00  0.00     0.127 C 
ENDROOT
BRANCH   1   2
ATOM      2  C   UNL     1       8.419  -1.896  -2.894  1.00  0.00     0.303 C 
ATOM      3  O   UNL     1       7.315  -2.401  -3.212  1.00  0.00    -0.252 OA
BRANCH   2   4
ATOM      4  O   UNL     1       9.583  -2.569  -3.256  1.00  0.00    -0.481 OA
ATOM      5  H   UNL     1       9.593  -3.268  -4.014  1.00  0.00     0.296 HD
ENDBRANCH   2   4
ENDBRANCH   1   2
BRANCH   1   6
ATOM      6  C   UNL     1       7.039  -0.063  -2.152  1.00  0.00     0.047 C 
BRANCH   6   7
ATOM      7  C   UNL     1       6.482   0.074  -0.780  1.00  0.00    -0.047 A 
ATOM      8  C   UNL     1       6.593  -0.949   0.142  1.00  0.00     0.004 A 
ATOM      9  C   UNL     1       5.833   1.220  -0.360  1.00  0.00     0.004 A 
ATOM     10  C   UNL     1       6.071  -0.812   1.414  1.00  0.00     0.000 A 
ATOM     11  C   UNL     1       5.313   1.359   0.907  1.00  0.00     0.000 A 
ATOM     12  C   UNL     1       5.424   0.335   1.826  1.00  0.00     0.000 A 
ENDBRANCH   6   7
ENDBRANCH   1   6
TORSDOF 4
ENDMDL
MODEL 3
REMARK VINA RESULT:      -7.1      0.715      1.892
REMARK SMILES O=C(O)CCc1ccccc1
REMARK SMILES IDX 4 1 2 2 1 3 3 4 5 6 6 7 7 8 11 9 8 10 10 11 9 12
REMARK H PARENT 3 5
REMARK Flexibility Score: inf
ROOT
ATOM      1  C   UNL     1       8.325  -1.056  -1.704  1.00  0.00     0.127 C 
ENDROOT
BRANCH   1   2
ATOM      2  C   UNL     1       8.403  -2.050  -2.806  1.00  0.00     0.303 C 
ATOM      3  O   UNL     1       9.525  -2.495  -3.151  1.00  0.00    -0.252 OA
BRANCH   2   4
ATOM      4  O   UNL     1       7.274  -2.513  -3.476  1.00  0.00    -0.481 OA
ATOM      5  H   UNL     1       7.158  -2.393  -4.494  1.00  0.00     0.296 HD
ENDBRANCH   2   4
ENDBRANCH   1   2
BRANCH   1   6
ATOM      6  C   UNL     1       7.255  -1.516  -0.754  1.00  0.00     0.047 C 
BRANCH   6   7
ATOM      7  C   UNL     1       6.488  -0.384  -0.171  1.00  0.00    -0.047 A 
ATOM      8  C   UNL     1       6.057  -0.412   1.141  1.00  0.00     0.004 A 
ATOM      9  C   UNL     1       6.171   0.744  -0.904  1.00  0.00     0.004 A 
ATOM     10  C   UNL     1       5.345   0.646   1.673  1.00  0.00     0.000 A 
ATOM     11  C   UNL     1       5.462   1.800  -0.376  1.00  0.00     0.000 A 
ATOM     12  C   UNL     1       5.032   1.769   0.935  1.00  0.00     0.000 A 
ENDBRANCH   6   7
ENDBRANCH   1   6
TORSDOF 4
ENDMDL
MODEL 4
REMARK VINA RESULT:      -6.8      3.309      5.150
REMARK SMILES O=C(O)CCc1ccccc1
REMARK SMILES IDX 4 1 2 2 1 3 3 4 5 6 6 7 7 8 11 9 8 10 10 11 9 12
REMARK H PARENT 3 5
REMARK Flexibility Score: inf
ROOT
ATOM      1  C   UNL     1       4.987   1.767   0.712  1.00  0.00     0.127 C 
ENDROOT
BRANCH   1   2
ATOM      2  C   UNL     1       4.451   1.096   1.924  1.00  0.00     0.303 C 
ATOM      3  O   UNL     1       5.118   0.180   2.463  1.00  0.00    -0.252 OA
BRANCH   2   4
ATOM      4  O   UNL     1       3.228   1.445   2.492  1.00  0.00    -0.481 OA
ATOM      5  H   UNL     1       3.153   1.760   3.472  1.00  0.00     0.296 HD
ENDBRANCH   2   4
ENDBRANCH   1   2
BRANCH   1   6
ATOM      6  C   UNL     1       6.488   1.748   0.811  1.00  0.00     0.047 C 
BRANCH   6   7
ATOM      7  C   UNL     1       7.121   0.999  -0.306  1.00  0.00    -0.047 A 
ATOM      8  C   UNL     1       8.437   1.224  -0.663  1.00  0.00     0.004 A 
ATOM      9  C   UNL     1       6.434   0.048  -1.036  1.00  0.00     0.004 A 
ATOM     10  C   UNL     1       9.016   0.522  -1.703  1.00  0.00     0.000 A 
ATOM     11  C   UNL     1       7.009  -0.653  -2.072  1.00  0.00     0.000 A 
ATOM     12  C   UNL     1       8.323  -0.426  -2.428  1.00  0.00     0.000 A 
ENDBRANCH   6   7
ENDBRANCH   1   6
TORSDOF 4
ENDMDL
MODEL 5
REMARK VINA RESULT:      -6.6      3.777      5.019
REMARK SMILES O=C(O)CCc1ccccc1
REMARK SMILES IDX 4 1 2 2 1 3 3 4 5 6 6 7 7 8 11 9 8 10 10 11 9 12
REMARK H PARENT 3 5
REMARK Flexibility Score: inf
ROOT
ATOM      1  C   UNL     1       5.382   2.945  -0.011  1.00  0.00     0.127 C 
ENDROOT
BRANCH   1   2
ATOM      2  C   UNL     1       6.206   3.884   0.794  1.00  0.00     0.303 C 
ATOM      3  O   UNL     1       6.936   4.718   0.205  1.00  0.00    -0.252 OA
BRANCH   2   4
ATOM      4  O   UNL     1       6.200   3.878   2.187  1.00  0.00    -0.481 OA
ATOM      5  H   UNL     1       5.370   3.589   2.726  1.00  0.00     0.296 HD
ENDBRANCH   2   4
ENDBRANCH   1   2
BRANCH   1   6
ATOM      6  C   UNL     1       4.880   1.874   0.917  1.00  0.00     0.047 C 
BRANCH   6   7
ATOM      7  C   UNL     1       5.721   0.649   0.877  1.00  0.00    -0.047 A 
ATOM      8  C   UNL     1       5.812  -0.192   1.969  1.00  0.00     0.004 A 
ATOM      9  C   UNL     1       6.447   0.292  -0.244  1.00  0.00     0.004 A 
ATOM     10  C   UNL     1       6.597  -1.328   1.921  1.00  0.00     0.000 A 
ATOM     11  C   UNL     1       7.230  -0.840  -0.294  1.00  0.00     0.000 A 
ATOM     12  C   UNL     1       7.320  -1.679   0.799  1.00  0.00     0.000 A 
ENDBRANCH   6   7
ENDBRANCH   1   6
TORSDOF 4
ENDMDL
