@<TRIPOS>MOLECULE
/home/cewinharhar/GITHUB/reincatalyze/data/processed/docking_pred/2023-Apr-25-2033_maxeplen5_maxtrainstep200_exh16_gamma099_lrac3e-4_lrcr1e-3/e3e0f9713a2c6d1770d60d03407d62bfa70f046f_ligand_2.pdbqt
 12 12 0 0 0
SMALL
GASTEIGER

@<TRIPOS>ATOM
      1  C          8.4450   -0.6110   -2.1540 C.3     1  UNL1        0.1270
      2  C          8.4280   -1.9000   -2.8940 C.2     1  UNL1        0.3030
      3  O          7.3270   -2.4140   -3.2040 O.2     1  UNL1       -0.2520
      4  O          9.5950   -2.5650   -3.2630 O.3     1  UNL1       -0.4810
      5  H         10.5120   -2.3210   -2.8580 H       1  UNL1        0.2960
      6  C          7.0400   -0.0750   -2.1470 C.3     1  UNL1        0.0470
      7  C          6.4880    0.0530   -0.7730 C.2     1  UNL1       -0.0470
      8  C          5.8440    1.2050   -0.3660 C.2     1  UNL1        0.0040
      9  C          6.5890   -0.9640    0.1580 C.2     1  UNL1        0.0040
     10  C          5.3340    1.3130    0.9140 C.2     1  UNL1        0.0000
     11  C          6.0820   -0.8580    1.4340 C.2     1  UNL1        0.0000
     12  C          5.4390    0.2940    1.8390 C.2     1  UNL1        0.0000
@<TRIPOS>BOND
     1     4     2    1
     2     4     5    1
     3     3     2    2
     4     2     1    1
     5     1     6    1
     6     6     7    1
     7     7     8    2
     8     7     9    1
     9     8    10    1
    10     9    11    2
    11    10    12    2
    12    11    12    1
