@<TRIPOS>MOLECULE
/home/cewinharhar/GITHUB/reincatalyze/data/processed/docking_pred/2023-Apr-25-2033_maxeplen5_maxtrainstep200_exh16_gamma099_lrac3e-4_lrcr1e-3/e3e0f9713a2c6d1770d60d03407d62bfa70f046f_ligand_2.pdbqt
 12 12 0 0 0
SMALL
GASTEIGER

@<TRIPOS>ATOM
      1  C          4.9870    1.7670    0.7120 C.3     1  UNL1        0.1270
      2  C          4.4510    1.0960    1.9240 C.2     1  UNL1        0.3030
      3  O          5.1180    0.1800    2.4630 O.2     1  UNL1       -0.2520
      4  O          3.2280    1.4450    2.4920 O.3     1  UNL1       -0.4810
      5  H          3.1530    1.7600    3.4720 H       1  UNL1        0.2960
      6  C          6.4880    1.7480    0.8110 C.3     1  UNL1        0.0470
      7  C          7.1210    0.9990   -0.3060 C.2     1  UNL1       -0.0470
      8  C          8.4370    1.2240   -0.6630 C.2     1  UNL1        0.0040
      9  C          6.4340    0.0480   -1.0360 C.2     1  UNL1        0.0040
     10  C          9.0160    0.5220   -1.7030 C.2     1  UNL1        0.0000
     11  C          7.0090   -0.6530   -2.0720 C.2     1  UNL1        0.0000
     12  C          8.3230   -0.4260   -2.4280 C.2     1  UNL1        0.0000
@<TRIPOS>BOND
     1    12    11    2
     2    12    10    1
     3    11     9    1
     4    10     8    2
     5     9     7    2
     6     8     7    1
     7     7     6    1
     8     1     6    1
     9     1     2    1
    10     2     3    2
    11     2     4    1
    12     4     5    1
