@<TRIPOS>MOLECULE
/home/cewinharhar/GITHUB/reincatalyze/data/processed/docking_pred/2023-Apr-25-2033_maxeplen5_maxtrainstep200_exh16_gamma099_lrac3e-4_lrcr1e-3/e3e22a08cc3fa656d2264310e8071e645bf38a06_ligand_2.pdbqt
 12 12 0 0 0
SMALL
GASTEIGER

@<TRIPOS>ATOM
      1  C          4.9650    1.7990    0.6860 C.3     1  UNL1        0.1270
      2  C          4.4540    1.1310    1.9110 C.2     1  UNL1        0.3030
      3  O          5.1480    0.2410    2.4580 O.2     1  UNL1       -0.2520
      4  O          3.2270    1.4570    2.4830 O.3     1  UNL1       -0.4810
      5  H          2.4620    1.8740    1.9300 H       1  UNL1        0.2960
      6  C          6.4650    1.8390    0.7840 C.3     1  UNL1        0.0470
      7  C          7.1260    1.0720   -0.3040 C.2     1  UNL1       -0.0470
      8  C          6.4230    0.1560   -1.0630 C.2     1  UNL1        0.0040
      9  C          8.4640    1.2340   -0.6100 C.2     1  UNL1        0.0040
     10  C          7.0470   -0.5520   -2.0720 C.2     1  UNL1        0.0000
     11  C          9.0890    0.5300   -1.6150 C.2     1  UNL1        0.0000
     12  C          8.3840   -0.3850   -2.3710 C.2     1  UNL1        0.0000
@<TRIPOS>BOND
     1    12    10    2
     2    12    11    1
     3    10     8    1
     4    11     9    2
     5     8     7    2
     6     9     7    1
     7     7     6    1
     8     1     6    1
     9     1     2    1
    10     2     3    2
    11     2     4    1
    12     5     4    1
