@<TRIPOS>MOLECULE
/home/cewinharhar/GITHUB/reincatalyze/data/processed/docking_pred/2023-Apr-25-2033_maxeplen5_maxtrainstep200_exh16_gamma099_lrac3e-4_lrcr1e-3/e3e22a08cc3fa656d2264310e8071e645bf38a06_ligand_2.pdbqt
 12 12 0 0 0
SMALL
GASTEIGER

@<TRIPOS>ATOM
      1  C          8.1450    0.2980   -2.1960 C.3     1  UNL1        0.1270
      2  C          9.3130    0.3800   -1.2810 C.2     1  UNL1        0.3030
      3  O          9.4000   -0.4300   -0.3260 O.2     1  UNL1       -0.2520
      4  O         10.3230    1.3240   -1.4420 O.3     1  UNL1       -0.4810
      5  H         10.6300    1.9310   -0.6660 H       1  UNL1        0.2960
      6  C          7.1090   -0.5670   -1.5320 C.3     1  UNL1        0.0470
      7  C          6.3370    0.1670   -0.4950 C.2     1  UNL1       -0.0470
      8  C          6.1420   -0.3680    0.7630 C.2     1  UNL1        0.0040
      9  C          5.7810    1.4100   -0.7350 C.2     1  UNL1        0.0040
     10  C          5.4220    0.3230    1.7200 C.2     1  UNL1        0.0000
     11  C          5.0640    2.1000    0.2170 C.2     1  UNL1        0.0000
     12  C          4.8700    1.5630    1.4740 C.2     1  UNL1        0.0000
@<TRIPOS>BOND
     1     1     6    1
     2     1     2    1
     3     6     7    1
     4     4     2    1
     5     4     5    1
     6     2     3    2
     7     9     7    2
     8     9    11    1
     9     7     8    1
    10    11    12    2
    11     8    10    2
    12    12    10    1
