@<TRIPOS>MOLECULE
/home/cewinharhar/GITHUB/reincatalyze/data/processed/docking_pred/2023-Apr-25-2033_maxeplen5_maxtrainstep200_exh16_gamma099_lrac3e-4_lrcr1e-3/e3e22a08cc3fa656d2264310e8071e645bf38a06_ligand_2.pdbqt
 12 12 0 0 0
SMALL
GASTEIGER

@<TRIPOS>ATOM
      1  C          8.3230   -1.0410   -1.6780 C.3     1  UNL1        0.1270
      2  C          8.3760   -2.0250   -2.7900 C.2     1  UNL1        0.3030
      3  O          9.4870   -2.4850   -3.1480 O.2     1  UNL1       -0.2520
      4  O          7.2340   -2.4610   -3.4560 O.3     1  UNL1       -0.4810
      5  H          6.3020   -2.0680   -3.2540 H       1  UNL1        0.2960
      6  C          7.1400   -0.1450   -1.9210 C.3     1  UNL1        0.0470
      7  C          6.4300    0.2110   -0.6640 C.2     1  UNL1       -0.0470
      8  C          6.4380   -0.6360    0.4270 C.2     1  UNL1        0.0040
      9  C          5.7340    1.3970   -0.5240 C.2     1  UNL1        0.0040
     10  C          5.7750   -0.2940    1.5900 C.2     1  UNL1        0.0000
     11  C          5.0730    1.7400    0.6340 C.2     1  UNL1        0.0000
     12  C          5.0820    0.8910    1.7220 C.2     1  UNL1        0.0000
@<TRIPOS>BOND
     1     4     5    1
     2     4     2    1
     3     3     2    2
     4     2     1    1
     5     6     1    1
     6     6     7    1
     7     7     9    2
     8     7     8    1
     9     9    11    1
    10     8    10    2
    11    11    12    2
    12    10    12    1
