MODEL 1
REMARK VINA RESULT:      -7.3      0.000      0.000
REMARK SMILES O=C(O)CCc1ccccc1
REMARK SMILES IDX 4 1 2 2 1 3 3 4 5 6 6 7 7 8 11 9 8 10 10 11 9 12
REMARK H PARENT 3 5
REMARK Flexibility Score: inf
ROOT
ATOM      1  C   UNL     1       8.470  -0.602  -2.156  1.00  0.00     0.127 C 
ENDROOT
BRANCH   1   2
ATOM      2  C   UNL     1       8.475  -1.889  -2.899  1.00  0.00     0.303 C 
ATOM      3  O   UNL     1       9.564  -2.481  -3.092  1.00  0.00    -0.252 OA
BRANCH   2   4
ATOM      4  O   UNL     1       7.310  -2.471  -3.393  1.00  0.00    -0.481 OA
ATOM      5  H   UNL     1       7.022  -2.360  -4.378  1.00  0.00     0.296 HD
ENDBRANCH   2   4
ENDBRANCH   1   2
BRANCH   1   6
ATOM      6  C   UNL     1       7.066  -0.067  -2.187  1.00  0.00     0.047 C 
BRANCH   6   7
ATOM      7  C   UNL     1       6.490   0.096  -0.826  1.00  0.00    -0.047 A 
ATOM      8  C   UNL     1       5.852   1.263  -0.454  1.00  0.00     0.004 A 
ATOM      9  C   UNL     1       6.563  -0.903   0.127  1.00  0.00     0.004 A 
ATOM     10  C   UNL     1       5.320   1.403   0.814  1.00  0.00     0.000 A 
ATOM     11  C   UNL     1       6.034  -0.765   1.391  1.00  0.00     0.000 A 
ATOM     12  C   UNL     1       5.397   0.402   1.761  1.00  0.00     0.000 A 
ENDBRANCH   6   7
ENDBRANCH   1   6
TORSDOF 4
ENDMDL
MODEL 2
REMARK VINA RESULT:      -7.2      0.102      1.717
REMARK SMILES O=C(O)CCc1ccccc1
REMARK SMILES IDX 4 1 2 2 1 3 3 4 5 6 6 7 7 8 11 9 8 10 10 11 9 12
REMARK H PARENT 3 5
REMARK Flexibility Score: inf
ROOT
ATOM      1  C   UNL     1       8.488  -0.612  -2.119  1.00  0.00     0.127 C 
ENDROOT
BRANCH   1   2
ATOM      2  C   UNL     1       8.439  -1.888  -2.879  1.00  0.00     0.303 C 
ATOM      3  O   UNL     1       7.324  -2.376  -3.185  1.00  0.00    -0.252 OA
BRANCH   2   4
ATOM      4  O   UNL     1       9.588  -2.570  -3.269  1.00  0.00    -0.481 OA
ATOM      5  H   UNL     1       9.654  -3.598  -3.220  1.00  0.00     0.296 HD
ENDBRANCH   2   4
ENDBRANCH   1   2
BRANCH   1   6
ATOM      6  C   UNL     1       7.110  -0.011  -2.155  1.00  0.00     0.047 C 
BRANCH   6   7
ATOM      7  C   UNL     1       6.517   0.131  -0.799  1.00  0.00    -0.047 A 
ATOM      8  C   UNL     1       6.623  -0.880   0.137  1.00  0.00     0.004 A 
ATOM      9  C   UNL     1       5.836   1.269  -0.409  1.00  0.00     0.004 A 
ATOM     10  C   UNL     1       6.068  -0.738   1.394  1.00  0.00     0.000 A 
ATOM     11  C   UNL     1       5.282   1.413   0.843  1.00  0.00     0.000 A 
ATOM     12  C   UNL     1       5.389   0.401   1.776  1.00  0.00     0.000 A 
ENDBRANCH   6   7
ENDBRANCH   1   6
TORSDOF 4
ENDMDL
MODEL 3
REMARK VINA RESULT:      -7.2      0.395      1.463
REMARK SMILES O=C(O)CCc1ccccc1
REMARK SMILES IDX 4 1 2 2 1 3 3 4 5 6 6 7 7 8 11 9 8 10 10 11 9 12
REMARK H PARENT 3 5
REMARK Flexibility Score: inf
ROOT
ATOM      1  C   UNL     1       8.323  -1.041  -1.678  1.00  0.00     0.127 C 
ENDROOT
BRANCH   1   2
ATOM      2  C   UNL     1       8.376  -2.025  -2.790  1.00  0.00     0.303 C 
ATOM      3  O   UNL     1       9.487  -2.485  -3.148  1.00  0.00    -0.252 OA
BRANCH   2   4
ATOM      4  O   UNL     1       7.234  -2.461  -3.456  1.00  0.00    -0.481 OA
ATOM      5  H   UNL     1       6.302  -2.068  -3.254  1.00  0.00     0.296 HD
ENDBRANCH   2   4
ENDBRANCH   1   2
BRANCH   1   6
ATOM      6  C   UNL     1       7.140  -0.145  -1.921  1.00  0.00     0.047 C 
BRANCH   6   7
ATOM      7  C   UNL     1       6.430   0.211  -0.664  1.00  0.00    -0.047 A 
ATOM      8  C   UNL     1       6.438  -0.636   0.427  1.00  0.00     0.004 A 
ATOM      9  C   UNL     1       5.734   1.397  -0.524  1.00  0.00     0.004 A 
ATOM     10  C   UNL     1       5.775  -0.294   1.590  1.00  0.00     0.000 A 
ATOM     11  C   UNL     1       5.073   1.740   0.634  1.00  0.00     0.000 A 
ATOM     12  C   UNL     1       5.082   0.891   1.722  1.00  0.00     0.000 A 
ENDBRANCH   6   7
ENDBRANCH   1   6
TORSDOF 4
ENDMDL
MODEL 4
REMARK VINA RESULT:      -6.8      3.376      5.097
REMARK SMILES O=C(O)CCc1ccccc1
REMARK SMILES IDX 4 1 2 2 1 3 3 4 5 6 6 7 7 8 11 9 8 10 10 11 9 12
REMARK H PARENT 3 5
REMARK Flexibility Score: inf
ROOT
ATOM      1  C   UNL     1       4.965   1.799   0.686  1.00  0.00     0.127 C 
ENDROOT
BRANCH   1   2
ATOM      2  C   UNL     1       4.454   1.131   1.911  1.00  0.00     0.303 C 
ATOM      3  O   UNL     1       5.148   0.241   2.458  1.00  0.00    -0.252 OA
BRANCH   2   4
ATOM      4  O   UNL     1       3.227   1.457   2.483  1.00  0.00    -0.481 OA
ATOM      5  H   UNL     1       2.462   1.874   1.930  1.00  0.00     0.296 HD
ENDBRANCH   2   4
ENDBRANCH   1   2
BRANCH   1   6
ATOM      6  C   UNL     1       6.465   1.839   0.784  1.00  0.00     0.047 C 
BRANCH   6   7
ATOM      7  C   UNL     1       7.126   1.072  -0.304  1.00  0.00    -0.047 A 
ATOM      8  C   UNL     1       6.423   0.156  -1.063  1.00  0.00     0.004 A 
ATOM      9  C   UNL     1       8.464   1.234  -0.610  1.00  0.00     0.004 A 
ATOM     10  C   UNL     1       7.047  -0.552  -2.072  1.00  0.00     0.000 A 
ATOM     11  C   UNL     1       9.089   0.530  -1.615  1.00  0.00     0.000 A 
ATOM     12  C   UNL     1       8.384  -0.385  -2.371  1.00  0.00     0.000 A 
ENDBRANCH   6   7
ENDBRANCH   1   6
TORSDOF 4
ENDMDL
MODEL 5
REMARK VINA RESULT:      -6.6      1.887      2.603
REMARK SMILES O=C(O)CCc1ccccc1
REMARK SMILES IDX 4 1 2 2 1 3 3 4 5 6 6 7 7 8 11 9 8 10 10 11 9 12
REMARK H PARENT 3 5
REMARK Flexibility Score: inf
ROOT
ATOM      1  C   UNL     1       8.145   0.298  -2.196  1.00  0.00     0.127 C 
ENDROOT
BRANCH   1   2
ATOM      2  C   UNL     1       9.313   0.380  -1.281  1.00  0.00     0.303 C 
ATOM      3  O   UNL     1       9.400  -0.430  -0.326  1.00  0.00    -0.252 OA
BRANCH   2   4
ATOM      4  O   UNL     1      10.323   1.324  -1.442  1.00  0.00    -0.481 OA
ATOM      5  H   UNL     1      10.630   1.931  -0.666  1.00  0.00     0.296 HD
ENDBRANCH   2   4
ENDBRANCH   1   2
BRANCH   1   6
ATOM      6  C   UNL     1       7.109  -0.567  -1.532  1.00  0.00     0.047 C 
BRANCH   6   7
ATOM      7  C   UNL     1       6.337   0.167  -0.495  1.00  0.00    -0.047 A 
ATOM      8  C   UNL     1       6.142  -0.368   0.763  1.00  0.00     0.004 A 
ATOM      9  C   UNL     1       5.781   1.410  -0.735  1.00  0.00     0.004 A 
ATOM     10  C   UNL     1       5.422   0.323   1.720  1.00  0.00     0.000 A 
ATOM     11  C   UNL     1       5.064   2.100   0.217  1.00  0.00     0.000 A 
ATOM     12  C   UNL     1       4.870   1.563   1.474  1.00  0.00     0.000 A 
ENDBRANCH   6   7
ENDBRANCH   1   6
TORSDOF 4
ENDMDL
