@<TRIPOS>MOLECULE
/home/cewinharhar/GITHUB/reincatalyze/data/processed/docking_pred/2023-Apr-25-2033_maxeplen5_maxtrainstep200_exh16_gamma099_lrac3e-4_lrcr1e-3/e3e22a08cc3fa656d2264310e8071e645bf38a06_ligand_2.pdbqt
 12 12 0 0 0
SMALL
GASTEIGER

@<TRIPOS>ATOM
      1  C          8.4880   -0.6120   -2.1190 C.3     1  UNL1        0.1270
      2  C          8.4390   -1.8880   -2.8790 C.2     1  UNL1        0.3030
      3  O          7.3240   -2.3760   -3.1850 O.2     1  UNL1       -0.2520
      4  O          9.5880   -2.5700   -3.2690 O.3     1  UNL1       -0.4810
      5  H          9.6540   -3.5980   -3.2200 H       1  UNL1        0.2960
      6  C          7.1100   -0.0110   -2.1550 C.3     1  UNL1        0.0470
      7  C          6.5170    0.1310   -0.7990 C.2     1  UNL1       -0.0470
      8  C          6.6230   -0.8800    0.1370 C.2     1  UNL1        0.0040
      9  C          5.8360    1.2690   -0.4090 C.2     1  UNL1        0.0040
     10  C          6.0680   -0.7380    1.3940 C.2     1  UNL1        0.0000
     11  C          5.2820    1.4130    0.8430 C.2     1  UNL1        0.0000
     12  C          5.3890    0.4010    1.7760 C.2     1  UNL1        0.0000
@<TRIPOS>BOND
     1     4     5    1
     2     4     2    1
     3     3     2    2
     4     2     1    1
     5     6     1    1
     6     6     7    1
     7     7     9    2
     8     7     8    1
     9     9    11    1
    10     8    10    2
    11    11    12    2
    12    10    12    1
