MODEL 1
REMARK VINA RESULT:      -7.3      0.000      0.000
REMARK SMILES O=C(O)CCc1ccccc1
REMARK SMILES IDX 4 1 2 2 1 3 3 4 5 6 6 7 7 8 11 9 8 10 10 11 9 12
REMARK H PARENT 3 5
REMARK Flexibility Score: inf
ROOT
ATOM      1  C   UNL     1       8.486  -0.604  -2.163  1.00  0.00     0.127 C 
ENDROOT
BRANCH   1   2
ATOM      2  C   UNL     1       8.473  -1.892  -2.905  1.00  0.00     0.303 C 
ATOM      3  O   UNL     1       9.553  -2.503  -3.088  1.00  0.00    -0.252 OA
BRANCH   2   4
ATOM      4  O   UNL     1       7.302  -2.453  -3.408  1.00  0.00    -0.481 OA
ATOM      5  H   UNL     1       6.961  -2.239  -4.358  1.00  0.00     0.296 HD
ENDBRANCH   2   4
ENDBRANCH   1   2
BRANCH   1   6
ATOM      6  C   UNL     1       7.079  -0.072  -2.157  1.00  0.00     0.047 C 
BRANCH   6   7
ATOM      7  C   UNL     1       6.520   0.039  -0.785  1.00  0.00    -0.047 A 
ATOM      8  C   UNL     1       5.867   1.183  -0.368  1.00  0.00     0.004 A 
ATOM      9  C   UNL     1       6.621  -0.988   0.135  1.00  0.00     0.004 A 
ATOM     10  C   UNL     1       5.350   1.274   0.910  1.00  0.00     0.000 A 
ATOM     11  C   UNL     1       6.107  -0.899   1.410  1.00  0.00     0.000 A 
ATOM     12  C   UNL     1       5.456   0.246   1.824  1.00  0.00     0.000 A 
ENDBRANCH   6   7
ENDBRANCH   1   6
TORSDOF 4
ENDMDL
MODEL 2
REMARK VINA RESULT:      -7.3      0.318      1.448
REMARK SMILES O=C(O)CCc1ccccc1
REMARK SMILES IDX 4 1 2 2 1 3 3 4 5 6 6 7 7 8 11 9 8 10 10 11 9 12
REMARK H PARENT 3 5
REMARK Flexibility Score: inf
ROOT
ATOM      1  C   UNL     1       8.398  -0.837  -1.873  1.00  0.00     0.127 C 
ENDROOT
BRANCH   1   2
ATOM      2  C   UNL     1       8.419  -1.963  -2.843  1.00  0.00     0.303 C 
ATOM      3  O   UNL     1       9.515  -2.499  -3.136  1.00  0.00    -0.252 OA
BRANCH   2   4
ATOM      4  O   UNL     1       7.262  -2.453  -3.445  1.00  0.00    -0.481 OA
ATOM      5  H   UNL     1       6.984  -2.172  -4.397  1.00  0.00     0.296 HD
ENDBRANCH   2   4
ENDBRANCH   1   2
BRANCH   1   6
ATOM      6  C   UNL     1       7.080  -0.131  -2.027  1.00  0.00     0.047 C 
BRANCH   6   7
ATOM      7  C   UNL     1       6.435   0.160  -0.720  1.00  0.00    -0.047 A 
ATOM      8  C   UNL     1       6.506  -0.738   0.328  1.00  0.00     0.004 A 
ATOM      9  C   UNL     1       5.741   1.332  -0.487  1.00  0.00     0.004 A 
ATOM     10  C   UNL     1       5.903  -0.457   1.540  1.00  0.00     0.000 A 
ATOM     11  C   UNL     1       5.140   1.614   0.720  1.00  0.00     0.000 A 
ATOM     12  C   UNL     1       5.211   0.715   1.765  1.00  0.00     0.000 A 
ENDBRANCH   6   7
ENDBRANCH   1   6
TORSDOF 4
ENDMDL
MODEL 3
REMARK VINA RESULT:      -6.8      3.381      5.103
REMARK SMILES O=C(O)CCc1ccccc1
REMARK SMILES IDX 4 1 2 2 1 3 3 4 5 6 6 7 7 8 11 9 8 10 10 11 9 12
REMARK H PARENT 3 5
REMARK Flexibility Score: inf
ROOT
ATOM      1  C   UNL     1       5.011   1.773   0.718  1.00  0.00     0.127 C 
ENDROOT
BRANCH   1   2
ATOM      2  C   UNL     1       4.465   1.111   1.932  1.00  0.00     0.303 C 
ATOM      3  O   UNL     1       5.134   0.209   2.491  1.00  0.00    -0.252 OA
BRANCH   2   4
ATOM      4  O   UNL     1       3.231   1.454   2.478  1.00  0.00    -0.481 OA
ATOM      5  H   UNL     1       2.806   0.911   3.245  1.00  0.00     0.296 HD
ENDBRANCH   2   4
ENDBRANCH   1   2
BRANCH   1   6
ATOM      6  C   UNL     1       6.511   1.740   0.822  1.00  0.00     0.047 C 
BRANCH   6   7
ATOM      7  C   UNL     1       7.142   1.001  -0.303  1.00  0.00    -0.047 A 
ATOM      8  C   UNL     1       6.427   0.080  -1.044  1.00  0.00     0.004 A 
ATOM      9  C   UNL     1       8.462   1.197  -0.663  1.00  0.00     0.004 A 
ATOM     10  C   UNL     1       7.023  -0.602  -2.088  1.00  0.00     0.000 A 
ATOM     11  C   UNL     1       9.058   0.519  -1.703  1.00  0.00     0.000 A 
ATOM     12  C   UNL     1       8.342  -0.402  -2.441  1.00  0.00     0.000 A 
ENDBRANCH   6   7
ENDBRANCH   1   6
TORSDOF 4
ENDMDL
MODEL 4
REMARK VINA RESULT:      -6.6      1.959      2.345
REMARK SMILES O=C(O)CCc1ccccc1
REMARK SMILES IDX 4 1 2 2 1 3 3 4 5 6 6 7 7 8 11 9 8 10 10 11 9 12
REMARK H PARENT 3 5
REMARK Flexibility Score: inf
ROOT
ATOM      1  C   UNL     1       8.301   0.133  -2.136  1.00  0.00     0.127 C 
ENDROOT
BRANCH   1   2
ATOM      2  C   UNL     1       9.427   0.314  -1.183  1.00  0.00     0.303 C 
ATOM      3  O   UNL     1       9.480  -0.401  -0.154  1.00  0.00    -0.252 OA
BRANCH   2   4
ATOM      4  O   UNL     1      10.436   1.252  -1.388  1.00  0.00    -0.481 OA
ATOM      5  H   UNL     1      10.302   2.251  -1.172  1.00  0.00     0.296 HD
ENDBRANCH   2   4
ENDBRANCH   1   2
BRANCH   1   6
ATOM      6  C   UNL     1       7.235  -0.658  -1.431  1.00  0.00     0.047 C 
BRANCH   6   7
ATOM      7  C   UNL     1       6.406   0.183  -0.528  1.00  0.00    -0.047 A 
ATOM      8  C   UNL     1       5.882   1.388  -0.955  1.00  0.00     0.004 A 
ATOM      9  C   UNL     1       6.119  -0.193   0.771  1.00  0.00     0.004 A 
ATOM     10  C   UNL     1       5.112   2.162  -0.108  1.00  0.00     0.000 A 
ATOM     11  C   UNL     1       5.353   0.577   1.617  1.00  0.00     0.000 A 
ATOM     12  C   UNL     1       4.830   1.781   1.188  1.00  0.00     0.000 A 
ENDBRANCH   6   7
ENDBRANCH   1   6
TORSDOF 4
ENDMDL
MODEL 5
REMARK VINA RESULT:      -6.5      3.701      4.934
REMARK SMILES O=C(O)CCc1ccccc1
REMARK SMILES IDX 4 1 2 2 1 3 3 4 5 6 6 7 7 8 11 9 8 10 10 11 9 12
REMARK H PARENT 3 5
REMARK Flexibility Score: inf
ROOT
ATOM      1  C   UNL     1       5.336   2.962   0.111  1.00  0.00     0.127 C 
ENDROOT
BRANCH   1   2
ATOM      2  C   UNL     1       6.302   3.796   0.872  1.00  0.00     0.303 C 
ATOM      3  O   UNL     1       6.845   4.775   0.305  1.00  0.00    -0.252 OA
BRANCH   2   4
ATOM      4  O   UNL     1       6.632   3.534   2.199  1.00  0.00    -0.481 OA
ATOM      5  H   UNL     1       6.843   4.292   2.866  1.00  0.00     0.296 HD
ENDBRANCH   2   4
ENDBRANCH   1   2
BRANCH   1   6
ATOM      6  C   UNL     1       5.181   1.661   0.849  1.00  0.00     0.047 C 
BRANCH   6   7
ATOM      7  C   UNL     1       5.995   0.570   0.254  1.00  0.00    -0.047 A 
ATOM      8  C   UNL     1       6.316   0.568  -1.090  1.00  0.00     0.004 A 
ATOM      9  C   UNL     1       6.471  -0.488   1.006  1.00  0.00     0.004 A 
ATOM     10  C   UNL     1       7.074  -0.452  -1.634  1.00  0.00     0.000 A 
ATOM     11  C   UNL     1       7.226  -1.505   0.467  1.00  0.00     0.000 A 
ATOM     12  C   UNL     1       7.544  -1.505  -0.876  1.00  0.00     0.000 A 
ENDBRANCH   6   7
ENDBRANCH   1   6
TORSDOF 4
ENDMDL
