@<TRIPOS>MOLECULE
/home/cewinharhar/GITHUB/reincatalyze/data/processed/docking_pred/2023-Apr-25-2033_maxeplen5_maxtrainstep200_exh16_gamma099_lrac3e-4_lrcr1e-3/e3fbdfe9b196bdc40f83d7817e536621cd4b8c1b_ligand_2.pdbqt
 12 12 0 0 0
SMALL
GASTEIGER

@<TRIPOS>ATOM
      1  C          5.3360    2.9620    0.1110 C.3     1  UNL1        0.1270
      2  C          6.3020    3.7960    0.8720 C.2     1  UNL1        0.3030
      3  O          6.8450    4.7750    0.3050 O.2     1  UNL1       -0.2520
      4  O          6.6320    3.5340    2.1990 O.3     1  UNL1       -0.4810
      5  H          6.8430    4.2920    2.8660 H       1  UNL1        0.2960
      6  C          5.1810    1.6610    0.8490 C.3     1  UNL1        0.0470
      7  C          5.9950    0.5700    0.2540 C.2     1  UNL1       -0.0470
      8  C          6.3160    0.5680   -1.0900 C.2     1  UNL1        0.0040
      9  C          6.4710   -0.4880    1.0060 C.2     1  UNL1        0.0040
     10  C          7.0740   -0.4520   -1.6340 C.2     1  UNL1        0.0000
     11  C          7.2260   -1.5050    0.4670 C.2     1  UNL1        0.0000
     12  C          7.5440   -1.5050   -0.8760 C.2     1  UNL1        0.0000
@<TRIPOS>BOND
     1    10     8    1
     2    10    12    2
     3     8     7    2
     4    12    11    1
     5     1     6    1
     6     1     2    1
     7     7     6    1
     8     7     9    1
     9     3     2    2
    10    11     9    2
    11     2     4    1
    12     4     5    1
