@<TRIPOS>MOLECULE
/home/cewinharhar/GITHUB/reincatalyze/data/processed/docking_pred/2023-Apr-25-2033_maxeplen5_maxtrainstep200_exh16_gamma099_lrac3e-4_lrcr1e-3/e3fbdfe9b196bdc40f83d7817e536621cd4b8c1b_ligand_2.pdbqt
 12 12 0 0 0
SMALL
GASTEIGER

@<TRIPOS>ATOM
      1  C          8.3010    0.1330   -2.1360 C.3     1  UNL1        0.1270
      2  C          9.4270    0.3140   -1.1830 C.2     1  UNL1        0.3030
      3  O          9.4800   -0.4010   -0.1540 O.2     1  UNL1       -0.2520
      4  O         10.4360    1.2520   -1.3880 O.3     1  UNL1       -0.4810
      5  H         10.3020    2.2510   -1.1720 H       1  UNL1        0.2960
      6  C          7.2350   -0.6580   -1.4310 C.3     1  UNL1        0.0470
      7  C          6.4060    0.1830   -0.5280 C.2     1  UNL1       -0.0470
      8  C          5.8820    1.3880   -0.9550 C.2     1  UNL1        0.0040
      9  C          6.1190   -0.1930    0.7710 C.2     1  UNL1        0.0040
     10  C          5.1120    2.1620   -0.1080 C.2     1  UNL1        0.0000
     11  C          5.3530    0.5770    1.6170 C.2     1  UNL1        0.0000
     12  C          4.8300    1.7810    1.1880 C.2     1  UNL1        0.0000
@<TRIPOS>BOND
     1     1     6    1
     2     1     2    1
     3     6     7    1
     4     4     2    1
     5     4     5    1
     6     2     3    2
     7     8     7    2
     8     8    10    1
     9     7     9    1
    10    10    12    2
    11     9    11    2
    12    12    11    1
