@<TRIPOS>MOLECULE
/home/cewinharhar/GITHUB/reincatalyze/data/processed/docking_pred/2023-Apr-25-2033_maxeplen5_maxtrainstep200_exh16_gamma099_lrac3e-4_lrcr1e-3/e3fbdfe9b196bdc40f83d7817e536621cd4b8c1b_ligand_2.pdbqt
 12 12 0 0 0
SMALL
GASTEIGER

@<TRIPOS>ATOM
      1  C          8.3980   -0.8370   -1.8730 C.3     1  UNL1        0.1270
      2  C          8.4190   -1.9630   -2.8430 C.2     1  UNL1        0.3030
      3  O          9.5150   -2.4990   -3.1360 O.2     1  UNL1       -0.2520
      4  O          7.2620   -2.4530   -3.4450 O.3     1  UNL1       -0.4810
      5  H          6.9840   -2.1720   -4.3970 H       1  UNL1        0.2960
      6  C          7.0800   -0.1310   -2.0270 C.3     1  UNL1        0.0470
      7  C          6.4350    0.1600   -0.7200 C.2     1  UNL1       -0.0470
      8  C          6.5060   -0.7380    0.3280 C.2     1  UNL1        0.0040
      9  C          5.7410    1.3320   -0.4870 C.2     1  UNL1        0.0040
     10  C          5.9030   -0.4570    1.5400 C.2     1  UNL1        0.0000
     11  C          5.1400    1.6140    0.7200 C.2     1  UNL1        0.0000
     12  C          5.2110    0.7150    1.7650 C.2     1  UNL1        0.0000
@<TRIPOS>BOND
     1     5     4    1
     2     4     2    1
     3     3     2    2
     4     2     1    1
     5     6     1    1
     6     6     7    1
     7     7     9    2
     8     7     8    1
     9     9    11    1
    10     8    10    2
    11    11    12    2
    12    10    12    1
