@<TRIPOS>MOLECULE
/home/cewinharhar/GITHUB/reincatalyze/data/processed/docking_pred/2023-Apr-25-2033_maxeplen5_maxtrainstep200_exh16_gamma099_lrac3e-4_lrcr1e-3/e3fbdfe9b196bdc40f83d7817e536621cd4b8c1b_ligand_2.pdbqt
 12 12 0 0 0
SMALL
GASTEIGER

@<TRIPOS>ATOM
      1  C          8.4860   -0.6040   -2.1630 C.3     1  UNL1        0.1270
      2  C          8.4730   -1.8920   -2.9050 C.2     1  UNL1        0.3030
      3  O          9.5530   -2.5030   -3.0880 O.2     1  UNL1       -0.2520
      4  O          7.3020   -2.4530   -3.4080 O.3     1  UNL1       -0.4810
      5  H          6.9610   -2.2390   -4.3580 H       1  UNL1        0.2960
      6  C          7.0790   -0.0720   -2.1570 C.3     1  UNL1        0.0470
      7  C          6.5200    0.0390   -0.7850 C.2     1  UNL1       -0.0470
      8  C          5.8670    1.1830   -0.3680 C.2     1  UNL1        0.0040
      9  C          6.6210   -0.9880    0.1350 C.2     1  UNL1        0.0040
     10  C          5.3500    1.2740    0.9100 C.2     1  UNL1        0.0000
     11  C          6.1070   -0.8990    1.4100 C.2     1  UNL1        0.0000
     12  C          5.4560    0.2460    1.8240 C.2     1  UNL1        0.0000
@<TRIPOS>BOND
     1     5     4    1
     2     4     2    1
     3     3     2    2
     4     2     1    1
     5     1     6    1
     6     6     7    1
     7     7     8    2
     8     7     9    1
     9     8    10    1
    10     9    11    2
    11    10    12    2
    12    11    12    1
