@<TRIPOS>MOLECULE
/home/cewinharhar/GITHUB/reincatalyze/data/processed/docking_pred/2023-Apr-25-2033_maxeplen5_maxtrainstep200_exh16_gamma099_lrac3e-4_lrcr1e-3/e3fbdfe9b196bdc40f83d7817e536621cd4b8c1b_ligand_2.pdbqt
 12 12 0 0 0
SMALL
GASTEIGER

@<TRIPOS>ATOM
      1  C          5.0110    1.7730    0.7180 C.3     1  UNL1        0.1270
      2  C          4.4650    1.1110    1.9320 C.2     1  UNL1        0.3030
      3  O          5.1340    0.2090    2.4910 O.2     1  UNL1       -0.2520
      4  O          3.2310    1.4540    2.4780 O.3     1  UNL1       -0.4810
      5  H          2.8060    0.9110    3.2450 H       1  UNL1        0.2960
      6  C          6.5110    1.7400    0.8220 C.3     1  UNL1        0.0470
      7  C          7.1420    1.0010   -0.3030 C.2     1  UNL1       -0.0470
      8  C          6.4270    0.0800   -1.0440 C.2     1  UNL1        0.0040
      9  C          8.4620    1.1970   -0.6630 C.2     1  UNL1        0.0040
     10  C          7.0230   -0.6020   -2.0880 C.2     1  UNL1        0.0000
     11  C          9.0580    0.5190   -1.7030 C.2     1  UNL1        0.0000
     12  C          8.3420   -0.4020   -2.4410 C.2     1  UNL1        0.0000
@<TRIPOS>BOND
     1    12    10    2
     2    12    11    1
     3    10     8    1
     4    11     9    2
     5     8     7    2
     6     9     7    1
     7     7     6    1
     8     1     6    1
     9     1     2    1
    10     2     4    1
    11     2     3    2
    12     4     5    1
