@<TRIPOS>MOLECULE
/home/cewinharhar/GITHUB/reincatalyze/data/processed/docking_pred/2023-Apr-25-2033_maxeplen5_maxtrainstep200_exh16_gamma099_lrac3e-4_lrcr1e-3/e4036567ae6c7c824a0e93db279f74886267d276_ligand_2.pdbqt
 12 12 0 0 0
SMALL
GASTEIGER

@<TRIPOS>ATOM
      1  C          8.2500    0.4870   -1.9690 C.3     1  UNL1        0.1270
      2  C          9.4560    0.4330   -1.1020 C.2     1  UNL1        0.3030
      3  O          9.4940   -0.3910   -0.1560 O.2     1  UNL1       -0.2520
      4  O         10.5540    1.2670   -1.2960 O.3     1  UNL1       -0.4810
      5  H         10.4450    2.2740   -1.4890 H       1  UNL1        0.2960
      6  C          7.2330   -0.4560   -1.3890 C.3     1  UNL1        0.0470
      7  C          6.3830    0.1910   -0.3560 C.2     1  UNL1       -0.0470
      8  C          6.1570   -0.4130    0.8660 C.2     1  UNL1        0.0040
      9  C          5.7830    1.4190   -0.5610 C.2     1  UNL1        0.0040
     10  C          5.3650    0.1980    1.8200 C.2     1  UNL1        0.0000
     11  C          4.9930    2.0300    0.3870 C.2     1  UNL1        0.0000
     12  C          4.7680    1.4240    1.6070 C.2     1  UNL1        0.0000
@<TRIPOS>BOND
     1     1     6    1
     2     1     2    1
     3     5     4    1
     4     6     7    1
     5     4     2    1
     6     2     3    2
     7     9     7    2
     8     9    11    1
     9     7     8    1
    10    11    12    2
    11     8    10    2
    12    12    10    1
