MODEL 1
REMARK VINA RESULT:      -7.3      0.000      0.000
REMARK SMILES O=C(O)CCc1ccccc1
REMARK SMILES IDX 4 1 2 2 1 3 3 4 5 6 6 7 7 8 11 9 8 10 10 11 9 12
REMARK H PARENT 3 5
REMARK Flexibility Score: inf
ROOT
ATOM      1  C   UNL     1       8.477  -0.580  -2.191  1.00  0.00     0.127 C 
ENDROOT
BRANCH   1   2
ATOM      2  C   UNL     1       8.486  -1.875  -2.919  1.00  0.00     0.303 C 
ATOM      3  O   UNL     1       9.575  -2.475  -3.088  1.00  0.00    -0.252 OA
BRANCH   2   4
ATOM      4  O   UNL     1       7.326  -2.456  -3.425  1.00  0.00    -0.481 OA
ATOM      5  H   UNL     1       6.953  -3.342  -3.051  1.00  0.00     0.296 HD
ENDBRANCH   2   4
ENDBRANCH   1   2
BRANCH   1   6
ATOM      6  C   UNL     1       7.062  -0.072  -2.188  1.00  0.00     0.047 C 
BRANCH   6   7
ATOM      7  C   UNL     1       6.508   0.057  -0.814  1.00  0.00    -0.047 A 
ATOM      8  C   UNL     1       6.626  -0.969   0.104  1.00  0.00     0.004 A 
ATOM      9  C   UNL     1       5.856   1.199  -0.388  1.00  0.00     0.004 A 
ATOM     10  C   UNL     1       6.108  -0.838   1.379  1.00  0.00     0.000 A 
ATOM     11  C   UNL     1       5.339   1.332   0.881  1.00  0.00     0.000 A 
ATOM     12  C   UNL     1       5.457   0.305   1.796  1.00  0.00     0.000 A 
ENDBRANCH   6   7
ENDBRANCH   1   6
TORSDOF 4
ENDMDL
MODEL 2
REMARK VINA RESULT:      -7.3      0.125      1.718
REMARK SMILES O=C(O)CCc1ccccc1
REMARK SMILES IDX 4 1 2 2 1 3 3 4 5 6 6 7 7 8 11 9 8 10 10 11 9 12
REMARK H PARENT 3 5
REMARK Flexibility Score: inf
ROOT
ATOM      1  C   UNL     1       8.462  -0.650  -2.091  1.00  0.00     0.127 C 
ENDROOT
BRANCH   1   2
ATOM      2  C   UNL     1       8.428  -1.916  -2.870  1.00  0.00     0.303 C 
ATOM      3  O   UNL     1       7.319  -2.397  -3.208  1.00  0.00    -0.252 OA
BRANCH   2   4
ATOM      4  O   UNL     1       9.584  -2.595  -3.243  1.00  0.00    -0.481 OA
ATOM      5  H   UNL     1      10.364  -2.744  -2.584  1.00  0.00     0.296 HD
ENDBRANCH   2   4
ENDBRANCH   1   2
BRANCH   1   6
ATOM      6  C   UNL     1       7.080  -0.060  -2.126  1.00  0.00     0.047 C 
BRANCH   6   7
ATOM      7  C   UNL     1       6.495   0.096  -0.768  1.00  0.00    -0.047 A 
ATOM      8  C   UNL     1       5.822   1.247  -0.407  1.00  0.00     0.004 A 
ATOM      9  C   UNL     1       6.592  -0.894   0.192  1.00  0.00     0.004 A 
ATOM     10  C   UNL     1       5.282   1.381   0.858  1.00  0.00     0.000 A 
ATOM     11  C   UNL     1       6.054  -0.762   1.453  1.00  0.00     0.000 A 
ATOM     12  C   UNL     1       5.383   0.389   1.812  1.00  0.00     0.000 A 
ENDBRANCH   6   7
ENDBRANCH   1   6
TORSDOF 4
ENDMDL
MODEL 3
REMARK VINA RESULT:      -7.2      0.671      1.158
REMARK SMILES O=C(O)CCc1ccccc1
REMARK SMILES IDX 4 1 2 2 1 3 3 4 5 6 6 7 7 8 11 9 8 10 10 11 9 12
REMARK H PARENT 3 5
REMARK Flexibility Score: inf
ROOT
ATOM      1  C   UNL     1       8.269  -0.934  -1.850  1.00  0.00     0.127 C 
ENDROOT
BRANCH   1   2
ATOM      2  C   UNL     1       8.384  -2.024  -2.854  1.00  0.00     0.303 C 
ATOM      3  O   UNL     1       9.517  -2.495  -3.119  1.00  0.00    -0.252 OA
BRANCH   2   4
ATOM      4  O   UNL     1       7.278  -2.548  -3.518  1.00  0.00    -0.481 OA
ATOM      5  H   UNL     1       7.270  -2.680  -4.541  1.00  0.00     0.296 HD
ENDBRANCH   2   4
ENDBRANCH   1   2
BRANCH   1   6
ATOM      6  C   UNL     1       7.357  -1.420  -0.758  1.00  0.00     0.047 C 
BRANCH   6   7
ATOM      7  C   UNL     1       6.542  -0.325  -0.170  1.00  0.00    -0.047 A 
ATOM      8  C   UNL     1       6.093  -0.388   1.135  1.00  0.00     0.004 A 
ATOM      9  C   UNL     1       6.195   0.802  -0.892  1.00  0.00     0.004 A 
ATOM     10  C   UNL     1       5.335   0.636   1.671  1.00  0.00     0.000 A 
ATOM     11  C   UNL     1       5.440   1.824  -0.360  1.00  0.00     0.000 A 
ATOM     12  C   UNL     1       4.992   1.758   0.944  1.00  0.00     0.000 A 
ENDBRANCH   6   7
ENDBRANCH   1   6
TORSDOF 4
ENDMDL
MODEL 4
REMARK VINA RESULT:      -6.8      3.386      5.099
REMARK SMILES O=C(O)CCc1ccccc1
REMARK SMILES IDX 4 1 2 2 1 3 3 4 5 6 6 7 7 8 11 9 8 10 10 11 9 12
REMARK H PARENT 3 5
REMARK Flexibility Score: inf
ROOT
ATOM      1  C   UNL     1       4.984   1.783   0.678  1.00  0.00     0.127 C 
ENDROOT
BRANCH   1   2
ATOM      2  C   UNL     1       4.460   1.125   1.903  1.00  0.00     0.303 C 
ATOM      3  O   UNL     1       5.139   0.225   2.453  1.00  0.00    -0.252 OA
BRANCH   2   4
ATOM      4  O   UNL     1       3.236   1.469   2.470  1.00  0.00    -0.481 OA
ATOM      5  H   UNL     1       2.419   0.840   2.427  1.00  0.00     0.296 HD
ENDBRANCH   2   4
ENDBRANCH   1   2
BRANCH   1   6
ATOM      6  C   UNL     1       6.484   1.798   0.779  1.00  0.00     0.047 C 
BRANCH   6   7
ATOM      7  C   UNL     1       7.135   1.039  -0.322  1.00  0.00    -0.047 A 
ATOM      8  C   UNL     1       8.468   1.229  -0.630  1.00  0.00     0.004 A 
ATOM      9  C   UNL     1       6.446   0.114  -1.084  1.00  0.00     0.004 A 
ATOM     10  C   UNL     1       9.062   0.518  -1.656  1.00  0.00     0.000 A 
ATOM     11  C   UNL     1       7.037  -0.595  -2.106  1.00  0.00     0.000 A 
ATOM     12  C   UNL     1       8.369  -0.403  -2.413  1.00  0.00     0.000 A 
ENDBRANCH   6   7
ENDBRANCH   1   6
TORSDOF 4
ENDMDL
MODEL 5
REMARK VINA RESULT:      -6.6      1.984      2.321
REMARK SMILES O=C(O)CCc1ccccc1
REMARK SMILES IDX 4 1 2 2 1 3 3 4 5 6 6 7 7 8 11 9 8 10 10 11 9 12
REMARK H PARENT 3 5
REMARK Flexibility Score: inf
ROOT
ATOM      1  C   UNL     1       8.250   0.487  -1.969  1.00  0.00     0.127 C 
ENDROOT
BRANCH   1   2
ATOM      2  C   UNL     1       9.456   0.433  -1.102  1.00  0.00     0.303 C 
ATOM      3  O   UNL     1       9.494  -0.391  -0.156  1.00  0.00    -0.252 OA
BRANCH   2   4
ATOM      4  O   UNL     1      10.554   1.267  -1.296  1.00  0.00    -0.481 OA
ATOM      5  H   UNL     1      10.445   2.274  -1.489  1.00  0.00     0.296 HD
ENDBRANCH   2   4
ENDBRANCH   1   2
BRANCH   1   6
ATOM      6  C   UNL     1       7.233  -0.456  -1.389  1.00  0.00     0.047 C 
BRANCH   6   7
ATOM      7  C   UNL     1       6.383   0.191  -0.356  1.00  0.00    -0.047 A 
ATOM      8  C   UNL     1       6.157  -0.413   0.866  1.00  0.00     0.004 A 
ATOM      9  C   UNL     1       5.783   1.419  -0.561  1.00  0.00     0.004 A 
ATOM     10  C   UNL     1       5.365   0.198   1.820  1.00  0.00     0.000 A 
ATOM     11  C   UNL     1       4.993   2.030   0.387  1.00  0.00     0.000 A 
ATOM     12  C   UNL     1       4.768   1.424   1.607  1.00  0.00     0.000 A 
ENDBRANCH   6   7
ENDBRANCH   1   6
TORSDOF 4
ENDMDL
