@<TRIPOS>MOLECULE
/home/cewinharhar/GITHUB/reincatalyze/data/processed/docking_pred/2023-Apr-25-2033_maxeplen5_maxtrainstep200_exh16_gamma099_lrac3e-4_lrcr1e-3/e4036567ae6c7c824a0e93db279f74886267d276_ligand_2.pdbqt
 12 12 0 0 0
SMALL
GASTEIGER

@<TRIPOS>ATOM
      1  C          8.2690   -0.9340   -1.8500 C.3     1  UNL1        0.1270
      2  C          8.3840   -2.0240   -2.8540 C.2     1  UNL1        0.3030
      3  O          9.5170   -2.4950   -3.1190 O.2     1  UNL1       -0.2520
      4  O          7.2780   -2.5480   -3.5180 O.3     1  UNL1       -0.4810
      5  H          7.2700   -2.6800   -4.5410 H       1  UNL1        0.2960
      6  C          7.3570   -1.4200   -0.7580 C.3     1  UNL1        0.0470
      7  C          6.5420   -0.3250   -0.1700 C.2     1  UNL1       -0.0470
      8  C          6.0930   -0.3880    1.1350 C.2     1  UNL1        0.0040
      9  C          6.1950    0.8020   -0.8920 C.2     1  UNL1        0.0040
     10  C          5.3350    0.6360    1.6710 C.2     1  UNL1        0.0000
     11  C          5.4400    1.8240   -0.3600 C.2     1  UNL1        0.0000
     12  C          4.9920    1.7580    0.9440 C.2     1  UNL1        0.0000
@<TRIPOS>BOND
     1     5     4    1
     2     4     2    1
     3     3     2    2
     4     2     1    1
     5     1     6    1
     6     9    11    1
     7     9     7    2
     8     6     7    1
     9    11    12    2
    10     7     8    1
    11    12    10    1
    12     8    10    2
