@<TRIPOS>MOLECULE
/home/cewinharhar/GITHUB/reincatalyze/data/processed/docking_pred/2023-Apr-25-2033_maxeplen5_maxtrainstep200_exh16_gamma099_lrac3e-4_lrcr1e-3/e4036567ae6c7c824a0e93db279f74886267d276_ligand_2.pdbqt
 12 12 0 0 0
SMALL
GASTEIGER

@<TRIPOS>ATOM
      1  C          8.4770   -0.5800   -2.1910 C.3     1  UNL1        0.1270
      2  C          8.4860   -1.8750   -2.9190 C.2     1  UNL1        0.3030
      3  O          9.5750   -2.4750   -3.0880 O.2     1  UNL1       -0.2520
      4  O          7.3260   -2.4560   -3.4250 O.3     1  UNL1       -0.4810
      5  H          6.9530   -3.3420   -3.0510 H       1  UNL1        0.2960
      6  C          7.0620   -0.0720   -2.1880 C.3     1  UNL1        0.0470
      7  C          6.5080    0.0570   -0.8140 C.2     1  UNL1       -0.0470
      8  C          6.6260   -0.9690    0.1040 C.2     1  UNL1        0.0040
      9  C          5.8560    1.1990   -0.3880 C.2     1  UNL1        0.0040
     10  C          6.1080   -0.8380    1.3790 C.2     1  UNL1        0.0000
     11  C          5.3390    1.3320    0.8810 C.2     1  UNL1        0.0000
     12  C          5.4570    0.3050    1.7960 C.2     1  UNL1        0.0000
@<TRIPOS>BOND
     1     4     5    1
     2     4     2    1
     3     3     2    2
     4     2     1    1
     5     1     6    1
     6     6     7    1
     7     7     9    2
     8     7     8    1
     9     9    11    1
    10     8    10    2
    11    11    12    2
    12    10    12    1
