@<TRIPOS>MOLECULE
/home/cewinharhar/GITHUB/reincatalyze/data/processed/docking_pred/2023-Apr-25-2033_maxeplen5_maxtrainstep200_exh16_gamma099_lrac3e-4_lrcr1e-3/e4036567ae6c7c824a0e93db279f74886267d276_ligand_2.pdbqt
 12 12 0 0 0
SMALL
GASTEIGER

@<TRIPOS>ATOM
      1  C          4.9840    1.7830    0.6780 C.3     1  UNL1        0.1270
      2  C          4.4600    1.1250    1.9030 C.2     1  UNL1        0.3030
      3  O          5.1390    0.2250    2.4530 O.2     1  UNL1       -0.2520
      4  O          3.2360    1.4690    2.4700 O.3     1  UNL1       -0.4810
      5  H          2.4190    0.8400    2.4270 H       1  UNL1        0.2960
      6  C          6.4840    1.7980    0.7790 C.3     1  UNL1        0.0470
      7  C          7.1350    1.0390   -0.3220 C.2     1  UNL1       -0.0470
      8  C          8.4680    1.2290   -0.6300 C.2     1  UNL1        0.0040
      9  C          6.4460    0.1140   -1.0840 C.2     1  UNL1        0.0040
     10  C          9.0620    0.5180   -1.6560 C.2     1  UNL1        0.0000
     11  C          7.0370   -0.5950   -2.1060 C.2     1  UNL1        0.0000
     12  C          8.3690   -0.4030   -2.4130 C.2     1  UNL1        0.0000
@<TRIPOS>BOND
     1    12    11    2
     2    12    10    1
     3    11     9    1
     4    10     8    2
     5     9     7    2
     6     8     7    1
     7     7     6    1
     8     1     6    1
     9     1     2    1
    10     2     3    2
    11     2     4    1
    12     5     4    1
