@<TRIPOS>MOLECULE
/home/cewinharhar/GITHUB/reincatalyze/data/processed/docking_pred/2023-Apr-25-2033_maxeplen5_maxtrainstep200_exh16_gamma099_lrac3e-4_lrcr1e-3/e4036567ae6c7c824a0e93db279f74886267d276_ligand_2.pdbqt
 12 12 0 0 0
SMALL
GASTEIGER

@<TRIPOS>ATOM
      1  C          8.4620   -0.6500   -2.0910 C.3     1  UNL1        0.1270
      2  C          8.4280   -1.9160   -2.8700 C.2     1  UNL1        0.3030
      3  O          7.3190   -2.3970   -3.2080 O.2     1  UNL1       -0.2520
      4  O          9.5840   -2.5950   -3.2430 O.3     1  UNL1       -0.4810
      5  H         10.3640   -2.7440   -2.5840 H       1  UNL1        0.2960
      6  C          7.0800   -0.0600   -2.1260 C.3     1  UNL1        0.0470
      7  C          6.4950    0.0960   -0.7680 C.2     1  UNL1       -0.0470
      8  C          5.8220    1.2470   -0.4070 C.2     1  UNL1        0.0040
      9  C          6.5920   -0.8940    0.1920 C.2     1  UNL1        0.0040
     10  C          5.2820    1.3810    0.8580 C.2     1  UNL1        0.0000
     11  C          6.0540   -0.7620    1.4530 C.2     1  UNL1        0.0000
     12  C          5.3830    0.3890    1.8120 C.2     1  UNL1        0.0000
@<TRIPOS>BOND
     1     4     2    1
     2     4     5    1
     3     3     2    2
     4     2     1    1
     5     6     1    1
     6     6     7    1
     7     7     8    2
     8     7     9    1
     9     8    10    1
    10     9    11    2
    11    10    12    2
    12    11    12    1
