@<TRIPOS>MOLECULE
/home/cewinharhar/GITHUB/reincatalyze/data/processed/docking_pred/2023-Apr-25-2033_maxeplen5_maxtrainstep200_exh16_gamma099_lrac3e-4_lrcr1e-3/e69dee760b6a4f483691253cffcee702e9155e2b_ligand_2.pdbqt
 12 12 0 0 0
SMALL
GASTEIGER

@<TRIPOS>ATOM
      1  C          5.5130    2.8460   -0.0370 C.3     1  UNL1        0.1270
      2  C          6.2140    3.8760    0.7730 C.2     1  UNL1        0.3030
      3  O          6.8680    4.7730    0.1890 O.2     1  UNL1       -0.2520
      4  O          6.1730    3.8870    2.1650 O.3     1  UNL1       -0.4810
      5  H          7.0210    4.0370    2.7330 H       1  UNL1        0.2960
      6  C          4.9680    1.8160    0.9130 C.3     1  UNL1        0.0470
      7  C          5.8130    0.5940    0.9710 C.2     1  UNL1       -0.0470
      8  C          5.7130   -0.2960    2.0230 C.2     1  UNL1        0.0040
      9  C          6.7320    0.2870   -0.0150 C.2     1  UNL1        0.0040
     10  C          6.5030   -1.4290    2.0670 C.2     1  UNL1        0.0000
     11  C          7.5200   -0.8410    0.0260 C.2     1  UNL1        0.0000
     12  C          7.4180   -1.7280    1.0790 C.2     1  UNL1        0.0000
@<TRIPOS>BOND
     1     1     2    1
     2     1     6    1
     3     9    11    1
     4     9     7    2
     5    11    12    2
     6     3     2    2
     7     2     4    1
     8     6     7    1
     9     7     8    1
    10    12    10    1
    11     8    10    2
    12     4     5    1
