@<TRIPOS>MOLECULE
/home/cewinharhar/GITHUB/reincatalyze/data/processed/docking_pred/2023-Apr-25-2033_maxeplen5_maxtrainstep200_exh16_gamma099_lrac3e-4_lrcr1e-3/e69dee760b6a4f483691253cffcee702e9155e2b_ligand_2.pdbqt
 12 12 0 0 0
SMALL
GASTEIGER

@<TRIPOS>ATOM
      1  C          8.4360   -0.6010   -2.1620 C.3     1  UNL1        0.1270
      2  C          8.4180   -1.8950   -2.8930 C.2     1  UNL1        0.3030
      3  O          7.3150   -2.4140   -3.1920 O.2     1  UNL1       -0.2520
      4  O          9.5840   -2.5600   -3.2630 O.3     1  UNL1       -0.4810
      5  H         10.5060   -2.0980   -3.2370 H       1  UNL1        0.2960
      6  C          7.0290   -0.0700   -2.1490 C.3     1  UNL1        0.0470
      7  C          6.4840    0.0590   -0.7720 C.2     1  UNL1       -0.0470
      8  C          5.8450    1.2120   -0.3600 C.2     1  UNL1        0.0040
      9  C          6.5850   -0.9600    0.1570 C.2     1  UNL1        0.0040
     10  C          5.3410    1.3210    0.9220 C.2     1  UNL1        0.0000
     11  C          6.0840   -0.8540    1.4350 C.2     1  UNL1        0.0000
     12  C          5.4470    0.3000    1.8440 C.2     1  UNL1        0.0000
@<TRIPOS>BOND
     1     4     5    1
     2     4     2    1
     3     3     2    2
     4     2     1    1
     5     1     6    1
     6     6     7    1
     7     7     8    2
     8     7     9    1
     9     8    10    1
    10     9    11    2
    11    10    12    2
    12    11    12    1
