@<TRIPOS>MOLECULE
/home/cewinharhar/GITHUB/reincatalyze/data/processed/docking_pred/2023-Apr-25-2033_maxeplen5_maxtrainstep200_exh16_gamma099_lrac3e-4_lrcr1e-3/e69dee760b6a4f483691253cffcee702e9155e2b_ligand_2.pdbqt
 12 12 0 0 0
SMALL
GASTEIGER

@<TRIPOS>ATOM
      1  C          8.3460    0.3210   -2.0800 C.3     1  UNL1        0.1270
      2  C          9.4750    0.4050   -1.1170 C.2     1  UNL1        0.3030
      3  O          9.5080   -0.3850   -0.1430 O.2     1  UNL1       -0.2520
      4  O         10.5060    1.3310   -1.2530 O.3     1  UNL1       -0.4810
      5  H         10.9570    1.7670   -0.4340 H       1  UNL1        0.2960
      6  C          7.2890   -0.5520   -1.4640 C.3     1  UNL1        0.0470
      7  C          6.4400    0.1850   -0.4920 C.2     1  UNL1       -0.0470
      8  C          5.8670    1.3990   -0.8190 C.2     1  UNL1        0.0040
      9  C          6.1800   -0.3020    0.7760 C.2     1  UNL1        0.0040
     10  C          5.0790    2.0760    0.0920 C.2     1  UNL1        0.0000
     11  C          5.3950    0.3710    1.6850 C.2     1  UNL1        0.0000
     12  C          4.8250    1.5840    1.3560 C.2     1  UNL1        0.0000
@<TRIPOS>BOND
     1     1     6    1
     2     1     2    1
     3     6     7    1
     4     4     2    1
     5     4     5    1
     6     2     3    2
     7     8     7    2
     8     8    10    1
     9     7     9    1
    10    10    12    2
    11     9    11    2
    12    12    11    1
