MODEL 1
REMARK VINA RESULT:      -7.2      0.000      0.000
REMARK SMILES O=C(O)CCc1ccccc1
REMARK SMILES IDX 4 1 2 2 1 3 3 4 5 6 6 7 7 8 11 9 8 10 10 11 9 12
REMARK H PARENT 3 5
REMARK Flexibility Score: inf
ROOT
ATOM      1  C   UNL     1       8.436  -0.601  -2.162  1.00  0.00     0.127 C 
ENDROOT
BRANCH   1   2
ATOM      2  C   UNL     1       8.418  -1.895  -2.893  1.00  0.00     0.303 C 
ATOM      3  O   UNL     1       7.315  -2.414  -3.192  1.00  0.00    -0.252 OA
BRANCH   2   4
ATOM      4  O   UNL     1       9.584  -2.560  -3.263  1.00  0.00    -0.481 OA
ATOM      5  H   UNL     1      10.506  -2.098  -3.237  1.00  0.00     0.296 HD
ENDBRANCH   2   4
ENDBRANCH   1   2
BRANCH   1   6
ATOM      6  C   UNL     1       7.029  -0.070  -2.149  1.00  0.00     0.047 C 
BRANCH   6   7
ATOM      7  C   UNL     1       6.484   0.059  -0.772  1.00  0.00    -0.047 A 
ATOM      8  C   UNL     1       5.845   1.212  -0.360  1.00  0.00     0.004 A 
ATOM      9  C   UNL     1       6.585  -0.960   0.157  1.00  0.00     0.004 A 
ATOM     10  C   UNL     1       5.341   1.321   0.922  1.00  0.00     0.000 A 
ATOM     11  C   UNL     1       6.084  -0.854   1.435  1.00  0.00     0.000 A 
ATOM     12  C   UNL     1       5.447   0.300   1.844  1.00  0.00     0.000 A 
ENDBRANCH   6   7
ENDBRANCH   1   6
TORSDOF 4
ENDMDL
MODEL 2
REMARK VINA RESULT:      -7.2      0.039      1.420
REMARK SMILES O=C(O)CCc1ccccc1
REMARK SMILES IDX 4 1 2 2 1 3 3 4 5 6 6 7 7 8 11 9 8 10 10 11 9 12
REMARK H PARENT 3 5
REMARK Flexibility Score: inf
ROOT
ATOM      1  C   UNL     1       8.425  -0.600  -2.161  1.00  0.00     0.127 C 
ENDROOT
BRANCH   1   2
ATOM      2  C   UNL     1       8.409  -1.897  -2.886  1.00  0.00     0.303 C 
ATOM      3  O   UNL     1       7.308  -2.402  -3.214  1.00  0.00    -0.252 OA
BRANCH   2   4
ATOM      4  O   UNL     1       9.575  -2.581  -3.219  1.00  0.00    -0.481 OA
ATOM      5  H   UNL     1      10.431  -2.086  -3.515  1.00  0.00     0.296 HD
ENDBRANCH   2   4
ENDBRANCH   1   2
BRANCH   1   6
ATOM      6  C   UNL     1       7.019  -0.067  -2.156  1.00  0.00     0.047 C 
BRANCH   6   7
ATOM      7  C   UNL     1       6.469   0.073  -0.782  1.00  0.00    -0.047 A 
ATOM      8  C   UNL     1       6.604  -0.939   0.149  1.00  0.00     0.004 A 
ATOM      9  C   UNL     1       5.803   1.212  -0.369  1.00  0.00     0.004 A 
ATOM     10  C   UNL     1       6.089  -0.798   1.424  1.00  0.00     0.000 A 
ATOM     11  C   UNL     1       5.290   1.355   0.901  1.00  0.00     0.000 A 
ATOM     12  C   UNL     1       5.425   0.342   1.829  1.00  0.00     0.000 A 
ENDBRANCH   6   7
ENDBRANCH   1   6
TORSDOF 4
ENDMDL
MODEL 3
REMARK VINA RESULT:      -6.8      3.306      5.175
REMARK SMILES O=C(O)CCc1ccccc1
REMARK SMILES IDX 4 1 2 2 1 3 3 4 5 6 6 7 7 8 11 9 8 10 10 11 9 12
REMARK H PARENT 3 5
REMARK Flexibility Score: inf
ROOT
ATOM      1  C   UNL     1       4.988   1.800   0.705  1.00  0.00     0.127 C 
ENDROOT
BRANCH   1   2
ATOM      2  C   UNL     1       4.466   1.123   1.920  1.00  0.00     0.303 C 
ATOM      3  O   UNL     1       5.155   0.228   2.467  1.00  0.00    -0.252 OA
BRANCH   2   4
ATOM      4  O   UNL     1       3.234   1.445   2.484  1.00  0.00    -0.481 OA
ATOM      5  H   UNL     1       3.133   2.206   3.173  1.00  0.00     0.296 HD
ENDBRANCH   2   4
ENDBRANCH   1   2
BRANCH   1   6
ATOM      6  C   UNL     1       6.489   1.803   0.798  1.00  0.00     0.047 C 
BRANCH   6   7
ATOM      7  C   UNL     1       7.128   1.049  -0.313  1.00  0.00    -0.047 A 
ATOM      8  C   UNL     1       6.408   0.145  -1.071  1.00  0.00     0.004 A 
ATOM      9  C   UNL     1       8.461   1.212  -0.642  1.00  0.00     0.004 A 
ATOM     10  C   UNL     1       7.012  -0.550  -2.101  1.00  0.00     0.000 A 
ATOM     11  C   UNL     1       9.064   0.520  -1.668  1.00  0.00     0.000 A 
ATOM     12  C   UNL     1       8.343  -0.383  -2.423  1.00  0.00     0.000 A 
ENDBRANCH   6   7
ENDBRANCH   1   6
TORSDOF 4
ENDMDL
MODEL 4
REMARK VINA RESULT:      -6.6      3.841      5.008
REMARK SMILES O=C(O)CCc1ccccc1
REMARK SMILES IDX 4 1 2 2 1 3 3 4 5 6 6 7 7 8 11 9 8 10 10 11 9 12
REMARK H PARENT 3 5
REMARK Flexibility Score: inf
ROOT
ATOM      1  C   UNL     1       5.513   2.846  -0.037  1.00  0.00     0.127 C 
ENDROOT
BRANCH   1   2
ATOM      2  C   UNL     1       6.214   3.876   0.773  1.00  0.00     0.303 C 
ATOM      3  O   UNL     1       6.868   4.773   0.189  1.00  0.00    -0.252 OA
BRANCH   2   4
ATOM      4  O   UNL     1       6.173   3.887   2.165  1.00  0.00    -0.481 OA
ATOM      5  H   UNL     1       7.021   4.037   2.733  1.00  0.00     0.296 HD
ENDBRANCH   2   4
ENDBRANCH   1   2
BRANCH   1   6
ATOM      6  C   UNL     1       4.968   1.816   0.913  1.00  0.00     0.047 C 
BRANCH   6   7
ATOM      7  C   UNL     1       5.813   0.594   0.971  1.00  0.00    -0.047 A 
ATOM      8  C   UNL     1       5.713  -0.296   2.023  1.00  0.00     0.004 A 
ATOM      9  C   UNL     1       6.732   0.287  -0.015  1.00  0.00     0.004 A 
ATOM     10  C   UNL     1       6.503  -1.429   2.067  1.00  0.00     0.000 A 
ATOM     11  C   UNL     1       7.520  -0.841   0.026  1.00  0.00     0.000 A 
ATOM     12  C   UNL     1       7.418  -1.728   1.079  1.00  0.00     0.000 A 
ENDBRANCH   6   7
ENDBRANCH   1   6
TORSDOF 4
ENDMDL
MODEL 5
REMARK VINA RESULT:      -6.6      1.961      2.265
REMARK SMILES O=C(O)CCc1ccccc1
REMARK SMILES IDX 4 1 2 2 1 3 3 4 5 6 6 7 7 8 11 9 8 10 10 11 9 12
REMARK H PARENT 3 5
REMARK Flexibility Score: inf
ROOT
ATOM      1  C   UNL     1       8.346   0.321  -2.080  1.00  0.00     0.127 C 
ENDROOT
BRANCH   1   2
ATOM      2  C   UNL     1       9.475   0.405  -1.117  1.00  0.00     0.303 C 
ATOM      3  O   UNL     1       9.508  -0.385  -0.143  1.00  0.00    -0.252 OA
BRANCH   2   4
ATOM      4  O   UNL     1      10.506   1.331  -1.253  1.00  0.00    -0.481 OA
ATOM      5  H   UNL     1      10.957   1.767  -0.434  1.00  0.00     0.296 HD
ENDBRANCH   2   4
ENDBRANCH   1   2
BRANCH   1   6
ATOM      6  C   UNL     1       7.289  -0.552  -1.464  1.00  0.00     0.047 C 
BRANCH   6   7
ATOM      7  C   UNL     1       6.440   0.185  -0.492  1.00  0.00    -0.047 A 
ATOM      8  C   UNL     1       5.867   1.399  -0.819  1.00  0.00     0.004 A 
ATOM      9  C   UNL     1       6.180  -0.302   0.776  1.00  0.00     0.004 A 
ATOM     10  C   UNL     1       5.079   2.076   0.092  1.00  0.00     0.000 A 
ATOM     11  C   UNL     1       5.395   0.371   1.685  1.00  0.00     0.000 A 
ATOM     12  C   UNL     1       4.825   1.584   1.356  1.00  0.00     0.000 A 
ENDBRANCH   6   7
ENDBRANCH   1   6
TORSDOF 4
ENDMDL
