@<TRIPOS>MOLECULE
/home/cewinharhar/GITHUB/reincatalyze/data/processed/docking_pred/2023-Apr-25-2033_maxeplen5_maxtrainstep200_exh16_gamma099_lrac3e-4_lrcr1e-3/e69dee760b6a4f483691253cffcee702e9155e2b_ligand_2.pdbqt
 12 12 0 0 0
SMALL
GASTEIGER

@<TRIPOS>ATOM
      1  C          4.9880    1.8000    0.7050 C.3     1  UNL1        0.1270
      2  C          4.4660    1.1230    1.9200 C.2     1  UNL1        0.3030
      3  O          5.1550    0.2280    2.4670 O.2     1  UNL1       -0.2520
      4  O          3.2340    1.4450    2.4840 O.3     1  UNL1       -0.4810
      5  H          3.1330    2.2060    3.1730 H       1  UNL1        0.2960
      6  C          6.4890    1.8030    0.7980 C.3     1  UNL1        0.0470
      7  C          7.1280    1.0490   -0.3130 C.2     1  UNL1       -0.0470
      8  C          6.4080    0.1450   -1.0710 C.2     1  UNL1        0.0040
      9  C          8.4610    1.2120   -0.6420 C.2     1  UNL1        0.0040
     10  C          7.0120   -0.5500   -2.1010 C.2     1  UNL1        0.0000
     11  C          9.0640    0.5200   -1.6680 C.2     1  UNL1        0.0000
     12  C          8.3430   -0.3830   -2.4230 C.2     1  UNL1        0.0000
@<TRIPOS>BOND
     1    12    10    2
     2    12    11    1
     3    10     8    1
     4    11     9    2
     5     8     7    2
     6     9     7    1
     7     7     6    1
     8     1     6    1
     9     1     2    1
    10     2     3    2
    11     2     4    1
    12     4     5    1
