@<TRIPOS>MOLECULE
/home/cewinharhar/GITHUB/reincatalyze/data/processed/docking_pred/2023-Apr-25-2033_maxeplen5_maxtrainstep200_exh16_gamma099_lrac3e-4_lrcr1e-3/e69dee760b6a4f483691253cffcee702e9155e2b_ligand_2.pdbqt
 12 12 0 0 0
SMALL
GASTEIGER

@<TRIPOS>ATOM
      1  C          8.4250   -0.6000   -2.1610 C.3     1  UNL1        0.1270
      2  C          8.4090   -1.8970   -2.8860 C.2     1  UNL1        0.3030
      3  O          7.3080   -2.4020   -3.2140 O.2     1  UNL1       -0.2520
      4  O          9.5750   -2.5810   -3.2190 O.3     1  UNL1       -0.4810
      5  H         10.4310   -2.0860   -3.5150 H       1  UNL1        0.2960
      6  C          7.0190   -0.0670   -2.1560 C.3     1  UNL1        0.0470
      7  C          6.4690    0.0730   -0.7820 C.2     1  UNL1       -0.0470
      8  C          6.6040   -0.9390    0.1490 C.2     1  UNL1        0.0040
      9  C          5.8030    1.2120   -0.3690 C.2     1  UNL1        0.0040
     10  C          6.0890   -0.7980    1.4240 C.2     1  UNL1        0.0000
     11  C          5.2900    1.3550    0.9010 C.2     1  UNL1        0.0000
     12  C          5.4250    0.3420    1.8290 C.2     1  UNL1        0.0000
@<TRIPOS>BOND
     1     5     4    1
     2     4     2    1
     3     3     2    2
     4     2     1    1
     5     1     6    1
     6     6     7    1
     7     7     9    2
     8     7     8    1
     9     9    11    1
    10     8    10    2
    11    11    12    2
    12    10    12    1
