@<TRIPOS>MOLECULE
/home/cewinharhar/GITHUB/reincatalyze/data/processed/docking_pred/2023-Apr-25-2033_maxeplen5_maxtrainstep200_exh16_gamma099_lrac3e-4_lrcr1e-3/e72dfb9ce69b60d9dd63e32278a4acfac8a78322_ligand_2.pdbqt
 12 12 0 0 0
SMALL
GASTEIGER

@<TRIPOS>ATOM
      1  C          5.0210    1.7790    0.7360 C.3     1  UNL1        0.1270
      2  C          4.4610    1.1050    1.9370 C.2     1  UNL1        0.3030
      3  O          5.1180    0.1890    2.4870 O.2     1  UNL1       -0.2520
      4  O          3.2270    1.4530    2.4820 O.3     1  UNL1       -0.4810
      5  H          2.8800    2.4240    2.4660 H       1  UNL1        0.2960
      6  C          6.5200    1.7180    0.8410 C.3     1  UNL1        0.0470
      7  C          7.1380    0.9760   -0.2890 C.2     1  UNL1       -0.0470
      8  C          6.4260    0.0250   -0.9950 C.2     1  UNL1        0.0040
      9  C          8.4430    1.1970   -0.6880 C.2     1  UNL1        0.0040
     10  C          7.0110   -0.6590   -2.0440 C.2     1  UNL1        0.0000
     11  C          9.0270    0.5170   -1.7330 C.2     1  UNL1        0.0000
     12  C          8.3140   -0.4330   -2.4360 C.2     1  UNL1        0.0000
@<TRIPOS>BOND
     1    12    10    2
     2    12    11    1
     3    10     8    1
     4    11     9    2
     5     8     7    2
     6     9     7    1
     7     7     6    1
     8     1     6    1
     9     1     2    1
    10     2     4    1
    11     2     3    2
    12     5     4    1
