@<TRIPOS>MOLECULE
/home/cewinharhar/GITHUB/reincatalyze/data/processed/docking_pred/2023-Apr-25-2033_maxeplen5_maxtrainstep200_exh16_gamma099_lrac3e-4_lrcr1e-3/e72dfb9ce69b60d9dd63e32278a4acfac8a78322_ligand_2.pdbqt
 12 12 0 0 0
SMALL
GASTEIGER

@<TRIPOS>ATOM
      1  C          8.2790    0.1590   -2.1770 C.3     1  UNL1        0.1270
      2  C          9.4060    0.3490   -1.2270 C.2     1  UNL1        0.3030
      3  O          9.4810   -0.3850   -0.2120 O.2     1  UNL1       -0.2520
      4  O         10.3900    1.3150   -1.4190 O.3     1  UNL1       -0.4810
      5  H         10.6150    1.6840   -2.3550 H       1  UNL1        0.2960
      6  C          7.2210   -0.6420   -1.4690 C.3     1  UNL1        0.0470
      7  C          6.4000    0.1890   -0.5500 C.2     1  UNL1       -0.0470
      8  C          5.8700    1.3980   -0.9590 C.2     1  UNL1        0.0040
      9  C          6.1250   -0.2020    0.7470 C.2     1  UNL1        0.0040
     10  C          5.1080    2.1620   -0.0960 C.2     1  UNL1        0.0000
     11  C          5.3660    0.5580    1.6090 C.2     1  UNL1        0.0000
     12  C          4.8390    1.7660    1.1980 C.2     1  UNL1        0.0000
@<TRIPOS>BOND
     1     5     4    1
     2     1     6    1
     3     1     2    1
     4     6     7    1
     5     4     2    1
     6     2     3    2
     7     8     7    2
     8     8    10    1
     9     7     9    1
    10    10    12    2
    11     9    11    2
    12    12    11    1
