@<TRIPOS>MOLECULE
/home/cewinharhar/GITHUB/reincatalyze/data/processed/docking_pred/2023-Apr-25-2033_maxeplen5_maxtrainstep200_exh16_gamma099_lrac3e-4_lrcr1e-3/e72dfb9ce69b60d9dd63e32278a4acfac8a78322_ligand_2.pdbqt
 12 12 0 0 0
SMALL
GASTEIGER

@<TRIPOS>ATOM
      1  C          8.4690   -0.6600   -2.0990 C.3     1  UNL1        0.1270
      2  C          8.4680   -1.9170   -2.8900 C.2     1  UNL1        0.3030
      3  O          9.5510   -2.5210   -3.0820 O.2     1  UNL1       -0.2520
      4  O          7.3050   -2.4590   -3.4310 O.3     1  UNL1       -0.4810
      5  H          7.0150   -3.4300   -3.2370 H       1  UNL1        0.2960
      6  C          7.0730   -0.1020   -2.1340 C.3     1  UNL1        0.0470
      7  C          6.4940    0.0670   -0.7750 C.2     1  UNL1       -0.0470
      8  C          5.8430    1.2300   -0.4140 C.2     1  UNL1        0.0040
      9  C          6.5760   -0.9220    0.1870 C.2     1  UNL1        0.0040
     10  C          5.3090    1.3770    0.8520 C.2     1  UNL1        0.0000
     11  C          6.0450   -0.7790    1.4490 C.2     1  UNL1        0.0000
     12  C          5.3950    0.3850    1.8080 C.2     1  UNL1        0.0000
@<TRIPOS>BOND
     1     4     5    1
     2     4     2    1
     3     3     2    2
     4     2     1    1
     5     6     1    1
     6     6     7    1
     7     7     8    2
     8     7     9    1
     9     8    10    1
    10     9    11    2
    11    10    12    2
    12    11    12    1
