MODEL 1
REMARK VINA RESULT:      -7.3      0.000      0.000
REMARK SMILES O=C(O)CCc1ccccc1
REMARK SMILES IDX 4 1 2 2 1 3 3 4 5 6 6 7 7 8 11 9 8 10 10 11 9 12
REMARK H PARENT 3 5
REMARK Flexibility Score: inf
ROOT
ATOM      1  C   UNL     1       8.469  -0.660  -2.099  1.00  0.00     0.127 C 
ENDROOT
BRANCH   1   2
ATOM      2  C   UNL     1       8.468  -1.917  -2.890  1.00  0.00     0.303 C 
ATOM      3  O   UNL     1       9.551  -2.521  -3.082  1.00  0.00    -0.252 OA
BRANCH   2   4
ATOM      4  O   UNL     1       7.305  -2.459  -3.431  1.00  0.00    -0.481 OA
ATOM      5  H   UNL     1       7.015  -3.430  -3.237  1.00  0.00     0.296 HD
ENDBRANCH   2   4
ENDBRANCH   1   2
BRANCH   1   6
ATOM      6  C   UNL     1       7.073  -0.102  -2.134  1.00  0.00     0.047 C 
BRANCH   6   7
ATOM      7  C   UNL     1       6.494   0.067  -0.775  1.00  0.00    -0.047 A 
ATOM      8  C   UNL     1       5.843   1.230  -0.414  1.00  0.00     0.004 A 
ATOM      9  C   UNL     1       6.576  -0.922   0.187  1.00  0.00     0.004 A 
ATOM     10  C   UNL     1       5.309   1.377   0.852  1.00  0.00     0.000 A 
ATOM     11  C   UNL     1       6.045  -0.779   1.449  1.00  0.00     0.000 A 
ATOM     12  C   UNL     1       5.395   0.385   1.808  1.00  0.00     0.000 A 
ENDBRANCH   6   7
ENDBRANCH   1   6
TORSDOF 4
ENDMDL
MODEL 2
REMARK VINA RESULT:      -7.3      0.094      1.422
REMARK SMILES O=C(O)CCc1ccccc1
REMARK SMILES IDX 4 1 2 2 1 3 3 4 5 6 6 7 7 8 11 9 8 10 10 11 9 12
REMARK H PARENT 3 5
REMARK Flexibility Score: inf
ROOT
ATOM      1  C   UNL     1       8.444  -0.539  -2.239  1.00  0.00     0.127 C 
ENDROOT
BRANCH   1   2
ATOM      2  C   UNL     1       8.479  -1.854  -2.929  1.00  0.00     0.303 C 
ATOM      3  O   UNL     1       9.580  -2.435  -3.085  1.00  0.00    -0.252 OA
BRANCH   2   4
ATOM      4  O   UNL     1       7.331  -2.475  -3.414  1.00  0.00    -0.481 OA
ATOM      5  H   UNL     1       7.086  -2.461  -4.416  1.00  0.00     0.296 HD
ENDBRANCH   2   4
ENDBRANCH   1   2
BRANCH   1   6
ATOM      6  C   UNL     1       7.013  -0.076  -2.219  1.00  0.00     0.047 C 
BRANCH   6   7
ATOM      7  C   UNL     1       6.483   0.073  -0.839  1.00  0.00    -0.047 A 
ATOM      8  C   UNL     1       6.607  -0.943   0.089  1.00  0.00     0.004 A 
ATOM      9  C   UNL     1       5.848   1.226  -0.415  1.00  0.00     0.004 A 
ATOM     10  C   UNL     1       6.111  -0.794   1.370  1.00  0.00     0.000 A 
ATOM     11  C   UNL     1       5.353   1.377   0.861  1.00  0.00     0.000 A 
ATOM     12  C   UNL     1       5.477   0.359   1.785  1.00  0.00     0.000 A 
ENDBRANCH   6   7
ENDBRANCH   1   6
TORSDOF 4
ENDMDL
MODEL 3
REMARK VINA RESULT:      -6.8      3.383      5.111
REMARK SMILES O=C(O)CCc1ccccc1
REMARK SMILES IDX 4 1 2 2 1 3 3 4 5 6 6 7 7 8 11 9 8 10 10 11 9 12
REMARK H PARENT 3 5
REMARK Flexibility Score: inf
ROOT
ATOM      1  C   UNL     1       5.021   1.779   0.736  1.00  0.00     0.127 C 
ENDROOT
BRANCH   1   2
ATOM      2  C   UNL     1       4.461   1.105   1.937  1.00  0.00     0.303 C 
ATOM      3  O   UNL     1       5.118   0.189   2.487  1.00  0.00    -0.252 OA
BRANCH   2   4
ATOM      4  O   UNL     1       3.227   1.453   2.482  1.00  0.00    -0.481 OA
ATOM      5  H   UNL     1       2.880   2.424   2.466  1.00  0.00     0.296 HD
ENDBRANCH   2   4
ENDBRANCH   1   2
BRANCH   1   6
ATOM      6  C   UNL     1       6.520   1.718   0.841  1.00  0.00     0.047 C 
BRANCH   6   7
ATOM      7  C   UNL     1       7.138   0.976  -0.289  1.00  0.00    -0.047 A 
ATOM      8  C   UNL     1       6.426   0.025  -0.995  1.00  0.00     0.004 A 
ATOM      9  C   UNL     1       8.443   1.197  -0.688  1.00  0.00     0.004 A 
ATOM     10  C   UNL     1       7.011  -0.659  -2.044  1.00  0.00     0.000 A 
ATOM     11  C   UNL     1       9.027   0.517  -1.733  1.00  0.00     0.000 A 
ATOM     12  C   UNL     1       8.314  -0.433  -2.436  1.00  0.00     0.000 A 
ENDBRANCH   6   7
ENDBRANCH   1   6
TORSDOF 4
ENDMDL
MODEL 4
REMARK VINA RESULT:      -6.6      1.939      2.310
REMARK SMILES O=C(O)CCc1ccccc1
REMARK SMILES IDX 4 1 2 2 1 3 3 4 5 6 6 7 7 8 11 9 8 10 10 11 9 12
REMARK H PARENT 3 5
REMARK Flexibility Score: inf
ROOT
ATOM      1  C   UNL     1       8.279   0.159  -2.177  1.00  0.00     0.127 C 
ENDROOT
BRANCH   1   2
ATOM      2  C   UNL     1       9.406   0.349  -1.227  1.00  0.00     0.303 C 
ATOM      3  O   UNL     1       9.481  -0.385  -0.212  1.00  0.00    -0.252 OA
BRANCH   2   4
ATOM      4  O   UNL     1      10.390   1.315  -1.419  1.00  0.00    -0.481 OA
ATOM      5  H   UNL     1      10.615   1.684  -2.355  1.00  0.00     0.296 HD
ENDBRANCH   2   4
ENDBRANCH   1   2
BRANCH   1   6
ATOM      6  C   UNL     1       7.221  -0.642  -1.469  1.00  0.00     0.047 C 
BRANCH   6   7
ATOM      7  C   UNL     1       6.400   0.189  -0.550  1.00  0.00    -0.047 A 
ATOM      8  C   UNL     1       5.870   1.398  -0.959  1.00  0.00     0.004 A 
ATOM      9  C   UNL     1       6.125  -0.202   0.747  1.00  0.00     0.004 A 
ATOM     10  C   UNL     1       5.108   2.162  -0.096  1.00  0.00     0.000 A 
ATOM     11  C   UNL     1       5.366   0.558   1.609  1.00  0.00     0.000 A 
ATOM     12  C   UNL     1       4.839   1.766   1.198  1.00  0.00     0.000 A 
ENDBRANCH   6   7
ENDBRANCH   1   6
TORSDOF 4
ENDMDL
MODEL 5
REMARK VINA RESULT:      -6.6      1.878      2.805
REMARK SMILES O=C(O)CCc1ccccc1
REMARK SMILES IDX 4 1 2 2 1 3 3 4 5 6 6 7 7 8 11 9 8 10 10 11 9 12
REMARK H PARENT 3 5
REMARK Flexibility Score: inf
ROOT
ATOM      1  C   UNL     1       8.244  -1.578   1.093  1.00  0.00     0.127 C 
ENDROOT
BRANCH   1   2
ATOM      2  C   UNL     1       8.500  -2.795   0.280  1.00  0.00     0.303 C 
ATOM      3  O   UNL     1       9.123  -3.755   0.794  1.00  0.00    -0.252 OA
BRANCH   2   4
ATOM      4  O   UNL     1       8.073  -2.915  -1.040  1.00  0.00    -0.481 OA
ATOM      5  H   UNL     1       8.513  -2.382  -1.805  1.00  0.00     0.296 HD
ENDBRANCH   2   4
ENDBRANCH   1   2
BRANCH   1   6
ATOM      6  C   UNL     1       6.758  -1.476   1.300  1.00  0.00     0.047 C 
BRANCH   6   7
ATOM      7  C   UNL     1       6.197  -0.206   0.770  1.00  0.00    -0.047 A 
ATOM      8  C   UNL     1       5.430   0.624   1.565  1.00  0.00     0.004 A 
ATOM      9  C   UNL     1       6.412   0.207  -0.531  1.00  0.00     0.004 A 
ATOM     10  C   UNL     1       4.914   1.803   1.063  1.00  0.00     0.000 A 
ATOM     11  C   UNL     1       5.898   1.381  -1.035  1.00  0.00     0.000 A 
ATOM     12  C   UNL     1       5.132   2.209  -0.238  1.00  0.00     0.000 A 
ENDBRANCH   6   7
ENDBRANCH   1   6
TORSDOF 4
ENDMDL
