@<TRIPOS>MOLECULE
/home/cewinharhar/GITHUB/reincatalyze/data/processed/docking_pred/2023-Apr-25-2033_maxeplen5_maxtrainstep200_exh16_gamma099_lrac3e-4_lrcr1e-3/e72dfb9ce69b60d9dd63e32278a4acfac8a78322_ligand_2.pdbqt
 12 12 0 0 0
SMALL
GASTEIGER

@<TRIPOS>ATOM
      1  C          8.4440   -0.5390   -2.2390 C.3     1  UNL1        0.1270
      2  C          8.4790   -1.8540   -2.9290 C.2     1  UNL1        0.3030
      3  O          9.5800   -2.4350   -3.0850 O.2     1  UNL1       -0.2520
      4  O          7.3310   -2.4750   -3.4140 O.3     1  UNL1       -0.4810
      5  H          7.0860   -2.4610   -4.4160 H       1  UNL1        0.2960
      6  C          7.0130   -0.0760   -2.2190 C.3     1  UNL1        0.0470
      7  C          6.4830    0.0730   -0.8390 C.2     1  UNL1       -0.0470
      8  C          6.6070   -0.9430    0.0890 C.2     1  UNL1        0.0040
      9  C          5.8480    1.2260   -0.4150 C.2     1  UNL1        0.0040
     10  C          6.1110   -0.7940    1.3700 C.2     1  UNL1        0.0000
     11  C          5.3530    1.3770    0.8610 C.2     1  UNL1        0.0000
     12  C          5.4770    0.3590    1.7850 C.2     1  UNL1        0.0000
@<TRIPOS>BOND
     1     5     4    1
     2     4     2    1
     3     3     2    2
     4     2     1    1
     5     1     6    1
     6     6     7    1
     7     7     9    2
     8     7     8    1
     9     9    11    1
    10     8    10    2
    11    11    12    2
    12    10    12    1
