@<TRIPOS>MOLECULE
/home/cewinharhar/GITHUB/reincatalyze/data/processed/docking_pred/2023-Apr-25-2033_maxeplen5_maxtrainstep200_exh16_gamma099_lrac3e-4_lrcr1e-3/e72dfb9ce69b60d9dd63e32278a4acfac8a78322_ligand_2.pdbqt
 12 12 0 0 0
SMALL
GASTEIGER

@<TRIPOS>ATOM
      1  C          8.2440   -1.5780    1.0930 C.3     1  UNL1        0.1270
      2  C          8.5000   -2.7950    0.2800 C.2     1  UNL1        0.3030
      3  O          9.1230   -3.7550    0.7940 O.2     1  UNL1       -0.2520
      4  O          8.0730   -2.9150   -1.0400 O.3     1  UNL1       -0.4810
      5  H          8.5130   -2.3820   -1.8050 H       1  UNL1        0.2960
      6  C          6.7580   -1.4760    1.3000 C.3     1  UNL1        0.0470
      7  C          6.1970   -0.2060    0.7700 C.2     1  UNL1       -0.0470
      8  C          5.4300    0.6240    1.5650 C.2     1  UNL1        0.0040
      9  C          6.4120    0.2070   -0.5310 C.2     1  UNL1        0.0040
     10  C          4.9140    1.8030    1.0630 C.2     1  UNL1        0.0000
     11  C          5.8980    1.3810   -1.0350 C.2     1  UNL1        0.0000
     12  C          5.1320    2.2090   -0.2380 C.2     1  UNL1        0.0000
@<TRIPOS>BOND
     1     5     4    1
     2     4     2    1
     3    11     9    1
     4    11    12    2
     5     9     7    2
     6    12    10    1
     7     2     3    2
     8     2     1    1
     9     7     6    1
    10     7     8    1
    11    10     8    2
    12     1     6    1
