@<TRIPOS>MOLECULE
/home/cewinharhar/GITHUB/reincatalyze/data/processed/docking_pred/2023-Apr-25-2033_maxeplen5_maxtrainstep200_exh16_gamma099_lrac3e-4_lrcr1e-3/eb9358f7bad4db9539b7d0967c6d7dee777b6146_ligand_2.pdbqt
 12 12 0 0 0
SMALL
GASTEIGER

@<TRIPOS>ATOM
      1  C          8.4480   -0.5450   -2.2510 C.3     1  UNL1        0.1270
      2  C          8.4780   -1.8640   -2.9360 C.2     1  UNL1        0.3030
      3  O          9.5770   -2.4480   -3.0900 O.2     1  UNL1       -0.2520
      4  O          7.3270   -2.4820   -3.4170 O.3     1  UNL1       -0.4810
      5  H          6.3860   -2.1040   -3.2280 H       1  UNL1        0.2960
      6  C          7.0180   -0.0800   -2.2280 C.3     1  UNL1        0.0470
      7  C          6.4940    0.0750   -0.8460 C.2     1  UNL1       -0.0470
      8  C          6.6110   -0.9420    0.0820 C.2     1  UNL1        0.0040
      9  C          5.8690    1.2330   -0.4220 C.2     1  UNL1        0.0040
     10  C          6.1200   -0.7870    1.3640 C.2     1  UNL1        0.0000
     11  C          5.3800    1.3900    0.8560 C.2     1  UNL1        0.0000
     12  C          5.4980    0.3720    1.7810 C.2     1  UNL1        0.0000
@<TRIPOS>BOND
     1     4     5    1
     2     4     2    1
     3     3     2    2
     4     2     1    1
     5     1     6    1
     6     6     7    1
     7     7     9    2
     8     7     8    1
     9     9    11    1
    10     8    10    2
    11    11    12    2
    12    10    12    1
