MODEL 1
REMARK VINA RESULT:      -7.3      0.000      0.000
REMARK SMILES O=C(O)CCc1ccccc1
REMARK SMILES IDX 4 1 2 2 1 3 3 4 5 6 6 7 7 8 11 9 8 10 10 11 9 12
REMARK H PARENT 3 5
REMARK Flexibility Score: inf
ROOT
ATOM      1  C   UNL     1       8.448  -0.545  -2.251  1.00  0.00     0.127 C 
ENDROOT
BRANCH   1   2
ATOM      2  C   UNL     1       8.478  -1.864  -2.936  1.00  0.00     0.303 C 
ATOM      3  O   UNL     1       9.577  -2.448  -3.090  1.00  0.00    -0.252 OA
BRANCH   2   4
ATOM      4  O   UNL     1       7.327  -2.482  -3.417  1.00  0.00    -0.481 OA
ATOM      5  H   UNL     1       6.386  -2.104  -3.228  1.00  0.00     0.296 HD
ENDBRANCH   2   4
ENDBRANCH   1   2
BRANCH   1   6
ATOM      6  C   UNL     1       7.018  -0.080  -2.228  1.00  0.00     0.047 C 
BRANCH   6   7
ATOM      7  C   UNL     1       6.494   0.075  -0.846  1.00  0.00    -0.047 A 
ATOM      8  C   UNL     1       6.611  -0.942   0.082  1.00  0.00     0.004 A 
ATOM      9  C   UNL     1       5.869   1.233  -0.422  1.00  0.00     0.004 A 
ATOM     10  C   UNL     1       6.120  -0.787   1.364  1.00  0.00     0.000 A 
ATOM     11  C   UNL     1       5.380   1.390   0.856  1.00  0.00     0.000 A 
ATOM     12  C   UNL     1       5.498   0.372   1.781  1.00  0.00     0.000 A 
ENDBRANCH   6   7
ENDBRANCH   1   6
TORSDOF 4
ENDMDL
MODEL 2
REMARK VINA RESULT:      -7.3      0.128      1.719
REMARK SMILES O=C(O)CCc1ccccc1
REMARK SMILES IDX 4 1 2 2 1 3 3 4 5 6 6 7 7 8 11 9 8 10 10 11 9 12
REMARK H PARENT 3 5
REMARK Flexibility Score: inf
ROOT
ATOM      1  C   UNL     1       8.435  -0.598  -2.160  1.00  0.00     0.127 C 
ENDROOT
BRANCH   1   2
ATOM      2  C   UNL     1       8.412  -1.891  -2.892  1.00  0.00     0.303 C 
ATOM      3  O   UNL     1       7.308  -2.398  -3.207  1.00  0.00    -0.252 OA
BRANCH   2   4
ATOM      4  O   UNL     1       9.576  -2.569  -3.247  1.00  0.00    -0.481 OA
ATOM      5  H   UNL     1      10.045  -2.408  -4.151  1.00  0.00     0.296 HD
ENDBRANCH   2   4
ENDBRANCH   1   2
BRANCH   1   6
ATOM      6  C   UNL     1       7.029  -0.063  -2.144  1.00  0.00     0.047 C 
BRANCH   6   7
ATOM      7  C   UNL     1       6.484   0.057  -0.766  1.00  0.00    -0.047 A 
ATOM      8  C   UNL     1       5.838   1.205  -0.350  1.00  0.00     0.004 A 
ATOM      9  C   UNL     1       6.592  -0.965   0.159  1.00  0.00     0.004 A 
ATOM     10  C   UNL     1       5.334   1.305   0.933  1.00  0.00     0.000 A 
ATOM     11  C   UNL     1       6.091  -0.867   1.438  1.00  0.00     0.000 A 
ATOM     12  C   UNL     1       5.446   0.282   1.851  1.00  0.00     0.000 A 
ENDBRANCH   6   7
ENDBRANCH   1   6
TORSDOF 4
ENDMDL
MODEL 3
REMARK VINA RESULT:      -6.8      3.390      5.076
REMARK SMILES O=C(O)CCc1ccccc1
REMARK SMILES IDX 4 1 2 2 1 3 3 4 5 6 6 7 7 8 11 9 8 10 10 11 9 12
REMARK H PARENT 3 5
REMARK Flexibility Score: inf
ROOT
ATOM      1  C   UNL     1       4.993   1.754   0.712  1.00  0.00     0.127 C 
ENDROOT
BRANCH   1   2
ATOM      2  C   UNL     1       4.451   1.103   1.934  1.00  0.00     0.303 C 
ATOM      3  O   UNL     1       5.121   0.202   2.495  1.00  0.00    -0.252 OA
BRANCH   2   4
ATOM      4  O   UNL     1       3.222   1.454   2.486  1.00  0.00    -0.481 OA
ATOM      5  H   UNL     1       2.495   0.750   2.686  1.00  0.00     0.296 HD
ENDBRANCH   2   4
ENDBRANCH   1   2
BRANCH   1   6
ATOM      6  C   UNL     1       6.493   1.736   0.817  1.00  0.00     0.047 C 
BRANCH   6   7
ATOM      7  C   UNL     1       7.131   0.998  -0.305  1.00  0.00    -0.047 A 
ATOM      8  C   UNL     1       6.426   0.064  -1.040  1.00  0.00     0.004 A 
ATOM      9  C   UNL     1       8.448   1.206  -0.667  1.00  0.00     0.004 A 
ATOM     10  C   UNL     1       7.029  -0.617  -2.080  1.00  0.00     0.000 A 
ATOM     11  C   UNL     1       9.051   0.529  -1.704  1.00  0.00     0.000 A 
ATOM     12  C   UNL     1       8.345  -0.404  -2.436  1.00  0.00     0.000 A 
ENDBRANCH   6   7
ENDBRANCH   1   6
TORSDOF 4
ENDMDL
MODEL 4
REMARK VINA RESULT:      -6.6      1.894      2.635
REMARK SMILES O=C(O)CCc1ccccc1
REMARK SMILES IDX 4 1 2 2 1 3 3 4 5 6 6 7 7 8 11 9 8 10 10 11 9 12
REMARK H PARENT 3 5
REMARK Flexibility Score: inf
ROOT
ATOM      1  C   UNL     1       8.240   0.237  -2.283  1.00  0.00     0.127 C 
ENDROOT
BRANCH   1   2
ATOM      2  C   UNL     1       9.362   0.343  -1.314  1.00  0.00     0.303 C 
ATOM      3  O   UNL     1       9.396  -0.434  -0.329  1.00  0.00    -0.252 OA
BRANCH   2   4
ATOM      4  O   UNL     1      10.386   1.277  -1.455  1.00  0.00    -0.481 OA
ATOM      5  H   UNL     1      11.232   1.249  -0.866  1.00  0.00     0.296 HD
ENDBRANCH   2   4
ENDBRANCH   1   2
BRANCH   1   6
ATOM      6  C   UNL     1       7.139  -0.540  -1.617  1.00  0.00     0.047 C 
BRANCH   6   7
ATOM      7  C   UNL     1       6.350   0.292  -0.670  1.00  0.00    -0.047 A 
ATOM      8  C   UNL     1       5.813   1.504  -1.058  1.00  0.00     0.004 A 
ATOM      9  C   UNL     1       6.116  -0.102   0.634  1.00  0.00     0.004 A 
ATOM     10  C   UNL     1       5.082   2.269  -0.170  1.00  0.00     0.000 A 
ATOM     11  C   UNL     1       5.387   0.659   1.522  1.00  0.00     0.000 A 
ATOM     12  C   UNL     1       4.852   1.870   1.131  1.00  0.00     0.000 A 
ENDBRANCH   6   7
ENDBRANCH   1   6
TORSDOF 4
ENDMDL
MODEL 5
REMARK VINA RESULT:      -6.5      3.728      5.097
REMARK SMILES O=C(O)CCc1ccccc1
REMARK SMILES IDX 4 1 2 2 1 3 3 4 5 6 6 7 7 8 11 9 8 10 10 11 9 12
REMARK H PARENT 3 5
REMARK Flexibility Score: inf
ROOT
ATOM      1  C   UNL     1       5.342   2.951   0.057  1.00  0.00     0.127 C 
ENDROOT
BRANCH   1   2
ATOM      2  C   UNL     1       6.217   3.857   0.846  1.00  0.00     0.303 C 
ATOM      3  O   UNL     1       6.868   4.749   0.252  1.00  0.00    -0.252 OA
BRANCH   2   4
ATOM      4  O   UNL     1       6.344   3.756   2.229  1.00  0.00    -0.481 OA
ATOM      5  H   UNL     1       6.635   2.878   2.686  1.00  0.00     0.296 HD
ENDBRANCH   2   4
ENDBRANCH   1   2
BRANCH   1   6
ATOM      6  C   UNL     1       5.234   1.655   0.813  1.00  0.00     0.047 C 
BRANCH   6   7
ATOM      7  C   UNL     1       6.030   0.566   0.189  1.00  0.00    -0.047 A 
ATOM      8  C   UNL     1       6.339   0.587  -1.157  1.00  0.00     0.004 A 
ATOM      9  C   UNL     1       6.498  -0.513   0.916  1.00  0.00     0.004 A 
ATOM     10  C   UNL     1       7.080  -0.431  -1.727  1.00  0.00     0.000 A 
ATOM     11  C   UNL     1       7.236  -1.528   0.351  1.00  0.00     0.000 A 
ATOM     12  C   UNL     1       7.543  -1.505  -0.995  1.00  0.00     0.000 A 
ENDBRANCH   6   7
ENDBRANCH   1   6
TORSDOF 4
ENDMDL
