@<TRIPOS>MOLECULE
/home/cewinharhar/GITHUB/reincatalyze/data/processed/docking_pred/2023-Apr-25-2033_maxeplen5_maxtrainstep200_exh16_gamma099_lrac3e-4_lrcr1e-3/eb9358f7bad4db9539b7d0967c6d7dee777b6146_ligand_2.pdbqt
 12 12 0 0 0
SMALL
GASTEIGER

@<TRIPOS>ATOM
      1  C          5.3420    2.9510    0.0570 C.3     1  UNL1        0.1270
      2  C          6.2170    3.8570    0.8460 C.2     1  UNL1        0.3030
      3  O          6.8680    4.7490    0.2520 O.2     1  UNL1       -0.2520
      4  O          6.3440    3.7560    2.2290 O.3     1  UNL1       -0.4810
      5  H          6.6350    2.8780    2.6860 H       1  UNL1        0.2960
      6  C          5.2340    1.6550    0.8130 C.3     1  UNL1        0.0470
      7  C          6.0300    0.5660    0.1890 C.2     1  UNL1       -0.0470
      8  C          6.3390    0.5870   -1.1570 C.2     1  UNL1        0.0040
      9  C          6.4980   -0.5130    0.9160 C.2     1  UNL1        0.0040
     10  C          7.0800   -0.4310   -1.7270 C.2     1  UNL1        0.0000
     11  C          7.2360   -1.5280    0.3510 C.2     1  UNL1        0.0000
     12  C          7.5430   -1.5050   -0.9950 C.2     1  UNL1        0.0000
@<TRIPOS>BOND
     1    10     8    1
     2    10    12    2
     3     8     7    2
     4    12    11    1
     5     1     6    1
     6     1     2    1
     7     7     6    1
     8     7     9    1
     9     3     2    2
    10    11     9    2
    11     2     4    1
    12     4     5    1
