@<TRIPOS>MOLECULE
/home/cewinharhar/GITHUB/reincatalyze/data/processed/docking_pred/2023-Apr-25-2033_maxeplen5_maxtrainstep200_exh16_gamma099_lrac3e-4_lrcr1e-3/eb9358f7bad4db9539b7d0967c6d7dee777b6146_ligand_2.pdbqt
 12 12 0 0 0
SMALL
GASTEIGER

@<TRIPOS>ATOM
      1  C          8.4350   -0.5980   -2.1600 C.3     1  UNL1        0.1270
      2  C          8.4120   -1.8910   -2.8920 C.2     1  UNL1        0.3030
      3  O          7.3080   -2.3980   -3.2070 O.2     1  UNL1       -0.2520
      4  O          9.5760   -2.5690   -3.2470 O.3     1  UNL1       -0.4810
      5  H         10.0450   -2.4080   -4.1510 H       1  UNL1        0.2960
      6  C          7.0290   -0.0630   -2.1440 C.3     1  UNL1        0.0470
      7  C          6.4840    0.0570   -0.7660 C.2     1  UNL1       -0.0470
      8  C          5.8380    1.2050   -0.3500 C.2     1  UNL1        0.0040
      9  C          6.5920   -0.9650    0.1590 C.2     1  UNL1        0.0040
     10  C          5.3340    1.3050    0.9330 C.2     1  UNL1        0.0000
     11  C          6.0910   -0.8670    1.4380 C.2     1  UNL1        0.0000
     12  C          5.4460    0.2820    1.8510 C.2     1  UNL1        0.0000
@<TRIPOS>BOND
     1     5     4    1
     2     4     2    1
     3     3     2    2
     4     2     1    1
     5     1     6    1
     6     6     7    1
     7     7     8    2
     8     7     9    1
     9     8    10    1
    10     9    11    2
    11    10    12    2
    12    11    12    1
