@<TRIPOS>MOLECULE
/home/cewinharhar/GITHUB/reincatalyze/data/processed/docking_pred/2023-Apr-25-2033_maxeplen5_maxtrainstep200_exh16_gamma099_lrac3e-4_lrcr1e-3/eb9358f7bad4db9539b7d0967c6d7dee777b6146_ligand_2.pdbqt
 12 12 0 0 0
SMALL
GASTEIGER

@<TRIPOS>ATOM
      1  C          8.2400    0.2370   -2.2830 C.3     1  UNL1        0.1270
      2  C          9.3620    0.3430   -1.3140 C.2     1  UNL1        0.3030
      3  O          9.3960   -0.4340   -0.3290 O.2     1  UNL1       -0.2520
      4  O         10.3860    1.2770   -1.4550 O.3     1  UNL1       -0.4810
      5  H         11.2320    1.2490   -0.8660 H       1  UNL1        0.2960
      6  C          7.1390   -0.5400   -1.6170 C.3     1  UNL1        0.0470
      7  C          6.3500    0.2920   -0.6700 C.2     1  UNL1       -0.0470
      8  C          5.8130    1.5040   -1.0580 C.2     1  UNL1        0.0040
      9  C          6.1160   -0.1020    0.6340 C.2     1  UNL1        0.0040
     10  C          5.0820    2.2690   -0.1700 C.2     1  UNL1        0.0000
     11  C          5.3870    0.6590    1.5220 C.2     1  UNL1        0.0000
     12  C          4.8520    1.8700    1.1310 C.2     1  UNL1        0.0000
@<TRIPOS>BOND
     1     1     6    1
     2     1     2    1
     3     6     7    1
     4     4     2    1
     5     4     5    1
     6     2     3    2
     7     8     7    2
     8     8    10    1
     9     7     9    1
    10    10    12    2
    11     9    11    2
    12    12    11    1
