@<TRIPOS>MOLECULE
/home/cewinharhar/GITHUB/reincatalyze/data/processed/docking_pred/2023-Apr-25-2033_maxeplen5_maxtrainstep200_exh16_gamma099_lrac3e-4_lrcr1e-3/eb9358f7bad4db9539b7d0967c6d7dee777b6146_ligand_2.pdbqt
 12 12 0 0 0
SMALL
GASTEIGER

@<TRIPOS>ATOM
      1  C          4.9930    1.7540    0.7120 C.3     1  UNL1        0.1270
      2  C          4.4510    1.1030    1.9340 C.2     1  UNL1        0.3030
      3  O          5.1210    0.2020    2.4950 O.2     1  UNL1       -0.2520
      4  O          3.2220    1.4540    2.4860 O.3     1  UNL1       -0.4810
      5  H          2.4950    0.7500    2.6860 H       1  UNL1        0.2960
      6  C          6.4930    1.7360    0.8170 C.3     1  UNL1        0.0470
      7  C          7.1310    0.9980   -0.3050 C.2     1  UNL1       -0.0470
      8  C          6.4260    0.0640   -1.0400 C.2     1  UNL1        0.0040
      9  C          8.4480    1.2060   -0.6670 C.2     1  UNL1        0.0040
     10  C          7.0290   -0.6170   -2.0800 C.2     1  UNL1        0.0000
     11  C          9.0510    0.5290   -1.7040 C.2     1  UNL1        0.0000
     12  C          8.3450   -0.4040   -2.4360 C.2     1  UNL1        0.0000
@<TRIPOS>BOND
     1    12    10    2
     2    12    11    1
     3    10     8    1
     4    11     9    2
     5     8     7    2
     6     9     7    1
     7     7     6    1
     8     1     6    1
     9     1     2    1
    10     2     4    1
    11     2     3    2
    12     4     5    1
