@<TRIPOS>MOLECULE
/home/cewinharhar/GITHUB/reincatalyze/data/processed/docking_pred/2023-Apr-25-2033_maxeplen5_maxtrainstep200_exh16_gamma099_lrac3e-4_lrcr1e-3/f3c5d297feb9947f67baa3310bcd1cfc63c32b25_ligand_2.pdbqt
 12 12 0 0 0
SMALL
GASTEIGER

@<TRIPOS>ATOM
      1  C          5.0000    1.7390    0.7050 C.3     1  UNL1        0.1270
      2  C          4.4650    1.0940    1.9330 C.2     1  UNL1        0.3030
      3  O          5.1420    0.2020    2.5000 O.2     1  UNL1       -0.2520
      4  O          3.2350    1.4420    2.4850 O.3     1  UNL1       -0.4810
      5  H          3.1550    1.8170    3.4430 H       1  UNL1        0.2960
      6  C          6.5000    1.7220    0.8010 C.3     1  UNL1        0.0470
      7  C          7.1320    0.9720   -0.3160 C.2     1  UNL1       -0.0470
      8  C          8.4480    1.1930   -0.6720 C.2     1  UNL1        0.0040
      9  C          6.4420    0.0240   -1.0480 C.2     1  UNL1        0.0040
     10  C          9.0260    0.4910   -1.7120 C.2     1  UNL1        0.0000
     11  C          7.0150   -0.6780   -2.0850 C.2     1  UNL1        0.0000
     12  C          8.3310   -0.4550   -2.4390 C.2     1  UNL1        0.0000
@<TRIPOS>BOND
     1    12    11    2
     2    12    10    1
     3    11     9    1
     4    10     8    2
     5     9     7    2
     6     8     7    1
     7     7     6    1
     8     1     6    1
     9     1     2    1
    10     2     4    1
    11     2     3    2
    12     4     5    1
