@<TRIPOS>MOLECULE
/home/cewinharhar/GITHUB/reincatalyze/data/processed/docking_pred/2023-Apr-25-2033_maxeplen5_maxtrainstep200_exh16_gamma099_lrac3e-4_lrcr1e-3/f3c5d297feb9947f67baa3310bcd1cfc63c32b25_ligand_2.pdbqt
 12 12 0 0 0
SMALL
GASTEIGER

@<TRIPOS>ATOM
      1  C          8.2380    0.4220   -2.0090 C.3     1  UNL1        0.1270
      2  C          9.4420    0.4220   -1.1370 C.2     1  UNL1        0.3030
      3  O          9.4980   -0.3770   -0.1710 O.2     1  UNL1       -0.2520
      4  O         10.5190    1.2790   -1.3490 O.3     1  UNL1       -0.4810
      5  H         10.8220    1.5470   -2.2980 H       1  UNL1        0.2960
      6  C          7.2420   -0.5280   -1.4050 C.3     1  UNL1        0.0470
      7  C          6.4040    0.1170   -0.3590 C.2     1  UNL1       -0.0470
      8  C          5.8160    1.3480   -0.5730 C.2     1  UNL1        0.0040
      9  C          6.1730   -0.4770    0.8680 C.2     1  UNL1        0.0040
     10  C          5.0390    1.9380    0.4060 C.2     1  UNL1        0.0000
     11  C          5.4000    0.1090    1.8440 C.2     1  UNL1        0.0000
     12  C          4.8130    1.3400    1.6280 C.2     1  UNL1        0.0000
@<TRIPOS>BOND
     1     5     4    1
     2     1     6    1
     3     1     2    1
     4     6     7    1
     5     4     2    1
     6     2     3    2
     7     8     7    2
     8     8    10    1
     9     7     9    1
    10    10    12    2
    11     9    11    2
    12    12    11    1
