@<TRIPOS>MOLECULE
/home/cewinharhar/GITHUB/reincatalyze/data/processed/docking_pred/2023-Apr-25-2033_maxeplen5_maxtrainstep200_exh16_gamma099_lrac3e-4_lrcr1e-3/f3c5d297feb9947f67baa3310bcd1cfc63c32b25_ligand_2.pdbqt
 12 12 0 0 0
SMALL
GASTEIGER

@<TRIPOS>ATOM
      1  C          8.4580   -0.5850   -2.1980 C.3     1  UNL1        0.1270
      2  C          8.4670   -1.8810   -2.9240 C.2     1  UNL1        0.3030
      3  O          9.5510   -2.4990   -3.0620 O.2     1  UNL1       -0.2520
      4  O          7.3130   -2.4450   -3.4610 O.3     1  UNL1       -0.4810
      5  H          6.9630   -3.3660   -3.1550 H       1  UNL1        0.2960
      6  C          7.0400   -0.0860   -2.1800 C.3     1  UNL1        0.0470
      7  C          6.5020    0.0480   -0.8010 C.2     1  UNL1       -0.0470
      8  C          5.8480    1.1950   -0.3960 C.2     1  UNL1        0.0040
      9  C          6.6270   -0.9590    0.1380 C.2     1  UNL1        0.0040
     10  C          5.3530    1.3090    0.8890 C.2     1  UNL1        0.0000
     11  C          6.1340   -0.8480    1.4190 C.2     1  UNL1        0.0000
     12  C          5.4810    0.3000    1.8210 C.2     1  UNL1        0.0000
@<TRIPOS>BOND
     1     4     5    1
     2     4     2    1
     3     3     2    2
     4     2     1    1
     5     1     6    1
     6     6     7    1
     7     7     8    2
     8     7     9    1
     9     8    10    1
    10     9    11    2
    11    10    12    2
    12    11    12    1
