@<TRIPOS>MOLECULE
/home/cewinharhar/GITHUB/reincatalyze/data/processed/docking_pred/2023-Apr-25-2033_maxeplen5_maxtrainstep200_exh16_gamma099_lrac3e-4_lrcr1e-3/f3c5d297feb9947f67baa3310bcd1cfc63c32b25_ligand_2.pdbqt
 12 12 0 0 0
SMALL
GASTEIGER

@<TRIPOS>ATOM
      1  C          8.4590   -0.6190   -2.1620 C.3     1  UNL1        0.1270
      2  C          8.4710   -1.9040   -2.9080 C.2     1  UNL1        0.3030
      3  O          9.5600   -2.5030   -3.0800 O.2     1  UNL1       -0.2520
      4  O          7.3130   -2.4770   -3.4280 O.3     1  UNL1       -0.4810
      5  H          6.5690   -1.9060   -3.8570 H       1  UNL1        0.2960
      6  C          7.0430   -0.1130   -2.1540 C.3     1  UNL1        0.0470
      7  C          6.4940    0.0150   -0.7790 C.2     1  UNL1       -0.0470
      8  C          6.6110   -1.0130    0.1370 C.2     1  UNL1        0.0040
      9  C          5.8450    1.1570   -0.3490 C.2     1  UNL1        0.0040
     10  C          6.0960   -0.8840    1.4130 C.2     1  UNL1        0.0000
     11  C          5.3320    1.2890    0.9220 C.2     1  UNL1        0.0000
     12  C          5.4500    0.2600    1.8340 C.2     1  UNL1        0.0000
@<TRIPOS>BOND
     1     5     4    1
     2     4     2    1
     3     3     2    2
     4     2     1    1
     5     1     6    1
     6     6     7    1
     7     7     9    2
     8     7     8    1
     9     9    11    1
    10     8    10    2
    11    11    12    2
    12    10    12    1
