MODEL 1
REMARK VINA RESULT:      -7.3      0.000      0.000
REMARK SMILES O=C(O)CCc1ccccc1
REMARK SMILES IDX 4 1 2 2 1 3 3 4 5 6 6 7 7 8 11 9 8 10 10 11 9 12
REMARK H PARENT 3 5
REMARK Flexibility Score: inf
ROOT
ATOM      1  C   UNL     1       8.459  -0.619  -2.162  1.00  0.00     0.127 C 
ENDROOT
BRANCH   1   2
ATOM      2  C   UNL     1       8.471  -1.904  -2.908  1.00  0.00     0.303 C 
ATOM      3  O   UNL     1       9.560  -2.503  -3.080  1.00  0.00    -0.252 OA
BRANCH   2   4
ATOM      4  O   UNL     1       7.313  -2.477  -3.428  1.00  0.00    -0.481 OA
ATOM      5  H   UNL     1       6.569  -1.906  -3.857  1.00  0.00     0.296 HD
ENDBRANCH   2   4
ENDBRANCH   1   2
BRANCH   1   6
ATOM      6  C   UNL     1       7.043  -0.113  -2.154  1.00  0.00     0.047 C 
BRANCH   6   7
ATOM      7  C   UNL     1       6.494   0.015  -0.779  1.00  0.00    -0.047 A 
ATOM      8  C   UNL     1       6.611  -1.013   0.137  1.00  0.00     0.004 A 
ATOM      9  C   UNL     1       5.845   1.157  -0.349  1.00  0.00     0.004 A 
ATOM     10  C   UNL     1       6.096  -0.884   1.413  1.00  0.00     0.000 A 
ATOM     11  C   UNL     1       5.332   1.289   0.922  1.00  0.00     0.000 A 
ATOM     12  C   UNL     1       5.450   0.260   1.834  1.00  0.00     0.000 A 
ENDBRANCH   6   7
ENDBRANCH   1   6
TORSDOF 4
ENDMDL
MODEL 2
REMARK VINA RESULT:      -7.3      0.046      1.420
REMARK SMILES O=C(O)CCc1ccccc1
REMARK SMILES IDX 4 1 2 2 1 3 3 4 5 6 6 7 7 8 11 9 8 10 10 11 9 12
REMARK H PARENT 3 5
REMARK Flexibility Score: inf
ROOT
ATOM      1  C   UNL     1       8.458  -0.585  -2.198  1.00  0.00     0.127 C 
ENDROOT
BRANCH   1   2
ATOM      2  C   UNL     1       8.467  -1.881  -2.924  1.00  0.00     0.303 C 
ATOM      3  O   UNL     1       9.551  -2.499  -3.062  1.00  0.00    -0.252 OA
BRANCH   2   4
ATOM      4  O   UNL     1       7.313  -2.445  -3.461  1.00  0.00    -0.481 OA
ATOM      5  H   UNL     1       6.963  -3.366  -3.155  1.00  0.00     0.296 HD
ENDBRANCH   2   4
ENDBRANCH   1   2
BRANCH   1   6
ATOM      6  C   UNL     1       7.040  -0.086  -2.180  1.00  0.00     0.047 C 
BRANCH   6   7
ATOM      7  C   UNL     1       6.502   0.048  -0.801  1.00  0.00    -0.047 A 
ATOM      8  C   UNL     1       5.848   1.195  -0.396  1.00  0.00     0.004 A 
ATOM      9  C   UNL     1       6.627  -0.959   0.138  1.00  0.00     0.004 A 
ATOM     10  C   UNL     1       5.353   1.309   0.889  1.00  0.00     0.000 A 
ATOM     11  C   UNL     1       6.134  -0.848   1.419  1.00  0.00     0.000 A 
ATOM     12  C   UNL     1       5.481   0.300   1.821  1.00  0.00     0.000 A 
ENDBRANCH   6   7
ENDBRANCH   1   6
TORSDOF 4
ENDMDL
MODEL 3
REMARK VINA RESULT:      -7.0      1.019      1.923
REMARK SMILES O=C(O)CCc1ccccc1
REMARK SMILES IDX 4 1 2 2 1 3 3 4 5 6 6 7 7 8 11 9 8 10 10 11 9 12
REMARK H PARENT 3 5
REMARK Flexibility Score: inf
ROOT
ATOM      1  C   UNL     1       7.293  -1.299  -2.247  1.00  0.00     0.127 C 
ENDROOT
BRANCH   1   2
ATOM      2  C   UNL     1       8.744  -1.370  -2.560  1.00  0.00     0.303 C 
ATOM      3  O   UNL     1       9.507  -0.468  -2.137  1.00  0.00    -0.252 OA
BRANCH   2   4
ATOM      4  O   UNL     1       9.298  -2.407  -3.307  1.00  0.00    -0.481 OA
ATOM      5  H   UNL     1       9.485  -2.309  -4.317  1.00  0.00     0.296 HD
ENDBRANCH   2   4
ENDBRANCH   1   2
BRANCH   1   6
ATOM      6  C   UNL     1       7.146  -1.406  -0.754  1.00  0.00     0.047 C 
BRANCH   6   7
ATOM      7  C   UNL     1       6.404  -0.257  -0.173  1.00  0.00    -0.047 A 
ATOM      8  C   UNL     1       6.128   0.870  -0.923  1.00  0.00     0.004 A 
ATOM      9  C   UNL     1       5.955  -0.257   1.134  1.00  0.00     0.004 A 
ATOM     10  C   UNL     1       5.438   1.932  -0.373  1.00  0.00     0.000 A 
ATOM     11  C   UNL     1       5.266   0.800   1.685  1.00  0.00     0.000 A 
ATOM     12  C   UNL     1       4.993   1.925   0.933  1.00  0.00     0.000 A 
ENDBRANCH   6   7
ENDBRANCH   1   6
TORSDOF 4
ENDMDL
MODEL 4
REMARK VINA RESULT:      -6.8      3.393      5.109
REMARK SMILES O=C(O)CCc1ccccc1
REMARK SMILES IDX 4 1 2 2 1 3 3 4 5 6 6 7 7 8 11 9 8 10 10 11 9 12
REMARK H PARENT 3 5
REMARK Flexibility Score: inf
ROOT
ATOM      1  C   UNL     1       5.000   1.739   0.705  1.00  0.00     0.127 C 
ENDROOT
BRANCH   1   2
ATOM      2  C   UNL     1       4.465   1.094   1.933  1.00  0.00     0.303 C 
ATOM      3  O   UNL     1       5.142   0.202   2.500  1.00  0.00    -0.252 OA
BRANCH   2   4
ATOM      4  O   UNL     1       3.235   1.442   2.485  1.00  0.00    -0.481 OA
ATOM      5  H   UNL     1       3.155   1.817   3.443  1.00  0.00     0.296 HD
ENDBRANCH   2   4
ENDBRANCH   1   2
BRANCH   1   6
ATOM      6  C   UNL     1       6.500   1.722   0.801  1.00  0.00     0.047 C 
BRANCH   6   7
ATOM      7  C   UNL     1       7.132   0.972  -0.316  1.00  0.00    -0.047 A 
ATOM      8  C   UNL     1       8.448   1.193  -0.672  1.00  0.00     0.004 A 
ATOM      9  C   UNL     1       6.442   0.024  -1.048  1.00  0.00     0.004 A 
ATOM     10  C   UNL     1       9.026   0.491  -1.712  1.00  0.00     0.000 A 
ATOM     11  C   UNL     1       7.015  -0.678  -2.085  1.00  0.00     0.000 A 
ATOM     12  C   UNL     1       8.331  -0.455  -2.439  1.00  0.00     0.000 A 
ENDBRANCH   6   7
ENDBRANCH   1   6
TORSDOF 4
ENDMDL
MODEL 5
REMARK VINA RESULT:      -6.6      1.975      2.667
REMARK SMILES O=C(O)CCc1ccccc1
REMARK SMILES IDX 4 1 2 2 1 3 3 4 5 6 6 7 7 8 11 9 8 10 10 11 9 12
REMARK H PARENT 3 5
REMARK Flexibility Score: inf
ROOT
ATOM      1  C   UNL     1       8.238   0.422  -2.009  1.00  0.00     0.127 C 
ENDROOT
BRANCH   1   2
ATOM      2  C   UNL     1       9.442   0.422  -1.137  1.00  0.00     0.303 C 
ATOM      3  O   UNL     1       9.498  -0.377  -0.171  1.00  0.00    -0.252 OA
BRANCH   2   4
ATOM      4  O   UNL     1      10.519   1.279  -1.349  1.00  0.00    -0.481 OA
ATOM      5  H   UNL     1      10.822   1.547  -2.298  1.00  0.00     0.296 HD
ENDBRANCH   2   4
ENDBRANCH   1   2
BRANCH   1   6
ATOM      6  C   UNL     1       7.242  -0.528  -1.405  1.00  0.00     0.047 C 
BRANCH   6   7
ATOM      7  C   UNL     1       6.404   0.117  -0.359  1.00  0.00    -0.047 A 
ATOM      8  C   UNL     1       5.816   1.348  -0.573  1.00  0.00     0.004 A 
ATOM      9  C   UNL     1       6.173  -0.477   0.868  1.00  0.00     0.004 A 
ATOM     10  C   UNL     1       5.039   1.938   0.406  1.00  0.00     0.000 A 
ATOM     11  C   UNL     1       5.400   0.109   1.844  1.00  0.00     0.000 A 
ATOM     12  C   UNL     1       4.813   1.340   1.628  1.00  0.00     0.000 A 
ENDBRANCH   6   7
ENDBRANCH   1   6
TORSDOF 4
ENDMDL
