@<TRIPOS>MOLECULE
/home/cewinharhar/GITHUB/reincatalyze/data/processed/docking_pred/2023-Apr-25-2033_maxeplen5_maxtrainstep200_exh16_gamma099_lrac3e-4_lrcr1e-3/f3c5d297feb9947f67baa3310bcd1cfc63c32b25_ligand_2.pdbqt
 12 12 0 0 0
SMALL
GASTEIGER

@<TRIPOS>ATOM
      1  C          7.2930   -1.2990   -2.2470 C.3     1  UNL1        0.1270
      2  C          8.7440   -1.3700   -2.5600 C.2     1  UNL1        0.3030
      3  O          9.5070   -0.4680   -2.1370 O.2     1  UNL1       -0.2520
      4  O          9.2980   -2.4070   -3.3070 O.3     1  UNL1       -0.4810
      5  H          9.4850   -2.3090   -4.3170 H       1  UNL1        0.2960
      6  C          7.1460   -1.4060   -0.7540 C.3     1  UNL1        0.0470
      7  C          6.4040   -0.2570   -0.1730 C.2     1  UNL1       -0.0470
      8  C          6.1280    0.8700   -0.9230 C.2     1  UNL1        0.0040
      9  C          5.9550   -0.2570    1.1340 C.2     1  UNL1        0.0040
     10  C          5.4380    1.9320   -0.3730 C.2     1  UNL1        0.0000
     11  C          5.2660    0.8000    1.6850 C.2     1  UNL1        0.0000
     12  C          4.9930    1.9250    0.9330 C.2     1  UNL1        0.0000
@<TRIPOS>BOND
     1     5     4    1
     2     4     2    1
     3     2     1    1
     4     2     3    2
     5     1     6    1
     6     8    10    1
     7     8     7    2
     8     6     7    1
     9    10    12    2
    10     7     9    1
    11    12    11    1
    12     9    11    2
