@<TRIPOS>MOLECULE
/home/cewinharhar/GITHUB/reincatalyze/data/processed/docking_pred/2023-Apr-25-2033_maxeplen5_maxtrainstep200_exh16_gamma099_lrac3e-4_lrcr1e-3/f411d25023d78b520541a26d40866fe70d26d332_ligand_2.pdbqt
 12 12 0 0 0
SMALL
GASTEIGER

@<TRIPOS>ATOM
      1  C          8.4380   -0.6230   -2.1260 C.3     1  UNL1        0.1270
      2  C          8.4180   -1.8990   -2.8870 C.2     1  UNL1        0.3030
      3  O          7.3140   -2.4020   -3.2080 O.2     1  UNL1       -0.2520
      4  O          9.5820   -2.5650   -3.2610 O.3     1  UNL1       -0.4810
      5  H         10.4870   -2.3750   -2.8060 H       1  UNL1        0.2960
      6  C          7.0410   -0.0680   -2.1340 C.3     1  UNL1        0.0470
      7  C          6.4780    0.0720   -0.7650 C.2     1  UNL1       -0.0470
      8  C          6.5890   -0.9460    0.1620 C.2     1  UNL1        0.0040
      9  C          5.8230    1.2170   -0.3530 C.2     1  UNL1        0.0040
     10  C          6.0630   -0.8050    1.4320 C.2     1  UNL1        0.0000
     11  C          5.2980    1.3600    0.9120 C.2     1  UNL1        0.0000
     12  C          5.4090    0.3410    1.8360 C.2     1  UNL1        0.0000
@<TRIPOS>BOND
     1     4     2    1
     2     4     5    1
     3     3     2    2
     4     2     1    1
     5     6     1    1
     6     6     7    1
     7     7     9    2
     8     7     8    1
     9     9    11    1
    10     8    10    2
    11    11    12    2
    12    10    12    1
