@<TRIPOS>MOLECULE
/home/cewinharhar/GITHUB/reincatalyze/data/processed/docking_pred/2023-Apr-25-2033_maxeplen5_maxtrainstep200_exh16_gamma099_lrac3e-4_lrcr1e-3/f411d25023d78b520541a26d40866fe70d26d332_ligand_2.pdbqt
 12 12 0 0 0
SMALL
GASTEIGER

@<TRIPOS>ATOM
      1  C          8.3980   -0.7620   -2.0040 C.3     1  UNL1        0.1270
      2  C          8.4390   -1.9510   -2.8940 C.2     1  UNL1        0.3030
      3  O          9.5370   -2.5190   -3.1070 O.2     1  UNL1       -0.2520
      4  O          7.2990   -2.4650   -3.5060 O.3     1  UNL1       -0.4810
      5  H          7.2730   -2.6810   -4.5150 H       1  UNL1        0.2960
      6  C          7.8740   -1.2140   -0.6690 C.3     1  UNL1        0.0470
      7  C          6.8790   -0.2680   -0.0990 C.2     1  UNL1       -0.0470
      8  C          6.4100    0.8040   -0.8340 C.2     1  UNL1        0.0040
      9  C          6.3770   -0.4110    1.1810 C.2     1  UNL1        0.0040
     10  C          5.4850    1.6780   -0.2950 C.2     1  UNL1        0.0000
     11  C          5.4550    0.4590    1.7200 C.2     1  UNL1        0.0000
     12  C          4.9880    1.5290    0.9840 C.2     1  UNL1        0.0000
@<TRIPOS>BOND
     1     5     4    1
     2     4     2    1
     3     3     2    2
     4     2     1    1
     5     1     6    1
     6     8    10    1
     7     8     7    2
     8     6     7    1
     9    10    12    2
    10     7     9    1
    11    12    11    1
    12     9    11    2
