MODEL 1
REMARK VINA RESULT:      -7.3      0.000      0.000
REMARK SMILES O=C(O)CCc1ccccc1
REMARK SMILES IDX 4 1 2 2 1 3 3 4 5 6 6 7 7 8 11 9 8 10 10 11 9 12
REMARK H PARENT 3 5
REMARK Flexibility Score: inf
ROOT
ATOM      1  C   UNL     1       8.430  -0.641  -2.111  1.00  0.00     0.127 C 
ENDROOT
BRANCH   1   2
ATOM      2  C   UNL     1       8.403  -1.917  -2.873  1.00  0.00     0.303 C 
ATOM      3  O   UNL     1       7.298  -2.398  -3.223  1.00  0.00    -0.252 OA
BRANCH   2   4
ATOM      4  O   UNL     1       9.562  -2.606  -3.217  1.00  0.00    -0.481 OA
ATOM      5  H   UNL     1      10.345  -2.719  -2.555  1.00  0.00     0.296 HD
ENDBRANCH   2   4
ENDBRANCH   1   2
BRANCH   1   6
ATOM      6  C   UNL     1       7.037  -0.073  -2.130  1.00  0.00     0.047 C 
BRANCH   6   7
ATOM      7  C   UNL     1       6.468   0.081  -0.766  1.00  0.00    -0.047 A 
ATOM      8  C   UNL     1       5.794   1.229  -0.397  1.00  0.00     0.004 A 
ATOM      9  C   UNL     1       6.582  -0.907   0.194  1.00  0.00     0.004 A 
ATOM     10  C   UNL     1       5.269   1.361   0.874  1.00  0.00     0.000 A 
ATOM     11  C   UNL     1       6.060  -0.777   1.462  1.00  0.00     0.000 A 
ATOM     12  C   UNL     1       5.387   0.371   1.828  1.00  0.00     0.000 A 
ENDBRANCH   6   7
ENDBRANCH   1   6
TORSDOF 4
ENDMDL
MODEL 2
REMARK VINA RESULT:      -7.2      0.039      1.419
REMARK SMILES O=C(O)CCc1ccccc1
REMARK SMILES IDX 4 1 2 2 1 3 3 4 5 6 6 7 7 8 11 9 8 10 10 11 9 12
REMARK H PARENT 3 5
REMARK Flexibility Score: inf
ROOT
ATOM      1  C   UNL     1       8.438  -0.623  -2.126  1.00  0.00     0.127 C 
ENDROOT
BRANCH   1   2
ATOM      2  C   UNL     1       8.418  -1.899  -2.887  1.00  0.00     0.303 C 
ATOM      3  O   UNL     1       7.314  -2.402  -3.208  1.00  0.00    -0.252 OA
BRANCH   2   4
ATOM      4  O   UNL     1       9.582  -2.565  -3.261  1.00  0.00    -0.481 OA
ATOM      5  H   UNL     1      10.487  -2.375  -2.806  1.00  0.00     0.296 HD
ENDBRANCH   2   4
ENDBRANCH   1   2
BRANCH   1   6
ATOM      6  C   UNL     1       7.041  -0.068  -2.134  1.00  0.00     0.047 C 
BRANCH   6   7
ATOM      7  C   UNL     1       6.478   0.072  -0.765  1.00  0.00    -0.047 A 
ATOM      8  C   UNL     1       6.589  -0.946   0.162  1.00  0.00     0.004 A 
ATOM      9  C   UNL     1       5.823   1.217  -0.353  1.00  0.00     0.004 A 
ATOM     10  C   UNL     1       6.063  -0.805   1.432  1.00  0.00     0.000 A 
ATOM     11  C   UNL     1       5.298   1.360   0.912  1.00  0.00     0.000 A 
ATOM     12  C   UNL     1       5.409   0.341   1.836  1.00  0.00     0.000 A 
ENDBRANCH   6   7
ENDBRANCH   1   6
TORSDOF 4
ENDMDL
MODEL 3
REMARK VINA RESULT:      -7.0      0.641      1.442
REMARK SMILES O=C(O)CCc1ccccc1
REMARK SMILES IDX 4 1 2 2 1 3 3 4 5 6 6 7 7 8 11 9 8 10 10 11 9 12
REMARK H PARENT 3 5
REMARK Flexibility Score: inf
ROOT
ATOM      1  C   UNL     1       8.398  -0.762  -2.004  1.00  0.00     0.127 C 
ENDROOT
BRANCH   1   2
ATOM      2  C   UNL     1       8.439  -1.951  -2.894  1.00  0.00     0.303 C 
ATOM      3  O   UNL     1       9.537  -2.519  -3.107  1.00  0.00    -0.252 OA
BRANCH   2   4
ATOM      4  O   UNL     1       7.299  -2.465  -3.506  1.00  0.00    -0.481 OA
ATOM      5  H   UNL     1       7.273  -2.681  -4.515  1.00  0.00     0.296 HD
ENDBRANCH   2   4
ENDBRANCH   1   2
BRANCH   1   6
ATOM      6  C   UNL     1       7.874  -1.214  -0.669  1.00  0.00     0.047 C 
BRANCH   6   7
ATOM      7  C   UNL     1       6.879  -0.268  -0.099  1.00  0.00    -0.047 A 
ATOM      8  C   UNL     1       6.410   0.804  -0.834  1.00  0.00     0.004 A 
ATOM      9  C   UNL     1       6.377  -0.411   1.181  1.00  0.00     0.004 A 
ATOM     10  C   UNL     1       5.485   1.678  -0.295  1.00  0.00     0.000 A 
ATOM     11  C   UNL     1       5.455   0.459   1.720  1.00  0.00     0.000 A 
ATOM     12  C   UNL     1       4.988   1.529   0.984  1.00  0.00     0.000 A 
ENDBRANCH   6   7
ENDBRANCH   1   6
TORSDOF 4
ENDMDL
MODEL 4
REMARK VINA RESULT:      -6.8      3.307      5.148
REMARK SMILES O=C(O)CCc1ccccc1
REMARK SMILES IDX 4 1 2 2 1 3 3 4 5 6 6 7 7 8 11 9 8 10 10 11 9 12
REMARK H PARENT 3 5
REMARK Flexibility Score: inf
ROOT
ATOM      1  C   UNL     1       5.025   1.791   0.736  1.00  0.00     0.127 C 
ENDROOT
BRANCH   1   2
ATOM      2  C   UNL     1       4.463   1.114   1.934  1.00  0.00     0.303 C 
ATOM      3  O   UNL     1       5.121   0.198   2.484  1.00  0.00    -0.252 OA
BRANCH   2   4
ATOM      4  O   UNL     1       3.227   1.458   2.475  1.00  0.00    -0.481 OA
ATOM      5  H   UNL     1       3.103   2.299   3.058  1.00  0.00     0.296 HD
ENDBRANCH   2   4
ENDBRANCH   1   2
BRANCH   1   6
ATOM      6  C   UNL     1       6.524   1.719   0.837  1.00  0.00     0.047 C 
BRANCH   6   7
ATOM      7  C   UNL     1       7.134   0.969  -0.292  1.00  0.00    -0.047 A 
ATOM      8  C   UNL     1       8.436   1.207  -0.689  1.00  0.00     0.004 A 
ATOM      9  C   UNL     1       6.437   0.005  -0.996  1.00  0.00     0.004 A 
ATOM     10  C   UNL     1       8.993   0.504  -1.740  1.00  0.00     0.000 A 
ATOM     11  C   UNL     1       6.990  -0.697  -2.044  1.00  0.00     0.000 A 
ATOM     12  C   UNL     1       8.291  -0.457  -2.439  1.00  0.00     0.000 A 
ENDBRANCH   6   7
ENDBRANCH   1   6
TORSDOF 4
ENDMDL
MODEL 5
REMARK VINA RESULT:      -6.6      1.909      2.236
REMARK SMILES O=C(O)CCc1ccccc1
REMARK SMILES IDX 4 1 2 2 1 3 3 4 5 6 6 7 7 8 11 9 8 10 10 11 9 12
REMARK H PARENT 3 5
REMARK Flexibility Score: inf
ROOT
ATOM      1  C   UNL     1       8.238   0.227  -2.266  1.00  0.00     0.127 C 
ENDROOT
BRANCH   1   2
ATOM      2  C   UNL     1       9.363   0.348  -1.303  1.00  0.00     0.303 C 
ATOM      3  O   UNL     1       9.411  -0.425  -0.316  1.00  0.00    -0.252 OA
BRANCH   2   4
ATOM      4  O   UNL     1      10.375   1.293  -1.452  1.00  0.00    -0.481 OA
ATOM      5  H   UNL     1      11.225   1.277  -0.867  1.00  0.00     0.296 HD
ENDBRANCH   2   4
ENDBRANCH   1   2
BRANCH   1   6
ATOM      6  C   UNL     1       7.143  -0.548  -1.587  1.00  0.00     0.047 C 
BRANCH   6   7
ATOM      7  C   UNL     1       6.348   0.292  -0.653  1.00  0.00    -0.047 A 
ATOM      8  C   UNL     1       5.813   1.500  -1.056  1.00  0.00     0.004 A 
ATOM      9  C   UNL     1       6.107  -0.089   0.654  1.00  0.00     0.004 A 
ATOM     10  C   UNL     1       5.076   2.273  -0.179  1.00  0.00     0.000 A 
ATOM     11  C   UNL     1       5.373   0.680   1.530  1.00  0.00     0.000 A 
ATOM     12  C   UNL     1       4.839   1.887   1.124  1.00  0.00     0.000 A 
ENDBRANCH   6   7
ENDBRANCH   1   6
TORSDOF 4
ENDMDL
