@<TRIPOS>MOLECULE
/home/cewinharhar/GITHUB/reincatalyze/data/processed/docking_pred/2023-Apr-25-2033_maxeplen5_maxtrainstep200_exh16_gamma099_lrac3e-4_lrcr1e-3/f411d25023d78b520541a26d40866fe70d26d332_ligand_2.pdbqt
 12 12 0 0 0
SMALL
GASTEIGER

@<TRIPOS>ATOM
      1  C          8.2380    0.2270   -2.2660 C.3     1  UNL1        0.1270
      2  C          9.3630    0.3480   -1.3030 C.2     1  UNL1        0.3030
      3  O          9.4110   -0.4250   -0.3160 O.2     1  UNL1       -0.2520
      4  O         10.3750    1.2930   -1.4520 O.3     1  UNL1       -0.4810
      5  H         11.2250    1.2770   -0.8670 H       1  UNL1        0.2960
      6  C          7.1430   -0.5480   -1.5870 C.3     1  UNL1        0.0470
      7  C          6.3480    0.2920   -0.6530 C.2     1  UNL1       -0.0470
      8  C          5.8130    1.5000   -1.0560 C.2     1  UNL1        0.0040
      9  C          6.1070   -0.0890    0.6540 C.2     1  UNL1        0.0040
     10  C          5.0760    2.2730   -0.1790 C.2     1  UNL1        0.0000
     11  C          5.3730    0.6800    1.5300 C.2     1  UNL1        0.0000
     12  C          4.8390    1.8870    1.1240 C.2     1  UNL1        0.0000
@<TRIPOS>BOND
     1     1     6    1
     2     1     2    1
     3     6     7    1
     4     4     2    1
     5     4     5    1
     6     2     3    2
     7     8     7    2
     8     8    10    1
     9     7     9    1
    10    10    12    2
    11     9    11    2
    12    12    11    1
