@<TRIPOS>MOLECULE
/home/cewinharhar/GITHUB/reincatalyze/data/processed/docking_pred/2023-Apr-25-2033_maxeplen5_maxtrainstep200_exh16_gamma099_lrac3e-4_lrcr1e-3/f411d25023d78b520541a26d40866fe70d26d332_ligand_2.pdbqt
 12 12 0 0 0
SMALL
GASTEIGER

@<TRIPOS>ATOM
      1  C          8.4300   -0.6410   -2.1110 C.3     1  UNL1        0.1270
      2  C          8.4030   -1.9170   -2.8730 C.2     1  UNL1        0.3030
      3  O          7.2980   -2.3980   -3.2230 O.2     1  UNL1       -0.2520
      4  O          9.5620   -2.6060   -3.2170 O.3     1  UNL1       -0.4810
      5  H         10.3450   -2.7190   -2.5550 H       1  UNL1        0.2960
      6  C          7.0370   -0.0730   -2.1300 C.3     1  UNL1        0.0470
      7  C          6.4680    0.0810   -0.7660 C.2     1  UNL1       -0.0470
      8  C          5.7940    1.2290   -0.3970 C.2     1  UNL1        0.0040
      9  C          6.5820   -0.9070    0.1940 C.2     1  UNL1        0.0040
     10  C          5.2690    1.3610    0.8740 C.2     1  UNL1        0.0000
     11  C          6.0600   -0.7770    1.4620 C.2     1  UNL1        0.0000
     12  C          5.3870    0.3710    1.8280 C.2     1  UNL1        0.0000
@<TRIPOS>BOND
     1     3     2    2
     2     4     2    1
     3     4     5    1
     4     2     1    1
     5     6     1    1
     6     6     7    1
     7     7     8    2
     8     7     9    1
     9     8    10    1
    10     9    11    2
    11    10    12    2
    12    11    12    1
