@<TRIPOS>MOLECULE
/home/cewinharhar/GITHUB/reincatalyze/data/processed/docking_pred/2023-Apr-25-2033_maxeplen5_maxtrainstep200_exh16_gamma099_lrac3e-4_lrcr1e-3/f411d25023d78b520541a26d40866fe70d26d332_ligand_2.pdbqt
 12 12 0 0 0
SMALL
GASTEIGER

@<TRIPOS>ATOM
      1  C          5.0250    1.7910    0.7360 C.3     1  UNL1        0.1270
      2  C          4.4630    1.1140    1.9340 C.2     1  UNL1        0.3030
      3  O          5.1210    0.1980    2.4840 O.2     1  UNL1       -0.2520
      4  O          3.2270    1.4580    2.4750 O.3     1  UNL1       -0.4810
      5  H          3.1030    2.2990    3.0580 H       1  UNL1        0.2960
      6  C          6.5240    1.7190    0.8370 C.3     1  UNL1        0.0470
      7  C          7.1340    0.9690   -0.2920 C.2     1  UNL1       -0.0470
      8  C          8.4360    1.2070   -0.6890 C.2     1  UNL1        0.0040
      9  C          6.4370    0.0050   -0.9960 C.2     1  UNL1        0.0040
     10  C          8.9930    0.5040   -1.7400 C.2     1  UNL1        0.0000
     11  C          6.9900   -0.6970   -2.0440 C.2     1  UNL1        0.0000
     12  C          8.2910   -0.4570   -2.4390 C.2     1  UNL1        0.0000
@<TRIPOS>BOND
     1    12    11    2
     2    12    10    1
     3    11     9    1
     4    10     8    2
     5     9     7    2
     6     8     7    1
     7     7     6    1
     8     1     6    1
     9     1     2    1
    10     2     4    1
    11     2     3    2
    12     4     5    1
