@<TRIPOS>MOLECULE
/home/cewinharhar/GITHUB/reincatalyze/data/processed/docking_pred/2023-Apr-25-2033_maxeplen5_maxtrainstep200_exh16_gamma099_lrac3e-4_lrcr1e-3/f43d8cd6194682d8f3e5600fbc578d0750565092_ligand_2.pdbqt
 12 12 0 0 0
SMALL
GASTEIGER

@<TRIPOS>ATOM
      1  C          8.4190   -0.8840   -1.7870 C.3     1  UNL1        0.1270
      2  C          8.3900   -1.9700   -2.8010 C.2     1  UNL1        0.3030
      3  O          7.2830   -2.3800   -3.2270 O.2     1  UNL1       -0.2520
      4  O          9.5500   -2.5550   -3.3020 O.3     1  UNL1       -0.4810
      5  H          9.5870   -2.9670   -4.2470 H       1  UNL1        0.2960
      6  C          7.1700   -0.0650   -1.9650 C.3     1  UNL1        0.0470
      7  C          6.4760    0.1990   -0.6780 C.2     1  UNL1       -0.0470
      8  C          6.5090   -0.7190    0.3540 C.2     1  UNL1        0.0040
      9  C          5.7690    1.3650   -0.4480 C.2     1  UNL1        0.0040
     10  C          5.8600   -0.4640    1.5470 C.2     1  UNL1        0.0000
     11  C          5.1220    1.6220    0.7390 C.2     1  UNL1        0.0000
     12  C          5.1560    0.7020    1.7690 C.2     1  UNL1        0.0000
@<TRIPOS>BOND
     1     5     4    1
     2     4     2    1
     3     3     2    2
     4     2     1    1
     5     6     1    1
     6     6     7    1
     7     7     9    2
     8     7     8    1
     9     9    11    1
    10     8    10    2
    11    11    12    2
    12    10    12    1
