@<TRIPOS>MOLECULE
/home/cewinharhar/GITHUB/reincatalyze/data/processed/docking_pred/2023-Apr-25-2033_maxeplen5_maxtrainstep200_exh16_gamma099_lrac3e-4_lrcr1e-3/f43d8cd6194682d8f3e5600fbc578d0750565092_ligand_2.pdbqt
 12 12 0 0 0
SMALL
GASTEIGER

@<TRIPOS>ATOM
      1  C          4.9860    1.7530    0.6920 C.3     1  UNL1        0.1270
      2  C          4.4710    1.0960    1.9220 C.2     1  UNL1        0.3030
      3  O          5.1610    0.2060    2.4750 O.2     1  UNL1       -0.2520
      4  O          3.2440    1.4310    2.4900 O.3     1  UNL1       -0.4810
      5  H          2.4140    1.6340    1.9120 H       1  UNL1        0.2960
      6  C          6.4860    1.7720    0.7840 C.3     1  UNL1        0.0470
      7  C          7.1320    1.0120   -0.3180 C.2     1  UNL1       -0.0470
      8  C          6.4260    0.0830   -1.0570 C.2     1  UNL1        0.0040
      9  C          8.4600    1.1960   -0.6580 C.2     1  UNL1        0.0040
     10  C          7.0360   -0.6180   -2.0790 C.2     1  UNL1        0.0000
     11  C          9.0700    0.4990   -1.6770 C.2     1  UNL1        0.0000
     12  C          8.3620   -0.4300   -2.4130 C.2     1  UNL1        0.0000
@<TRIPOS>BOND
     1    12    10    2
     2    12    11    1
     3    10     8    1
     4    11     9    2
     5     8     7    2
     6     9     7    1
     7     7     6    1
     8     1     6    1
     9     1     2    1
    10     5     4    1
    11     2     3    2
    12     2     4    1
