MODEL 1
REMARK VINA RESULT:      -7.3      0.000      0.000
REMARK SMILES O=C(O)CCc1ccccc1
REMARK SMILES IDX 4 1 2 2 1 3 3 4 5 6 6 7 7 8 11 9 8 10 10 11 9 12
REMARK H PARENT 3 5
REMARK Flexibility Score: inf
ROOT
ATOM      1  C   UNL     1       8.451  -0.553  -2.225  1.00  0.00     0.127 C 
ENDROOT
BRANCH   1   2
ATOM      2  C   UNL     1       8.477  -1.860  -2.930  1.00  0.00     0.303 C 
ATOM      3  O   UNL     1       9.573  -2.452  -3.084  1.00  0.00    -0.252 OA
BRANCH   2   4
ATOM      4  O   UNL     1       7.326  -2.462  -3.431  1.00  0.00    -0.481 OA
ATOM      5  H   UNL     1       7.307  -3.456  -3.706  1.00  0.00     0.296 HD
ENDBRANCH   2   4
ENDBRANCH   1   2
BRANCH   1   6
ATOM      6  C   UNL     1       7.023  -0.081  -2.198  1.00  0.00     0.047 C 
BRANCH   6   7
ATOM      7  C   UNL     1       6.497   0.054  -0.814  1.00  0.00    -0.047 A 
ATOM      8  C   UNL     1       6.627  -0.969   0.105  1.00  0.00     0.004 A 
ATOM      9  C   UNL     1       5.857   1.200  -0.380  1.00  0.00     0.004 A 
ATOM     10  C   UNL     1       6.134  -0.832   1.388  1.00  0.00     0.000 A 
ATOM     11  C   UNL     1       5.365   1.339   0.899  1.00  0.00     0.000 A 
ATOM     12  C   UNL     1       5.496   0.315   1.815  1.00  0.00     0.000 A 
ENDBRANCH   6   7
ENDBRANCH   1   6
TORSDOF 4
ENDMDL
MODEL 2
REMARK VINA RESULT:      -7.3      0.040      1.420
REMARK SMILES O=C(O)CCc1ccccc1
REMARK SMILES IDX 4 1 2 2 1 3 3 4 5 6 6 7 7 8 11 9 8 10 10 11 9 12
REMARK H PARENT 3 5
REMARK Flexibility Score: inf
ROOT
ATOM      1  C   UNL     1       8.454  -0.554  -2.227  1.00  0.00     0.127 C 
ENDROOT
BRANCH   1   2
ATOM      2  C   UNL     1       8.468  -1.864  -2.928  1.00  0.00     0.303 C 
ATOM      3  O   UNL     1       9.559  -2.464  -3.083  1.00  0.00    -0.252 OA
BRANCH   2   4
ATOM      4  O   UNL     1       7.310  -2.460  -3.422  1.00  0.00    -0.481 OA
ATOM      5  H   UNL     1       7.003  -2.325  -4.397  1.00  0.00     0.296 HD
ENDBRANCH   2   4
ENDBRANCH   1   2
BRANCH   1   6
ATOM      6  C   UNL     1       7.032  -0.066  -2.208  1.00  0.00     0.047 C 
BRANCH   6   7
ATOM      7  C   UNL     1       6.502   0.084  -0.828  1.00  0.00    -0.047 A 
ATOM      8  C   UNL     1       5.877   1.248  -0.424  1.00  0.00     0.004 A 
ATOM      9  C   UNL     1       6.605  -0.923   0.113  1.00  0.00     0.004 A 
ATOM     10  C   UNL     1       5.388   1.377   0.862  1.00  0.00     0.000 A 
ATOM     11  C   UNL     1       6.118  -0.797   1.395  1.00  0.00     0.000 A 
ATOM     12  C   UNL     1       5.495   0.368   1.796  1.00  0.00     0.000 A 
ENDBRANCH   6   7
ENDBRANCH   1   6
TORSDOF 4
ENDMDL
MODEL 3
REMARK VINA RESULT:      -7.2      0.358      1.024
REMARK SMILES O=C(O)CCc1ccccc1
REMARK SMILES IDX 4 1 2 2 1 3 3 4 5 6 6 7 7 8 11 9 8 10 10 11 9 12
REMARK H PARENT 3 5
REMARK Flexibility Score: inf
ROOT
ATOM      1  C   UNL     1       8.419  -0.884  -1.787  1.00  0.00     0.127 C 
ENDROOT
BRANCH   1   2
ATOM      2  C   UNL     1       8.390  -1.970  -2.801  1.00  0.00     0.303 C 
ATOM      3  O   UNL     1       7.283  -2.380  -3.227  1.00  0.00    -0.252 OA
BRANCH   2   4
ATOM      4  O   UNL     1       9.550  -2.555  -3.302  1.00  0.00    -0.481 OA
ATOM      5  H   UNL     1       9.587  -2.967  -4.247  1.00  0.00     0.296 HD
ENDBRANCH   2   4
ENDBRANCH   1   2
BRANCH   1   6
ATOM      6  C   UNL     1       7.170  -0.065  -1.965  1.00  0.00     0.047 C 
BRANCH   6   7
ATOM      7  C   UNL     1       6.476   0.199  -0.678  1.00  0.00    -0.047 A 
ATOM      8  C   UNL     1       6.509  -0.719   0.354  1.00  0.00     0.004 A 
ATOM      9  C   UNL     1       5.769   1.365  -0.448  1.00  0.00     0.004 A 
ATOM     10  C   UNL     1       5.860  -0.464   1.547  1.00  0.00     0.000 A 
ATOM     11  C   UNL     1       5.122   1.622   0.739  1.00  0.00     0.000 A 
ATOM     12  C   UNL     1       5.156   0.702   1.769  1.00  0.00     0.000 A 
ENDBRANCH   6   7
ENDBRANCH   1   6
TORSDOF 4
ENDMDL
MODEL 4
REMARK VINA RESULT:      -6.8      3.385      5.069
REMARK SMILES O=C(O)CCc1ccccc1
REMARK SMILES IDX 4 1 2 2 1 3 3 4 5 6 6 7 7 8 11 9 8 10 10 11 9 12
REMARK H PARENT 3 5
REMARK Flexibility Score: inf
ROOT
ATOM      1  C   UNL     1       4.986   1.753   0.692  1.00  0.00     0.127 C 
ENDROOT
BRANCH   1   2
ATOM      2  C   UNL     1       4.471   1.096   1.922  1.00  0.00     0.303 C 
ATOM      3  O   UNL     1       5.161   0.206   2.475  1.00  0.00    -0.252 OA
BRANCH   2   4
ATOM      4  O   UNL     1       3.244   1.431   2.490  1.00  0.00    -0.481 OA
ATOM      5  H   UNL     1       2.414   1.634   1.912  1.00  0.00     0.296 HD
ENDBRANCH   2   4
ENDBRANCH   1   2
BRANCH   1   6
ATOM      6  C   UNL     1       6.486   1.772   0.784  1.00  0.00     0.047 C 
BRANCH   6   7
ATOM      7  C   UNL     1       7.132   1.012  -0.318  1.00  0.00    -0.047 A 
ATOM      8  C   UNL     1       6.426   0.083  -1.057  1.00  0.00     0.004 A 
ATOM      9  C   UNL     1       8.460   1.196  -0.658  1.00  0.00     0.004 A 
ATOM     10  C   UNL     1       7.036  -0.618  -2.079  1.00  0.00     0.000 A 
ATOM     11  C   UNL     1       9.070   0.499  -1.677  1.00  0.00     0.000 A 
ATOM     12  C   UNL     1       8.362  -0.430  -2.413  1.00  0.00     0.000 A 
ENDBRANCH   6   7
ENDBRANCH   1   6
TORSDOF 4
ENDMDL
MODEL 5
REMARK VINA RESULT:      -6.6      1.952      2.329
REMARK SMILES O=C(O)CCc1ccccc1
REMARK SMILES IDX 4 1 2 2 1 3 3 4 5 6 6 7 7 8 11 9 8 10 10 11 9 12
REMARK H PARENT 3 5
REMARK Flexibility Score: inf
ROOT
ATOM      1  C   UNL     1       8.306   0.214  -2.135  1.00  0.00     0.127 C 
ENDROOT
BRANCH   1   2
ATOM      2  C   UNL     1       9.445   0.380  -1.195  1.00  0.00     0.303 C 
ATOM      3  O   UNL     1       9.517  -0.360  -0.184  1.00  0.00    -0.252 OA
BRANCH   2   4
ATOM      4  O   UNL     1      10.444   1.330  -1.392  1.00  0.00    -0.481 OA
ATOM      5  H   UNL     1      10.482   1.912  -2.242  1.00  0.00     0.296 HD
ENDBRANCH   2   4
ENDBRANCH   1   2
BRANCH   1   6
ATOM      6  C   UNL     1       7.265  -0.620  -1.442  1.00  0.00     0.047 C 
BRANCH   6   7
ATOM      7  C   UNL     1       6.427   0.178  -0.509  1.00  0.00    -0.047 A 
ATOM      8  C   UNL     1       6.170  -0.260   0.775  1.00  0.00     0.004 A 
ATOM      9  C   UNL     1       5.868   1.388  -0.875  1.00  0.00     0.004 A 
ATOM     10  C   UNL     1       5.390   0.490   1.634  1.00  0.00     0.000 A 
ATOM     11  C   UNL     1       5.090   2.137  -0.021  1.00  0.00     0.000 A 
ATOM     12  C   UNL     1       4.834   1.697   1.262  1.00  0.00     0.000 A 
ENDBRANCH   6   7
ENDBRANCH   1   6
TORSDOF 4
ENDMDL
