@<TRIPOS>MOLECULE
/home/cewinharhar/GITHUB/reincatalyze/data/processed/docking_pred/2023-Apr-25-2033_maxeplen5_maxtrainstep200_exh16_gamma099_lrac3e-4_lrcr1e-3/f43d8cd6194682d8f3e5600fbc578d0750565092_ligand_2.pdbqt
 12 12 0 0 0
SMALL
GASTEIGER

@<TRIPOS>ATOM
      1  C          8.4510   -0.5530   -2.2250 C.3     1  UNL1        0.1270
      2  C          8.4770   -1.8600   -2.9300 C.2     1  UNL1        0.3030
      3  O          9.5730   -2.4520   -3.0840 O.2     1  UNL1       -0.2520
      4  O          7.3260   -2.4620   -3.4310 O.3     1  UNL1       -0.4810
      5  H          7.3070   -3.4560   -3.7060 H       1  UNL1        0.2960
      6  C          7.0230   -0.0810   -2.1980 C.3     1  UNL1        0.0470
      7  C          6.4970    0.0540   -0.8140 C.2     1  UNL1       -0.0470
      8  C          6.6270   -0.9690    0.1050 C.2     1  UNL1        0.0040
      9  C          5.8570    1.2000   -0.3800 C.2     1  UNL1        0.0040
     10  C          6.1340   -0.8320    1.3880 C.2     1  UNL1        0.0000
     11  C          5.3650    1.3390    0.8990 C.2     1  UNL1        0.0000
     12  C          5.4960    0.3150    1.8150 C.2     1  UNL1        0.0000
@<TRIPOS>BOND
     1     5     4    1
     2     4     2    1
     3     3     2    2
     4     2     1    1
     5     1     6    1
     6     6     7    1
     7     7     9    2
     8     7     8    1
     9     9    11    1
    10     8    10    2
    11    11    12    2
    12    10    12    1
