@<TRIPOS>MOLECULE
/home/cewinharhar/GITHUB/reincatalyze/data/processed/docking_pred/2023-Apr-25-2033_maxeplen5_maxtrainstep200_exh16_gamma099_lrac3e-4_lrcr1e-3/f43d8cd6194682d8f3e5600fbc578d0750565092_ligand_2.pdbqt
 12 12 0 0 0
SMALL
GASTEIGER

@<TRIPOS>ATOM
      1  C          8.3060    0.2140   -2.1350 C.3     1  UNL1        0.1270
      2  C          9.4450    0.3800   -1.1950 C.2     1  UNL1        0.3030
      3  O          9.5170   -0.3600   -0.1840 O.2     1  UNL1       -0.2520
      4  O         10.4440    1.3300   -1.3920 O.3     1  UNL1       -0.4810
      5  H         10.4820    1.9120   -2.2420 H       1  UNL1        0.2960
      6  C          7.2650   -0.6200   -1.4420 C.3     1  UNL1        0.0470
      7  C          6.4270    0.1780   -0.5090 C.2     1  UNL1       -0.0470
      8  C          6.1700   -0.2600    0.7750 C.2     1  UNL1        0.0040
      9  C          5.8680    1.3880   -0.8750 C.2     1  UNL1        0.0040
     10  C          5.3900    0.4900    1.6340 C.2     1  UNL1        0.0000
     11  C          5.0900    2.1370   -0.0210 C.2     1  UNL1        0.0000
     12  C          4.8340    1.6970    1.2620 C.2     1  UNL1        0.0000
@<TRIPOS>BOND
     1     5     4    1
     2     1     6    1
     3     1     2    1
     4     6     7    1
     5     4     2    1
     6     2     3    2
     7     9     7    2
     8     9    11    1
     9     7     8    1
    10    11    12    2
    11     8    10    2
    12    12    10    1
