@<TRIPOS>MOLECULE
/home/cewinharhar/GITHUB/reincatalyze/data/processed/docking_pred/2023-Apr-25-2033_maxeplen5_maxtrainstep200_exh16_gamma099_lrac3e-4_lrcr1e-3/f43d8cd6194682d8f3e5600fbc578d0750565092_ligand_2.pdbqt
 12 12 0 0 0
SMALL
GASTEIGER

@<TRIPOS>ATOM
      1  C          8.4540   -0.5540   -2.2270 C.3     1  UNL1        0.1270
      2  C          8.4680   -1.8640   -2.9280 C.2     1  UNL1        0.3030
      3  O          9.5590   -2.4640   -3.0830 O.2     1  UNL1       -0.2520
      4  O          7.3100   -2.4600   -3.4220 O.3     1  UNL1       -0.4810
      5  H          7.0030   -2.3250   -4.3970 H       1  UNL1        0.2960
      6  C          7.0320   -0.0660   -2.2080 C.3     1  UNL1        0.0470
      7  C          6.5020    0.0840   -0.8280 C.2     1  UNL1       -0.0470
      8  C          5.8770    1.2480   -0.4240 C.2     1  UNL1        0.0040
      9  C          6.6050   -0.9230    0.1130 C.2     1  UNL1        0.0040
     10  C          5.3880    1.3770    0.8620 C.2     1  UNL1        0.0000
     11  C          6.1180   -0.7970    1.3950 C.2     1  UNL1        0.0000
     12  C          5.4950    0.3680    1.7960 C.2     1  UNL1        0.0000
@<TRIPOS>BOND
     1     5     4    1
     2     4     2    1
     3     3     2    2
     4     2     1    1
     5     1     6    1
     6     6     7    1
     7     7     8    2
     8     7     9    1
     9     8    10    1
    10     9    11    2
    11    10    12    2
    12    11    12    1
