MODEL 1
REMARK VINA RESULT:      -7.3      0.000      0.000
REMARK SMILES O=C(O)CCc1ccccc1
REMARK SMILES IDX 4 1 2 2 1 3 3 4 5 6 6 7 7 8 11 9 8 10 10 11 9 12
REMARK H PARENT 3 5
REMARK Flexibility Score: inf
ROOT
ATOM      1  C   UNL     1       8.456  -0.608  -2.172  1.00  0.00     0.127 C 
ENDROOT
BRANCH   1   2
ATOM      2  C   UNL     1       8.464  -1.897  -2.911  1.00  0.00     0.303 C 
ATOM      3  O   UNL     1       9.553  -2.495  -3.088  1.00  0.00    -0.252 OA
BRANCH   2   4
ATOM      4  O   UNL     1       7.303  -2.474  -3.420  1.00  0.00    -0.481 OA
ATOM      5  H   UNL     1       6.368  -2.208  -3.076  1.00  0.00     0.296 HD
ENDBRANCH   2   4
ENDBRANCH   1   2
BRANCH   1   6
ATOM      6  C   UNL     1       7.041  -0.098  -2.167  1.00  0.00     0.047 C 
BRANCH   6   7
ATOM      7  C   UNL     1       6.493   0.041  -0.792  1.00  0.00    -0.047 A 
ATOM      8  C   UNL     1       5.854   1.198  -0.390  1.00  0.00     0.004 A 
ATOM      9  C   UNL     1       6.592  -0.971   0.145  1.00  0.00     0.004 A 
ATOM     10  C   UNL     1       5.348   1.316   0.890  1.00  0.00     0.000 A 
ATOM     11  C   UNL     1       6.088  -0.856   1.421  1.00  0.00     0.000 A 
ATOM     12  C   UNL     1       5.451   0.302   1.820  1.00  0.00     0.000 A 
ENDBRANCH   6   7
ENDBRANCH   1   6
TORSDOF 4
ENDMDL
MODEL 2
REMARK VINA RESULT:      -7.2      0.104      1.718
REMARK SMILES O=C(O)CCc1ccccc1
REMARK SMILES IDX 4 1 2 2 1 3 3 4 5 6 6 7 7 8 11 9 8 10 10 11 9 12
REMARK H PARENT 3 5
REMARK Flexibility Score: inf
ROOT
ATOM      1  C   UNL     1       8.411  -0.624  -2.123  1.00  0.00     0.127 C 
ENDROOT
BRANCH   1   2
ATOM      2  C   UNL     1       8.401  -1.898  -2.889  1.00  0.00     0.303 C 
ATOM      3  O   UNL     1       7.302  -2.405  -3.220  1.00  0.00    -0.252 OA
BRANCH   2   4
ATOM      4  O   UNL     1       9.571  -2.556  -3.259  1.00  0.00    -0.481 OA
ATOM      5  H   UNL     1      10.411  -2.043  -3.565  1.00  0.00     0.296 HD
ENDBRANCH   2   4
ENDBRANCH   1   2
BRANCH   1   6
ATOM      6  C   UNL     1       7.006  -0.087  -2.122  1.00  0.00     0.047 C 
BRANCH   6   7
ATOM      7  C   UNL     1       6.457   0.062  -0.749  1.00  0.00    -0.047 A 
ATOM      8  C   UNL     1       6.576  -0.951   0.183  1.00  0.00     0.004 A 
ATOM      9  C   UNL     1       5.807   1.211  -0.337  1.00  0.00     0.004 A 
ATOM     10  C   UNL     1       6.062  -0.802   1.457  1.00  0.00     0.000 A 
ATOM     11  C   UNL     1       5.294   1.362   0.932  1.00  0.00     0.000 A 
ATOM     12  C   UNL     1       5.414   0.348   1.861  1.00  0.00     0.000 A 
ENDBRANCH   6   7
ENDBRANCH   1   6
TORSDOF 4
ENDMDL
MODEL 3
REMARK VINA RESULT:      -7.1      0.399      1.042
REMARK SMILES O=C(O)CCc1ccccc1
REMARK SMILES IDX 4 1 2 2 1 3 3 4 5 6 6 7 7 8 11 9 8 10 10 11 9 12
REMARK H PARENT 3 5
REMARK Flexibility Score: inf
ROOT
ATOM      1  C   UNL     1       8.332  -1.038  -1.691  1.00  0.00     0.127 C 
ENDROOT
BRANCH   1   2
ATOM      2  C   UNL     1       8.359  -2.025  -2.801  1.00  0.00     0.303 C 
ATOM      3  O   UNL     1       7.276  -2.423  -3.294  1.00  0.00    -0.252 OA
BRANCH   2   4
ATOM      4  O   UNL     1       9.548  -2.531  -3.322  1.00  0.00    -0.481 OA
ATOM      5  H   UNL     1       9.847  -2.331  -4.289  1.00  0.00     0.296 HD
ENDBRANCH   2   4
ENDBRANCH   1   2
BRANCH   1   6
ATOM      6  C   UNL     1       7.129  -0.159  -1.897  1.00  0.00     0.047 C 
BRANCH   6   7
ATOM      7  C   UNL     1       6.438   0.165  -0.621  1.00  0.00    -0.047 A 
ATOM      8  C   UNL     1       5.780   1.367  -0.450  1.00  0.00     0.004 A 
ATOM      9  C   UNL     1       6.417  -0.712   0.447  1.00  0.00     0.004 A 
ATOM     10  C   UNL     1       5.140   1.658   0.740  1.00  0.00     0.000 A 
ATOM     11  C   UNL     1       5.780  -0.424   1.634  1.00  0.00     0.000 A 
ATOM     12  C   UNL     1       5.124   0.778   1.803  1.00  0.00     0.000 A 
ENDBRANCH   6   7
ENDBRANCH   1   6
TORSDOF 4
ENDMDL
MODEL 4
REMARK VINA RESULT:      -6.7      3.386      5.106
REMARK SMILES O=C(O)CCc1ccccc1
REMARK SMILES IDX 4 1 2 2 1 3 3 4 5 6 6 7 7 8 11 9 8 10 10 11 9 12
REMARK H PARENT 3 5
REMARK Flexibility Score: inf
ROOT
ATOM      1  C   UNL     1       5.013   1.777   0.729  1.00  0.00     0.127 C 
ENDROOT
BRANCH   1   2
ATOM      2  C   UNL     1       4.462   1.106   1.934  1.00  0.00     0.303 C 
ATOM      3  O   UNL     1       5.125   0.194   2.484  1.00  0.00    -0.252 OA
BRANCH   2   4
ATOM      4  O   UNL     1       3.229   1.450   2.483  1.00  0.00    -0.481 OA
ATOM      5  H   UNL     1       3.151   1.894   3.410  1.00  0.00     0.296 HD
ENDBRANCH   2   4
ENDBRANCH   1   2
BRANCH   1   6
ATOM      6  C   UNL     1       6.513   1.732   0.832  1.00  0.00     0.047 C 
BRANCH   6   7
ATOM      7  C   UNL     1       7.137   0.989  -0.294  1.00  0.00    -0.047 A 
ATOM      8  C   UNL     1       6.425   0.048  -1.012  1.00  0.00     0.004 A 
ATOM      9  C   UNL     1       8.449   1.200  -0.677  1.00  0.00     0.004 A 
ATOM     10  C   UNL     1       7.015  -0.638  -2.057  1.00  0.00     0.000 A 
ATOM     11  C   UNL     1       9.039   0.518  -1.718  1.00  0.00     0.000 A 
ATOM     12  C   UNL     1       8.325  -0.422  -2.433  1.00  0.00     0.000 A 
ENDBRANCH   6   7
ENDBRANCH   1   6
TORSDOF 4
ENDMDL
MODEL 5
REMARK VINA RESULT:      -6.6      3.829      4.912
REMARK SMILES O=C(O)CCc1ccccc1
REMARK SMILES IDX 4 1 2 2 1 3 3 4 5 6 6 7 7 8 11 9 8 10 10 11 9 12
REMARK H PARENT 3 5
REMARK Flexibility Score: inf
ROOT
ATOM      1  C   UNL     1       5.474   2.881  -0.031  1.00  0.00     0.127 C 
ENDROOT
BRANCH   1   2
ATOM      2  C   UNL     1       6.259   3.827   0.805  1.00  0.00     0.303 C 
ATOM      3  O   UNL     1       6.901   4.750   0.247  1.00  0.00    -0.252 OA
BRANCH   2   4
ATOM      4  O   UNL     1       6.313   3.730   2.193  1.00  0.00    -0.481 OA
ATOM      5  H   UNL     1       6.611   2.864   2.667  1.00  0.00     0.296 HD
ENDBRANCH   2   4
ENDBRANCH   1   2
BRANCH   1   6
ATOM      6  C   UNL     1       4.887   1.846   0.887  1.00  0.00     0.047 C 
BRANCH   6   7
ATOM      7  C   UNL     1       5.699   0.602   0.933  1.00  0.00    -0.047 A 
ATOM      8  C   UNL     1       6.402   0.165  -0.173  1.00  0.00     0.004 A 
ATOM      9  C   UNL     1       5.792  -0.174   2.074  1.00  0.00     0.004 A 
ATOM     10  C   UNL     1       7.154  -0.993  -0.119  1.00  0.00     0.000 A 
ATOM     11  C   UNL     1       6.541  -1.328   2.130  1.00  0.00     0.000 A 
ATOM     12  C   UNL     1       7.242  -1.763   1.023  1.00  0.00     0.000 A 
ENDBRANCH   6   7
ENDBRANCH   1   6
TORSDOF 4
ENDMDL
