@<TRIPOS>MOLECULE
/home/cewinharhar/GITHUB/reincatalyze/data/processed/docking_pred/2023-Apr-25-2033_maxeplen5_maxtrainstep200_exh16_gamma099_lrac3e-4_lrcr1e-3/f5fb071253116e33fb6a6057d91faa3d89d34546_ligand_2.pdbqt
 12 12 0 0 0
SMALL
GASTEIGER

@<TRIPOS>ATOM
      1  C          8.4560   -0.6080   -2.1720 C.3     1  UNL1        0.1270
      2  C          8.4640   -1.8970   -2.9110 C.2     1  UNL1        0.3030
      3  O          9.5530   -2.4950   -3.0880 O.2     1  UNL1       -0.2520
      4  O          7.3030   -2.4740   -3.4200 O.3     1  UNL1       -0.4810
      5  H          6.3680   -2.2080   -3.0760 H       1  UNL1        0.2960
      6  C          7.0410   -0.0980   -2.1670 C.3     1  UNL1        0.0470
      7  C          6.4930    0.0410   -0.7920 C.2     1  UNL1       -0.0470
      8  C          5.8540    1.1980   -0.3900 C.2     1  UNL1        0.0040
      9  C          6.5920   -0.9710    0.1450 C.2     1  UNL1        0.0040
     10  C          5.3480    1.3160    0.8900 C.2     1  UNL1        0.0000
     11  C          6.0880   -0.8560    1.4210 C.2     1  UNL1        0.0000
     12  C          5.4510    0.3020    1.8200 C.2     1  UNL1        0.0000
@<TRIPOS>BOND
     1     4     5    1
     2     4     2    1
     3     3     2    2
     4     2     1    1
     5     1     6    1
     6     6     7    1
     7     7     8    2
     8     7     9    1
     9     8    10    1
    10     9    11    2
    11    10    12    2
    12    11    12    1
