@<TRIPOS>MOLECULE
/home/cewinharhar/GITHUB/reincatalyze/data/processed/docking_pred/2023-Apr-25-2033_maxeplen5_maxtrainstep200_exh16_gamma099_lrac3e-4_lrcr1e-3/f5fb071253116e33fb6a6057d91faa3d89d34546_ligand_2.pdbqt
 12 12 0 0 0
SMALL
GASTEIGER

@<TRIPOS>ATOM
      1  C          5.0130    1.7770    0.7290 C.3     1  UNL1        0.1270
      2  C          4.4620    1.1060    1.9340 C.2     1  UNL1        0.3030
      3  O          5.1250    0.1940    2.4840 O.2     1  UNL1       -0.2520
      4  O          3.2290    1.4500    2.4830 O.3     1  UNL1       -0.4810
      5  H          3.1510    1.8940    3.4100 H       1  UNL1        0.2960
      6  C          6.5130    1.7320    0.8320 C.3     1  UNL1        0.0470
      7  C          7.1370    0.9890   -0.2940 C.2     1  UNL1       -0.0470
      8  C          6.4250    0.0480   -1.0120 C.2     1  UNL1        0.0040
      9  C          8.4490    1.2000   -0.6770 C.2     1  UNL1        0.0040
     10  C          7.0150   -0.6380   -2.0570 C.2     1  UNL1        0.0000
     11  C          9.0390    0.5180   -1.7180 C.2     1  UNL1        0.0000
     12  C          8.3250   -0.4220   -2.4330 C.2     1  UNL1        0.0000
@<TRIPOS>BOND
     1    12    10    2
     2    12    11    1
     3    10     8    1
     4    11     9    2
     5     8     7    2
     6     9     7    1
     7     7     6    1
     8     1     6    1
     9     1     2    1
    10     2     4    1
    11     2     3    2
    12     4     5    1
