@<TRIPOS>MOLECULE
/home/cewinharhar/GITHUB/reincatalyze/data/processed/docking_pred/2023-Apr-25-2033_maxeplen5_maxtrainstep200_exh16_gamma099_lrac3e-4_lrcr1e-3/f5fb071253116e33fb6a6057d91faa3d89d34546_ligand_2.pdbqt
 12 12 0 0 0
SMALL
GASTEIGER

@<TRIPOS>ATOM
      1  C          8.3320   -1.0380   -1.6910 C.3     1  UNL1        0.1270
      2  C          8.3590   -2.0250   -2.8010 C.2     1  UNL1        0.3030
      3  O          7.2760   -2.4230   -3.2940 O.2     1  UNL1       -0.2520
      4  O          9.5480   -2.5310   -3.3220 O.3     1  UNL1       -0.4810
      5  H          9.8470   -2.3310   -4.2890 H       1  UNL1        0.2960
      6  C          7.1290   -0.1590   -1.8970 C.3     1  UNL1        0.0470
      7  C          6.4380    0.1650   -0.6210 C.2     1  UNL1       -0.0470
      8  C          5.7800    1.3670   -0.4500 C.2     1  UNL1        0.0040
      9  C          6.4170   -0.7120    0.4470 C.2     1  UNL1        0.0040
     10  C          5.1400    1.6580    0.7400 C.2     1  UNL1        0.0000
     11  C          5.7800   -0.4240    1.6340 C.2     1  UNL1        0.0000
     12  C          5.1240    0.7780    1.8030 C.2     1  UNL1        0.0000
@<TRIPOS>BOND
     1     5     4    1
     2     4     2    1
     3     3     2    2
     4     2     1    1
     5     6     1    1
     6     6     7    1
     7     7     8    2
     8     7     9    1
     9     8    10    1
    10     9    11    2
    11    10    12    2
    12    11    12    1
