@<TRIPOS>MOLECULE
/home/cewinharhar/GITHUB/reincatalyze/data/processed/docking_pred/2023-Apr-25-2033_maxeplen5_maxtrainstep200_exh16_gamma099_lrac3e-4_lrcr1e-3/f5fb071253116e33fb6a6057d91faa3d89d34546_ligand_2.pdbqt
 12 12 0 0 0
SMALL
GASTEIGER

@<TRIPOS>ATOM
      1  C          5.4740    2.8810   -0.0310 C.3     1  UNL1        0.1270
      2  C          6.2590    3.8270    0.8050 C.2     1  UNL1        0.3030
      3  O          6.9010    4.7500    0.2470 O.2     1  UNL1       -0.2520
      4  O          6.3130    3.7300    2.1930 O.3     1  UNL1       -0.4810
      5  H          6.6110    2.8640    2.6670 H       1  UNL1        0.2960
      6  C          4.8870    1.8460    0.8870 C.3     1  UNL1        0.0470
      7  C          5.6990    0.6020    0.9330 C.2     1  UNL1       -0.0470
      8  C          6.4020    0.1650   -0.1730 C.2     1  UNL1        0.0040
      9  C          5.7920   -0.1740    2.0740 C.2     1  UNL1        0.0040
     10  C          7.1540   -0.9930   -0.1190 C.2     1  UNL1        0.0000
     11  C          6.5410   -1.3280    2.1300 C.2     1  UNL1        0.0000
     12  C          7.2420   -1.7630    1.0230 C.2     1  UNL1        0.0000
@<TRIPOS>BOND
     1     8    10    1
     2     8     7    2
     3    10    12    2
     4     1     2    1
     5     1     6    1
     6     3     2    2
     7     2     4    1
     8     6     7    1
     9     7     9    1
    10    12    11    1
    11     9    11    2
    12     4     5    1
