@<TRIPOS>MOLECULE
/home/cewinharhar/GITHUB/reincatalyze/data/processed/docking_pred/2023-Apr-25-2033_maxeplen5_maxtrainstep200_exh16_gamma099_lrac3e-4_lrcr1e-3/f74925e0f2dbd9eb14447f51d5c862455f02ecd6_ligand_2.pdbqt
 12 12 0 0 0
SMALL
GASTEIGER

@<TRIPOS>ATOM
      1  C          5.3730    2.8330    0.0390 C.3     1  UNL1        0.1270
      2  C          6.2040    3.7820    0.8260 C.2     1  UNL1        0.3030
      3  O          6.2170    3.6920    2.0770 O.2     1  UNL1       -0.2520
      4  O          6.9750    4.7740    0.2260 O.3     1  UNL1       -0.4810
      5  H          7.9990    4.8130    0.3440 H       1  UNL1        0.2960
      6  C          4.9800    1.7090    0.9570 C.3     1  UNL1        0.0470
      7  C          5.8220    0.4990    0.7650 C.2     1  UNL1       -0.0470
      8  C          6.4950    0.2760   -0.4200 C.2     1  UNL1        0.0040
      9  C          5.9730   -0.4560    1.7540 C.2     1  UNL1        0.0040
     10  C          7.2750   -0.8530   -0.5870 C.2     1  UNL1        0.0000
     11  C          6.7500   -1.5810    1.5900 C.2     1  UNL1        0.0000
     12  C          7.4220   -1.8010    0.4040 C.2     1  UNL1        0.0000
@<TRIPOS>BOND
     1    10     8    1
     2    10    12    2
     3     8     7    2
     4     1     2    1
     5     1     6    1
     6     4     5    1
     7     4     2    1
     8    12    11    1
     9     7     6    1
    10     7     9    1
    11     2     3    2
    12    11     9    2
