@<TRIPOS>MOLECULE
/home/cewinharhar/GITHUB/reincatalyze/data/processed/docking_pred/2023-Apr-25-2033_maxeplen5_maxtrainstep200_exh16_gamma099_lrac3e-4_lrcr1e-3/f74925e0f2dbd9eb14447f51d5c862455f02ecd6_ligand_2.pdbqt
 12 12 0 0 0
SMALL
GASTEIGER

@<TRIPOS>ATOM
      1  C          8.5050   -0.5900   -2.1810 C.3     1  UNL1        0.1270
      2  C          8.4890   -1.8780   -2.9210 C.2     1  UNL1        0.3030
      3  O          9.5700   -2.4870   -3.1120 O.2     1  UNL1       -0.2520
      4  O          7.3160   -2.4410   -3.4170 O.3     1  UNL1       -0.4810
      5  H          7.2920   -3.3990   -3.8000 H       1  UNL1        0.2960
      6  C          7.1010   -0.0510   -2.1800 C.3     1  UNL1        0.0470
      7  C          6.5370    0.0630   -0.8100 C.2     1  UNL1       -0.0470
      8  C          5.8920    1.2120   -0.3940 C.2     1  UNL1        0.0040
      9  C          6.6270   -0.9650    0.1100 C.2     1  UNL1        0.0040
     10  C          5.3710    1.3070    0.8820 C.2     1  UNL1        0.0000
     11  C          6.1090   -0.8730    1.3830 C.2     1  UNL1        0.0000
     12  C          5.4650    0.2760    1.7950 C.2     1  UNL1        0.0000
@<TRIPOS>BOND
     1     5     4    1
     2     4     2    1
     3     3     2    2
     4     2     1    1
     5     1     6    1
     6     6     7    1
     7     7     8    2
     8     7     9    1
     9     8    10    1
    10     9    11    2
    11    10    12    2
    12    11    12    1
