@<TRIPOS>MOLECULE
/home/cewinharhar/GITHUB/reincatalyze/data/processed/docking_pred/2023-Apr-25-2033_maxeplen5_maxtrainstep200_exh16_gamma099_lrac3e-4_lrcr1e-3/f74925e0f2dbd9eb14447f51d5c862455f02ecd6_ligand_2.pdbqt
 12 12 0 0 0
SMALL
GASTEIGER

@<TRIPOS>ATOM
      1  C          8.4660   -0.5740   -2.1920 C.3     1  UNL1        0.1270
      2  C          8.4860   -1.8710   -2.9150 C.2     1  UNL1        0.3030
      3  O          9.5800   -2.4640   -3.0780 O.2     1  UNL1       -0.2520
      4  O          7.3330   -2.4620   -3.4240 O.3     1  UNL1       -0.4810
      5  H          6.4530   -2.4920   -2.8850 H       1  UNL1        0.2960
      6  C          7.0490   -0.0700   -2.2060 C.3     1  UNL1        0.0470
      7  C          6.4880    0.0880   -0.8390 C.2     1  UNL1       -0.0470
      8  C          6.6120   -0.9130    0.1050 C.2     1  UNL1        0.0040
      9  C          5.8230    1.2340   -0.4450 C.2     1  UNL1        0.0040
     10  C          6.0880   -0.7550    1.3740 C.2     1  UNL1        0.0000
     11  C          5.2990    1.3940    0.8190 C.2     1  UNL1        0.0000
     12  C          5.4240    0.3910    1.7600 C.2     1  UNL1        0.0000
@<TRIPOS>BOND
     1     4     2    1
     2     4     5    1
     3     3     2    2
     4     2     1    1
     5     6     1    1
     6     6     7    1
     7     7     9    2
     8     7     8    1
     9     9    11    1
    10     8    10    2
    11    11    12    2
    12    10    12    1
