@<TRIPOS>MOLECULE
/home/cewinharhar/GITHUB/reincatalyze/data/processed/docking_pred/2023-Apr-25-2033_maxeplen5_maxtrainstep200_exh16_gamma099_lrac3e-4_lrcr1e-3/f74925e0f2dbd9eb14447f51d5c862455f02ecd6_ligand_2.pdbqt
 12 12 0 0 0
SMALL
GASTEIGER

@<TRIPOS>ATOM
      1  C          8.3150   -1.4860    1.0240 C.3     1  UNL1        0.1270
      2  C          8.5050   -2.7470    0.2620 C.2     1  UNL1        0.3030
      3  O          9.0680   -3.7200    0.8190 O.2     1  UNL1       -0.2520
      4  O          8.0790   -2.8950   -1.0550 O.3     1  UNL1       -0.4810
      5  H          8.7460   -2.9950   -1.8350 H       1  UNL1        0.2960
      6  C          6.8540   -1.3740    1.3590 C.3     1  UNL1        0.0470
      7  C          6.2380   -0.1370    0.8110 C.2     1  UNL1       -0.0470
      8  C          6.4370    0.2390   -0.5030 C.2     1  UNL1        0.0040
      9  C          5.4430    0.6920    1.5800 C.2     1  UNL1        0.0040
     10  C          5.8610    1.3910   -1.0030 C.2     1  UNL1        0.0000
     11  C          4.8670    1.8400    1.0840 C.2     1  UNL1        0.0000
     12  C          5.0680    2.2140   -0.2290 C.2     1  UNL1        0.0000
@<TRIPOS>BOND
     1     5     4    1
     2     4     2    1
     3    10     8    1
     4    10    12    2
     5     8     7    2
     6    12    11    1
     7     2     3    2
     8     2     1    1
     9     7     6    1
    10     7     9    1
    11     1     6    1
    12    11     9    2
