MODEL 1
REMARK VINA RESULT:      -7.3      0.000      0.000
REMARK SMILES O=C(O)CCc1ccccc1
REMARK SMILES IDX 4 1 2 2 1 3 3 4 5 6 6 7 7 8 11 9 8 10 10 11 9 12
REMARK H PARENT 3 5
REMARK Flexibility Score: inf
ROOT
ATOM      1  C   UNL     1       8.505  -0.590  -2.181  1.00  0.00     0.127 C 
ENDROOT
BRANCH   1   2
ATOM      2  C   UNL     1       8.489  -1.878  -2.921  1.00  0.00     0.303 C 
ATOM      3  O   UNL     1       9.570  -2.487  -3.112  1.00  0.00    -0.252 OA
BRANCH   2   4
ATOM      4  O   UNL     1       7.316  -2.441  -3.417  1.00  0.00    -0.481 OA
ATOM      5  H   UNL     1       7.292  -3.399  -3.800  1.00  0.00     0.296 HD
ENDBRANCH   2   4
ENDBRANCH   1   2
BRANCH   1   6
ATOM      6  C   UNL     1       7.101  -0.051  -2.180  1.00  0.00     0.047 C 
BRANCH   6   7
ATOM      7  C   UNL     1       6.537   0.063  -0.810  1.00  0.00    -0.047 A 
ATOM      8  C   UNL     1       5.892   1.212  -0.394  1.00  0.00     0.004 A 
ATOM      9  C   UNL     1       6.627  -0.965   0.110  1.00  0.00     0.004 A 
ATOM     10  C   UNL     1       5.371   1.307   0.882  1.00  0.00     0.000 A 
ATOM     11  C   UNL     1       6.109  -0.873   1.383  1.00  0.00     0.000 A 
ATOM     12  C   UNL     1       5.465   0.276   1.795  1.00  0.00     0.000 A 
ENDBRANCH   6   7
ENDBRANCH   1   6
TORSDOF 4
ENDMDL
MODEL 2
REMARK VINA RESULT:      -7.3      0.080      1.421
REMARK SMILES O=C(O)CCc1ccccc1
REMARK SMILES IDX 4 1 2 2 1 3 3 4 5 6 6 7 7 8 11 9 8 10 10 11 9 12
REMARK H PARENT 3 5
REMARK Flexibility Score: inf
ROOT
ATOM      1  C   UNL     1       8.466  -0.574  -2.192  1.00  0.00     0.127 C 
ENDROOT
BRANCH   1   2
ATOM      2  C   UNL     1       8.486  -1.871  -2.915  1.00  0.00     0.303 C 
ATOM      3  O   UNL     1       9.580  -2.464  -3.078  1.00  0.00    -0.252 OA
BRANCH   2   4
ATOM      4  O   UNL     1       7.333  -2.462  -3.424  1.00  0.00    -0.481 OA
ATOM      5  H   UNL     1       6.453  -2.492  -2.885  1.00  0.00     0.296 HD
ENDBRANCH   2   4
ENDBRANCH   1   2
BRANCH   1   6
ATOM      6  C   UNL     1       7.049  -0.070  -2.206  1.00  0.00     0.047 C 
BRANCH   6   7
ATOM      7  C   UNL     1       6.488   0.088  -0.839  1.00  0.00    -0.047 A 
ATOM      8  C   UNL     1       6.612  -0.913   0.105  1.00  0.00     0.004 A 
ATOM      9  C   UNL     1       5.823   1.234  -0.445  1.00  0.00     0.004 A 
ATOM     10  C   UNL     1       6.088  -0.755   1.374  1.00  0.00     0.000 A 
ATOM     11  C   UNL     1       5.299   1.394   0.819  1.00  0.00     0.000 A 
ATOM     12  C   UNL     1       5.424   0.391   1.760  1.00  0.00     0.000 A 
ENDBRANCH   6   7
ENDBRANCH   1   6
TORSDOF 4
ENDMDL
MODEL 3
REMARK VINA RESULT:      -6.8      3.379      5.100
REMARK SMILES O=C(O)CCc1ccccc1
REMARK SMILES IDX 4 1 2 2 1 3 3 4 5 6 6 7 7 8 11 9 8 10 10 11 9 12
REMARK H PARENT 3 5
REMARK Flexibility Score: inf
ROOT
ATOM      1  C   UNL     1       4.979   1.783   0.706  1.00  0.00     0.127 C 
ENDROOT
BRANCH   1   2
ATOM      2  C   UNL     1       4.449   1.112   1.922  1.00  0.00     0.303 C 
ATOM      3  O   UNL     1       5.126   0.205   2.465  1.00  0.00    -0.252 OA
BRANCH   2   4
ATOM      4  O   UNL     1       3.223   1.451   2.489  1.00  0.00    -0.481 OA
ATOM      5  H   UNL     1       2.515   1.992   1.969  1.00  0.00     0.296 HD
ENDBRANCH   2   4
ENDBRANCH   1   2
BRANCH   1   6
ATOM      6  C   UNL     1       6.480   1.779   0.805  1.00  0.00     0.047 C 
BRANCH   6   7
ATOM      7  C   UNL     1       7.119   1.026  -0.306  1.00  0.00    -0.047 A 
ATOM      8  C   UNL     1       6.407   0.106  -1.050  1.00  0.00     0.004 A 
ATOM      9  C   UNL     1       8.446   1.208  -0.649  1.00  0.00     0.004 A 
ATOM     10  C   UNL     1       7.011  -0.588  -2.081  1.00  0.00     0.000 A 
ATOM     11  C   UNL     1       9.051   0.518  -1.676  1.00  0.00     0.000 A 
ATOM     12  C   UNL     1       8.336  -0.402  -2.417  1.00  0.00     0.000 A 
ENDBRANCH   6   7
ENDBRANCH   1   6
TORSDOF 4
ENDMDL
MODEL 4
REMARK VINA RESULT:      -6.6      3.756      4.920
REMARK SMILES O=C(O)CCc1ccccc1
REMARK SMILES IDX 4 1 2 2 1 3 3 4 5 6 6 7 7 8 11 9 8 10 10 11 9 12
REMARK H PARENT 3 5
REMARK Flexibility Score: inf
ROOT
ATOM      1  C   UNL     1       5.373   2.833   0.039  1.00  0.00     0.127 C 
ENDROOT
BRANCH   1   2
ATOM      2  C   UNL     1       6.204   3.782   0.826  1.00  0.00     0.303 C 
ATOM      3  O   UNL     1       6.217   3.692   2.077  1.00  0.00    -0.252 OA
BRANCH   2   4
ATOM      4  O   UNL     1       6.975   4.774   0.226  1.00  0.00    -0.481 OA
ATOM      5  H   UNL     1       7.999   4.813   0.344  1.00  0.00     0.296 HD
ENDBRANCH   2   4
ENDBRANCH   1   2
BRANCH   1   6
ATOM      6  C   UNL     1       4.980   1.709   0.957  1.00  0.00     0.047 C 
BRANCH   6   7
ATOM      7  C   UNL     1       5.822   0.499   0.765  1.00  0.00    -0.047 A 
ATOM      8  C   UNL     1       6.495   0.276  -0.420  1.00  0.00     0.004 A 
ATOM      9  C   UNL     1       5.973  -0.456   1.754  1.00  0.00     0.004 A 
ATOM     10  C   UNL     1       7.275  -0.853  -0.587  1.00  0.00     0.000 A 
ATOM     11  C   UNL     1       6.750  -1.581   1.590  1.00  0.00     0.000 A 
ATOM     12  C   UNL     1       7.422  -1.801   0.404  1.00  0.00     0.000 A 
ENDBRANCH   6   7
ENDBRANCH   1   6
TORSDOF 4
ENDMDL
MODEL 5
REMARK VINA RESULT:      -6.5      1.883      2.877
REMARK SMILES O=C(O)CCc1ccccc1
REMARK SMILES IDX 4 1 2 2 1 3 3 4 5 6 6 7 7 8 11 9 8 10 10 11 9 12
REMARK H PARENT 3 5
REMARK Flexibility Score: inf
ROOT
ATOM      1  C   UNL     1       8.315  -1.486   1.024  1.00  0.00     0.127 C 
ENDROOT
BRANCH   1   2
ATOM      2  C   UNL     1       8.505  -2.747   0.262  1.00  0.00     0.303 C 
ATOM      3  O   UNL     1       9.068  -3.720   0.819  1.00  0.00    -0.252 OA
BRANCH   2   4
ATOM      4  O   UNL     1       8.079  -2.895  -1.055  1.00  0.00    -0.481 OA
ATOM      5  H   UNL     1       8.746  -2.995  -1.835  1.00  0.00     0.296 HD
ENDBRANCH   2   4
ENDBRANCH   1   2
BRANCH   1   6
ATOM      6  C   UNL     1       6.854  -1.374   1.359  1.00  0.00     0.047 C 
BRANCH   6   7
ATOM      7  C   UNL     1       6.238  -0.137   0.811  1.00  0.00    -0.047 A 
ATOM      8  C   UNL     1       6.437   0.239  -0.503  1.00  0.00     0.004 A 
ATOM      9  C   UNL     1       5.443   0.692   1.580  1.00  0.00     0.004 A 
ATOM     10  C   UNL     1       5.861   1.391  -1.003  1.00  0.00     0.000 A 
ATOM     11  C   UNL     1       4.867   1.840   1.084  1.00  0.00     0.000 A 
ATOM     12  C   UNL     1       5.068   2.214  -0.229  1.00  0.00     0.000 A 
ENDBRANCH   6   7
ENDBRANCH   1   6
TORSDOF 4
ENDMDL
