@<TRIPOS>MOLECULE
/home/cewinharhar/GITHUB/reincatalyze/data/processed/docking_pred/2023-Apr-25-2033_maxeplen5_maxtrainstep200_exh16_gamma099_lrac3e-4_lrcr1e-3/f74925e0f2dbd9eb14447f51d5c862455f02ecd6_ligand_2.pdbqt
 12 12 0 0 0
SMALL
GASTEIGER

@<TRIPOS>ATOM
      1  C          4.9790    1.7830    0.7060 C.3     1  UNL1        0.1270
      2  C          4.4490    1.1120    1.9220 C.2     1  UNL1        0.3030
      3  O          5.1260    0.2050    2.4650 O.2     1  UNL1       -0.2520
      4  O          3.2230    1.4510    2.4890 O.3     1  UNL1       -0.4810
      5  H          2.5150    1.9920    1.9690 H       1  UNL1        0.2960
      6  C          6.4800    1.7790    0.8050 C.3     1  UNL1        0.0470
      7  C          7.1190    1.0260   -0.3060 C.2     1  UNL1       -0.0470
      8  C          6.4070    0.1060   -1.0500 C.2     1  UNL1        0.0040
      9  C          8.4460    1.2080   -0.6490 C.2     1  UNL1        0.0040
     10  C          7.0110   -0.5880   -2.0810 C.2     1  UNL1        0.0000
     11  C          9.0510    0.5180   -1.6760 C.2     1  UNL1        0.0000
     12  C          8.3360   -0.4020   -2.4170 C.2     1  UNL1        0.0000
@<TRIPOS>BOND
     1    12    10    2
     2    12    11    1
     3    10     8    1
     4    11     9    2
     5     8     7    2
     6     9     7    1
     7     7     6    1
     8     1     6    1
     9     1     2    1
    10     2     3    2
    11     2     4    1
    12     5     4    1
