MODEL 1
REMARK VINA RESULT:      -7.3      0.000      0.000
REMARK SMILES O=C(O)CCc1ccccc1
REMARK SMILES IDX 4 1 2 2 1 3 3 4 5 6 6 7 7 8 11 9 8 10 10 11 9 12
REMARK H PARENT 3 5
REMARK Flexibility Score: inf
ROOT
ATOM      1  C   UNL     1       8.450  -0.617  -2.137  1.00  0.00     0.127 C 
ENDROOT
BRANCH   1   2
ATOM      2  C   UNL     1       8.427  -1.899  -2.888  1.00  0.00     0.303 C 
ATOM      3  O   UNL     1       7.322  -2.403  -3.205  1.00  0.00    -0.252 OA
BRANCH   2   4
ATOM      4  O   UNL     1       9.590  -2.570  -3.257  1.00  0.00    -0.481 OA
ATOM      5  H   UNL     1       9.880  -3.448  -2.798  1.00  0.00     0.296 HD
ENDBRANCH   2   4
ENDBRANCH   1   2
BRANCH   1   6
ATOM      6  C   UNL     1       7.050  -0.066  -2.140  1.00  0.00     0.047 C 
BRANCH   6   7
ATOM      7  C   UNL     1       6.490   0.065  -0.769  1.00  0.00    -0.047 A 
ATOM      8  C   UNL     1       5.845   1.219  -0.368  1.00  0.00     0.004 A 
ATOM      9  C   UNL     1       6.583  -0.950   0.164  1.00  0.00     0.004 A 
ATOM     10  C   UNL     1       5.328   1.331   0.909  1.00  0.00     0.000 A 
ATOM     11  C   UNL     1       6.068  -0.842   1.437  1.00  0.00     0.000 A 
ATOM     12  C   UNL     1       5.425   0.313   1.835  1.00  0.00     0.000 A 
ENDBRANCH   6   7
ENDBRANCH   1   6
TORSDOF 4
ENDMDL
MODEL 2
REMARK VINA RESULT:      -7.2      0.023      1.419
REMARK SMILES O=C(O)CCc1ccccc1
REMARK SMILES IDX 4 1 2 2 1 3 3 4 5 6 6 7 7 8 11 9 8 10 10 11 9 12
REMARK H PARENT 3 5
REMARK Flexibility Score: inf
ROOT
ATOM      1  C   UNL     1       8.426  -0.618  -2.139  1.00  0.00     0.127 C 
ENDROOT
BRANCH   1   2
ATOM      2  C   UNL     1       8.408  -1.901  -2.889  1.00  0.00     0.303 C 
ATOM      3  O   UNL     1       7.305  -2.404  -3.214  1.00  0.00    -0.252 OA
BRANCH   2   4
ATOM      4  O   UNL     1       9.573  -2.573  -3.250  1.00  0.00    -0.481 OA
ATOM      5  H   UNL     1       9.675  -3.030  -4.169  1.00  0.00     0.296 HD
ENDBRANCH   2   4
ENDBRANCH   1   2
BRANCH   1   6
ATOM      6  C   UNL     1       7.024  -0.074  -2.138  1.00  0.00     0.047 C 
BRANCH   6   7
ATOM      7  C   UNL     1       6.470   0.063  -0.766  1.00  0.00    -0.047 A 
ATOM      8  C   UNL     1       6.581  -0.959   0.156  1.00  0.00     0.004 A 
ATOM      9  C   UNL     1       5.823   1.210  -0.346  1.00  0.00     0.004 A 
ATOM     10  C   UNL     1       6.062  -0.821   1.430  1.00  0.00     0.000 A 
ATOM     11  C   UNL     1       5.305   1.351   0.923  1.00  0.00     0.000 A 
ATOM     12  C   UNL     1       5.417   0.327   1.842  1.00  0.00     0.000 A 
ENDBRANCH   6   7
ENDBRANCH   1   6
TORSDOF 4
ENDMDL
MODEL 3
REMARK VINA RESULT:      -7.2      0.702      1.891
REMARK SMILES O=C(O)CCc1ccccc1
REMARK SMILES IDX 4 1 2 2 1 3 3 4 5 6 6 7 7 8 11 9 8 10 10 11 9 12
REMARK H PARENT 3 5
REMARK Flexibility Score: inf
ROOT
ATOM      1  C   UNL     1       8.391  -1.022  -1.704  1.00  0.00     0.127 C 
ENDROOT
BRANCH   1   2
ATOM      2  C   UNL     1       8.455  -2.043  -2.781  1.00  0.00     0.303 C 
ATOM      3  O   UNL     1       9.573  -2.494  -3.131  1.00  0.00    -0.252 OA
BRANCH   2   4
ATOM      4  O   UNL     1       7.318  -2.525  -3.423  1.00  0.00    -0.481 OA
ATOM      5  H   UNL     1       6.692  -1.905  -3.959  1.00  0.00     0.296 HD
ENDBRANCH   2   4
ENDBRANCH   1   2
BRANCH   1   6
ATOM      6  C   UNL     1       7.377  -1.491  -0.696  1.00  0.00     0.047 C 
BRANCH   6   7
ATOM      7  C   UNL     1       6.562  -0.374  -0.150  1.00  0.00    -0.047 A 
ATOM      8  C   UNL     1       6.097  -0.398   1.150  1.00  0.00     0.004 A 
ATOM      9  C   UNL     1       6.231   0.734  -0.908  1.00  0.00     0.004 A 
ATOM     10  C   UNL     1       5.339   0.646   1.648  1.00  0.00     0.000 A 
ATOM     11  C   UNL     1       5.477   1.775  -0.414  1.00  0.00     0.000 A 
ATOM     12  C   UNL     1       5.013   1.749   0.886  1.00  0.00     0.000 A 
ENDBRANCH   6   7
ENDBRANCH   1   6
TORSDOF 4
ENDMDL
MODEL 4
REMARK VINA RESULT:      -7.1      0.675      1.173
REMARK SMILES O=C(O)CCc1ccccc1
REMARK SMILES IDX 4 1 2 2 1 3 3 4 5 6 6 7 7 8 11 9 8 10 10 11 9 12
REMARK H PARENT 3 5
REMARK Flexibility Score: inf
ROOT
ATOM      1  C   UNL     1       8.358  -0.958  -1.795  1.00  0.00     0.127 C 
ENDROOT
BRANCH   1   2
ATOM      2  C   UNL     1       8.368  -2.040  -2.812  1.00  0.00     0.303 C 
ATOM      3  O   UNL     1       7.280  -2.434  -3.298  1.00  0.00    -0.252 OA
BRANCH   2   4
ATOM      4  O   UNL     1       9.544  -2.641  -3.254  1.00  0.00    -0.481 OA
ATOM      5  H   UNL     1       9.877  -2.536  -4.224  1.00  0.00     0.296 HD
ENDBRANCH   2   4
ENDBRANCH   1   2
BRANCH   1   6
ATOM      6  C   UNL     1       7.501  -1.421  -0.649  1.00  0.00     0.047 C 
BRANCH   6   7
ATOM      7  C   UNL     1       6.630  -0.339  -0.118  1.00  0.00    -0.047 A 
ATOM      8  C   UNL     1       6.289   0.750  -0.895  1.00  0.00     0.004 A 
ATOM      9  C   UNL     1       6.122  -0.369   1.167  1.00  0.00     0.004 A 
ATOM     10  C   UNL     1       5.478   1.750  -0.392  1.00  0.00     0.000 A 
ATOM     11  C   UNL     1       5.314   0.626   1.671  1.00  0.00     0.000 A 
ATOM     12  C   UNL     1       4.975   1.714   0.892  1.00  0.00     0.000 A 
ENDBRANCH   6   7
ENDBRANCH   1   6
TORSDOF 4
ENDMDL
MODEL 5
REMARK VINA RESULT:      -6.8      3.310      5.152
REMARK SMILES O=C(O)CCc1ccccc1
REMARK SMILES IDX 4 1 2 2 1 3 3 4 5 6 6 7 7 8 11 9 8 10 10 11 9 12
REMARK H PARENT 3 5
REMARK Flexibility Score: inf
ROOT
ATOM      1  C   UNL     1       4.977   1.777   0.701  1.00  0.00     0.127 C 
ENDROOT
BRANCH   1   2
ATOM      2  C   UNL     1       4.445   1.115   1.921  1.00  0.00     0.303 C 
ATOM      3  O   UNL     1       5.118   0.210   2.469  1.00  0.00    -0.252 OA
BRANCH   2   4
ATOM      4  O   UNL     1       3.220   1.462   2.485  1.00  0.00    -0.481 OA
ATOM      5  H   UNL     1       2.800   2.394   2.344  1.00  0.00     0.296 HD
ENDBRANCH   2   4
ENDBRANCH   1   2
BRANCH   1   6
ATOM      6  C   UNL     1       6.477   1.767   0.799  1.00  0.00     0.047 C 
BRANCH   6   7
ATOM      7  C   UNL     1       7.113   1.010  -0.311  1.00  0.00    -0.047 A 
ATOM      8  C   UNL     1       8.431   1.228  -0.663  1.00  0.00     0.004 A 
ATOM      9  C   UNL     1       6.426   0.057  -1.040  1.00  0.00     0.004 A 
ATOM     10  C   UNL     1       9.012   0.519  -1.697  1.00  0.00     0.000 A 
ATOM     11  C   UNL     1       7.003  -0.651  -2.071  1.00  0.00     0.000 A 
ATOM     12  C   UNL     1       8.320  -0.430  -2.421  1.00  0.00     0.000 A 
ENDBRANCH   6   7
ENDBRANCH   1   6
TORSDOF 4
ENDMDL
