@<TRIPOS>MOLECULE
/home/cewinharhar/GITHUB/reincatalyze/data/processed/docking_pred/2023-Apr-25-2033_maxeplen5_maxtrainstep200_exh16_gamma099_lrac3e-4_lrcr1e-3/faf685cb0c2e1ff185f0c147bdf23d27aa2a460b_ligand_2.pdbqt
 12 12 0 0 0
SMALL
GASTEIGER

@<TRIPOS>ATOM
      1  C          4.9770    1.7770    0.7010 C.3     1  UNL1        0.1270
      2  C          4.4450    1.1150    1.9210 C.2     1  UNL1        0.3030
      3  O          5.1180    0.2100    2.4690 O.2     1  UNL1       -0.2520
      4  O          3.2200    1.4620    2.4850 O.3     1  UNL1       -0.4810
      5  H          2.8000    2.3940    2.3440 H       1  UNL1        0.2960
      6  C          6.4770    1.7670    0.7990 C.3     1  UNL1        0.0470
      7  C          7.1130    1.0100   -0.3110 C.2     1  UNL1       -0.0470
      8  C          8.4310    1.2280   -0.6630 C.2     1  UNL1        0.0040
      9  C          6.4260    0.0570   -1.0400 C.2     1  UNL1        0.0040
     10  C          9.0120    0.5190   -1.6970 C.2     1  UNL1        0.0000
     11  C          7.0030   -0.6510   -2.0710 C.2     1  UNL1        0.0000
     12  C          8.3200   -0.4300   -2.4210 C.2     1  UNL1        0.0000
@<TRIPOS>BOND
     1    12    11    2
     2    12    10    1
     3    11     9    1
     4    10     8    2
     5     9     7    2
     6     8     7    1
     7     7     6    1
     8     1     6    1
     9     1     2    1
    10     2     3    2
    11     2     4    1
    12     5     4    1
