@<TRIPOS>MOLECULE
/home/cewinharhar/GITHUB/reincatalyze/data/processed/docking_pred/2023-Apr-25-2033_maxeplen5_maxtrainstep200_exh16_gamma099_lrac3e-4_lrcr1e-3/faf685cb0c2e1ff185f0c147bdf23d27aa2a460b_ligand_2.pdbqt
 12 12 0 0 0
SMALL
GASTEIGER

@<TRIPOS>ATOM
      1  C          8.4260   -0.6180   -2.1390 C.3     1  UNL1        0.1270
      2  C          8.4080   -1.9010   -2.8890 C.2     1  UNL1        0.3030
      3  O          7.3050   -2.4040   -3.2140 O.2     1  UNL1       -0.2520
      4  O          9.5730   -2.5730   -3.2500 O.3     1  UNL1       -0.4810
      5  H          9.6750   -3.0300   -4.1690 H       1  UNL1        0.2960
      6  C          7.0240   -0.0740   -2.1380 C.3     1  UNL1        0.0470
      7  C          6.4700    0.0630   -0.7660 C.2     1  UNL1       -0.0470
      8  C          6.5810   -0.9590    0.1560 C.2     1  UNL1        0.0040
      9  C          5.8230    1.2100   -0.3460 C.2     1  UNL1        0.0040
     10  C          6.0620   -0.8210    1.4300 C.2     1  UNL1        0.0000
     11  C          5.3050    1.3510    0.9230 C.2     1  UNL1        0.0000
     12  C          5.4170    0.3270    1.8420 C.2     1  UNL1        0.0000
@<TRIPOS>BOND
     1     5     4    1
     2     4     2    1
     3     3     2    2
     4     2     1    1
     5     1     6    1
     6     6     7    1
     7     7     9    2
     8     7     8    1
     9     9    11    1
    10     8    10    2
    11    11    12    2
    12    10    12    1
