@<TRIPOS>MOLECULE
/home/cewinharhar/GITHUB/reincatalyze/data/processed/docking_pred/2023-Apr-25-2033_maxeplen5_maxtrainstep200_exh16_gamma099_lrac3e-4_lrcr1e-3/faf685cb0c2e1ff185f0c147bdf23d27aa2a460b_ligand_2.pdbqt
 12 12 0 0 0
SMALL
GASTEIGER

@<TRIPOS>ATOM
      1  C          8.4500   -0.6170   -2.1370 C.3     1  UNL1        0.1270
      2  C          8.4270   -1.8990   -2.8880 C.2     1  UNL1        0.3030
      3  O          7.3220   -2.4030   -3.2050 O.2     1  UNL1       -0.2520
      4  O          9.5900   -2.5700   -3.2570 O.3     1  UNL1       -0.4810
      5  H          9.8800   -3.4480   -2.7980 H       1  UNL1        0.2960
      6  C          7.0500   -0.0660   -2.1400 C.3     1  UNL1        0.0470
      7  C          6.4900    0.0650   -0.7690 C.2     1  UNL1       -0.0470
      8  C          5.8450    1.2190   -0.3680 C.2     1  UNL1        0.0040
      9  C          6.5830   -0.9500    0.1640 C.2     1  UNL1        0.0040
     10  C          5.3280    1.3310    0.9090 C.2     1  UNL1        0.0000
     11  C          6.0680   -0.8420    1.4370 C.2     1  UNL1        0.0000
     12  C          5.4250    0.3130    1.8350 C.2     1  UNL1        0.0000
@<TRIPOS>BOND
     1     4     2    1
     2     4     5    1
     3     3     2    2
     4     2     1    1
     5     6     1    1
     6     6     7    1
     7     7     8    2
     8     7     9    1
     9     8    10    1
    10     9    11    2
    11    10    12    2
    12    11    12    1
