@<TRIPOS>MOLECULE
/home/cewinharhar/GITHUB/reincatalyze/data/processed/docking_pred/2023-Apr-25-2033_maxeplen5_maxtrainstep200_exh16_gamma099_lrac3e-4_lrcr1e-3/faf685cb0c2e1ff185f0c147bdf23d27aa2a460b_ligand_2.pdbqt
 12 12 0 0 0
SMALL
GASTEIGER

@<TRIPOS>ATOM
      1  C          8.3580   -0.9580   -1.7950 C.3     1  UNL1        0.1270
      2  C          8.3680   -2.0400   -2.8120 C.2     1  UNL1        0.3030
      3  O          7.2800   -2.4340   -3.2980 O.2     1  UNL1       -0.2520
      4  O          9.5440   -2.6410   -3.2540 O.3     1  UNL1       -0.4810
      5  H          9.8770   -2.5360   -4.2240 H       1  UNL1        0.2960
      6  C          7.5010   -1.4210   -0.6490 C.3     1  UNL1        0.0470
      7  C          6.6300   -0.3390   -0.1180 C.2     1  UNL1       -0.0470
      8  C          6.2890    0.7500   -0.8950 C.2     1  UNL1        0.0040
      9  C          6.1220   -0.3690    1.1670 C.2     1  UNL1        0.0040
     10  C          5.4780    1.7500   -0.3920 C.2     1  UNL1        0.0000
     11  C          5.3140    0.6260    1.6710 C.2     1  UNL1        0.0000
     12  C          4.9750    1.7140    0.8920 C.2     1  UNL1        0.0000
@<TRIPOS>BOND
     1     5     4    1
     2     3     2    2
     3     4     2    1
     4     2     1    1
     5     1     6    1
     6     8    10    1
     7     8     7    2
     8     6     7    1
     9    10    12    2
    10     7     9    1
    11    12    11    1
    12     9    11    2
