@<TRIPOS>MOLECULE
/home/cewinharhar/GITHUB/reincatalyze/data/processed/docking_pred/2023-Apr-25-2033_maxeplen5_maxtrainstep200_exh16_gamma099_lrac3e-4_lrcr1e-3/faf685cb0c2e1ff185f0c147bdf23d27aa2a460b_ligand_2.pdbqt
 12 12 0 0 0
SMALL
GASTEIGER

@<TRIPOS>ATOM
      1  C          8.3910   -1.0220   -1.7040 C.3     1  UNL1        0.1270
      2  C          8.4550   -2.0430   -2.7810 C.2     1  UNL1        0.3030
      3  O          9.5730   -2.4940   -3.1310 O.2     1  UNL1       -0.2520
      4  O          7.3180   -2.5250   -3.4230 O.3     1  UNL1       -0.4810
      5  H          6.6920   -1.9050   -3.9590 H       1  UNL1        0.2960
      6  C          7.3770   -1.4910   -0.6960 C.3     1  UNL1        0.0470
      7  C          6.5620   -0.3740   -0.1500 C.2     1  UNL1       -0.0470
      8  C          6.0970   -0.3980    1.1500 C.2     1  UNL1        0.0040
      9  C          6.2310    0.7340   -0.9080 C.2     1  UNL1        0.0040
     10  C          5.3390    0.6460    1.6480 C.2     1  UNL1        0.0000
     11  C          5.4770    1.7750   -0.4140 C.2     1  UNL1        0.0000
     12  C          5.0130    1.7490    0.8860 C.2     1  UNL1        0.0000
@<TRIPOS>BOND
     1     5     4    1
     2     4     2    1
     3     3     2    2
     4     2     1    1
     5     1     6    1
     6     9    11    1
     7     9     7    2
     8     6     7    1
     9    11    12    2
    10     7     8    1
    11    12    10    1
    12     8    10    2
