@<TRIPOS>MOLECULE
/home/cewinharhar/GITHUB/reincatalyze/data/processed/docking_pred/2023-Apr-25-2033_maxeplen5_maxtrainstep200_exh16_gamma099_lrac3e-4_lrcr1e-3/fbb46063794dc265e75c2cefc4e8ae8bb502d9b1_ligand_2.pdbqt
 12 12 0 0 0
SMALL
GASTEIGER

@<TRIPOS>ATOM
      1  C          8.4480   -0.5600   -2.2320 C.3     1  UNL1        0.1270
      2  C          8.4750   -1.8740   -2.9250 C.2     1  UNL1        0.3030
      3  O          9.5730   -2.4600   -3.0850 O.2     1  UNL1       -0.2520
      4  O          7.3220   -2.4880   -3.4080 O.3     1  UNL1       -0.4810
      5  H          6.4050   -2.3580   -2.9540 H       1  UNL1        0.2960
      6  C          7.0210   -0.0880   -2.2120 C.3     1  UNL1        0.0470
      7  C          6.4890    0.0520   -0.8310 C.2     1  UNL1       -0.0470
      8  C          5.8510    1.2080   -0.4240 C.2     1  UNL1        0.0040
      9  C          6.6030   -0.9570    0.1070 C.2     1  UNL1        0.0040
     10  C          5.3600    1.3280    0.8620 C.2     1  UNL1        0.0000
     11  C          6.1140   -0.8400    1.3890 C.2     1  UNL1        0.0000
     12  C          5.4780    0.3170    1.7930 C.2     1  UNL1        0.0000
@<TRIPOS>BOND
     1     4     5    1
     2     4     2    1
     3     3     2    2
     4     2     1    1
     5     1     6    1
     6     6     7    1
     7     7     8    2
     8     7     9    1
     9     8    10    1
    10     9    11    2
    11    10    12    2
    12    11    12    1
