MODEL 1
REMARK VINA RESULT:      -7.3      0.000      0.000
REMARK SMILES O=C(O)CCc1ccccc1
REMARK SMILES IDX 4 1 2 2 1 3 3 4 5 6 6 7 7 8 11 9 8 10 10 11 9 12
REMARK H PARENT 3 5
REMARK Flexibility Score: inf
ROOT
ATOM      1  C   UNL     1       8.450  -0.567  -2.210  1.00  0.00     0.127 C 
ENDROOT
BRANCH   1   2
ATOM      2  C   UNL     1       8.469  -1.867  -2.929  1.00  0.00     0.303 C 
ATOM      3  O   UNL     1       9.565  -2.454  -3.103  1.00  0.00    -0.252 OA
BRANCH   2   4
ATOM      4  O   UNL     1       7.312  -2.467  -3.419  1.00  0.00    -0.481 OA
ATOM      5  H   UNL     1       7.175  -2.640  -4.427  1.00  0.00     0.296 HD
ENDBRANCH   2   4
ENDBRANCH   1   2
BRANCH   1   6
ATOM      6  C   UNL     1       7.025  -0.087  -2.181  1.00  0.00     0.047 C 
BRANCH   6   7
ATOM      7  C   UNL     1       6.495   0.035  -0.798  1.00  0.00    -0.047 A 
ATOM      8  C   UNL     1       6.620  -0.999   0.110  1.00  0.00     0.004 A 
ATOM      9  C   UNL     1       5.858   1.178  -0.352  1.00  0.00     0.004 A 
ATOM     10  C   UNL     1       6.124  -0.875   1.394  1.00  0.00     0.000 A 
ATOM     11  C   UNL     1       5.363   1.304   0.927  1.00  0.00     0.000 A 
ATOM     12  C   UNL     1       5.489   0.269   1.831  1.00  0.00     0.000 A 
ENDBRANCH   6   7
ENDBRANCH   1   6
TORSDOF 4
ENDMDL
MODEL 2
REMARK VINA RESULT:      -7.3      0.045      1.420
REMARK SMILES O=C(O)CCc1ccccc1
REMARK SMILES IDX 4 1 2 2 1 3 3 4 5 6 6 7 7 8 11 9 8 10 10 11 9 12
REMARK H PARENT 3 5
REMARK Flexibility Score: inf
ROOT
ATOM      1  C   UNL     1       8.448  -0.560  -2.232  1.00  0.00     0.127 C 
ENDROOT
BRANCH   1   2
ATOM      2  C   UNL     1       8.475  -1.874  -2.925  1.00  0.00     0.303 C 
ATOM      3  O   UNL     1       9.573  -2.460  -3.085  1.00  0.00    -0.252 OA
BRANCH   2   4
ATOM      4  O   UNL     1       7.322  -2.488  -3.408  1.00  0.00    -0.481 OA
ATOM      5  H   UNL     1       6.405  -2.358  -2.954  1.00  0.00     0.296 HD
ENDBRANCH   2   4
ENDBRANCH   1   2
BRANCH   1   6
ATOM      6  C   UNL     1       7.021  -0.088  -2.212  1.00  0.00     0.047 C 
BRANCH   6   7
ATOM      7  C   UNL     1       6.489   0.052  -0.831  1.00  0.00    -0.047 A 
ATOM      8  C   UNL     1       5.851   1.208  -0.424  1.00  0.00     0.004 A 
ATOM      9  C   UNL     1       6.603  -0.957   0.107  1.00  0.00     0.004 A 
ATOM     10  C   UNL     1       5.360   1.328   0.862  1.00  0.00     0.000 A 
ATOM     11  C   UNL     1       6.114  -0.840   1.389  1.00  0.00     0.000 A 
ATOM     12  C   UNL     1       5.478   0.317   1.793  1.00  0.00     0.000 A 
ENDBRANCH   6   7
ENDBRANCH   1   6
TORSDOF 4
ENDMDL
MODEL 3
REMARK VINA RESULT:      -6.8      3.379      5.069
REMARK SMILES O=C(O)CCc1ccccc1
REMARK SMILES IDX 4 1 2 2 1 3 3 4 5 6 6 7 7 8 11 9 8 10 10 11 9 12
REMARK H PARENT 3 5
REMARK Flexibility Score: inf
ROOT
ATOM      1  C   UNL     1       5.020   1.822   0.682  1.00  0.00     0.127 C 
ENDROOT
BRANCH   1   2
ATOM      2  C   UNL     1       4.498   1.144   1.898  1.00  0.00     0.303 C 
ATOM      3  O   UNL     1       5.193   0.258   2.450  1.00  0.00    -0.252 OA
BRANCH   2   4
ATOM      4  O   UNL     1       3.260   1.456   2.453  1.00  0.00    -0.481 OA
ATOM      5  H   UNL     1       2.542   1.977   1.926  1.00  0.00     0.296 HD
ENDBRANCH   2   4
ENDBRANCH   1   2
BRANCH   1   6
ATOM      6  C   UNL     1       6.521   1.815   0.769  1.00  0.00     0.047 C 
BRANCH   6   7
ATOM      7  C   UNL     1       7.150   1.038  -0.331  1.00  0.00    -0.047 A 
ATOM      8  C   UNL     1       6.418   0.136  -1.079  1.00  0.00     0.004 A 
ATOM      9  C   UNL     1       8.485   1.179  -0.660  1.00  0.00     0.004 A 
ATOM     10  C   UNL     1       7.013  -0.581  -2.100  1.00  0.00     0.000 A 
ATOM     11  C   UNL     1       9.080   0.466  -1.677  1.00  0.00     0.000 A 
ATOM     12  C   UNL     1       8.347  -0.436  -2.422  1.00  0.00     0.000 A 
ENDBRANCH   6   7
ENDBRANCH   1   6
TORSDOF 4
ENDMDL
MODEL 4
REMARK VINA RESULT:      -6.8      3.383      5.094
REMARK SMILES O=C(O)CCc1ccccc1
REMARK SMILES IDX 4 1 2 2 1 3 3 4 5 6 6 7 7 8 11 9 8 10 10 11 9 12
REMARK H PARENT 3 5
REMARK Flexibility Score: inf
ROOT
ATOM      1  C   UNL     1       4.978   1.824   0.664  1.00  0.00     0.127 C 
ENDROOT
BRANCH   1   2
ATOM      2  C   UNL     1       4.462   1.150   1.884  1.00  0.00     0.303 C 
ATOM      3  O   UNL     1       5.149   0.250   2.424  1.00  0.00    -0.252 OA
BRANCH   2   4
ATOM      4  O   UNL     1       3.237   1.480   2.458  1.00  0.00    -0.481 OA
ATOM      5  H   UNL     1       2.692   2.298   2.145  1.00  0.00     0.296 HD
ENDBRANCH   2   4
ENDBRANCH   1   2
BRANCH   1   6
ATOM      6  C   UNL     1       6.479   1.839   0.756  1.00  0.00     0.047 C 
BRANCH   6   7
ATOM      7  C   UNL     1       7.122   1.061  -0.335  1.00  0.00    -0.047 A 
ATOM      8  C   UNL     1       8.457   1.235  -0.645  1.00  0.00     0.004 A 
ATOM      9  C   UNL     1       6.426   0.133  -1.086  1.00  0.00     0.004 A 
ATOM     10  C   UNL     1       9.046   0.506  -1.662  1.00  0.00     0.000 A 
ATOM     11  C   UNL     1       7.010  -0.594  -2.099  1.00  0.00     0.000 A 
ATOM     12  C   UNL     1       8.344  -0.418  -2.408  1.00  0.00     0.000 A 
ENDBRANCH   6   7
ENDBRANCH   1   6
TORSDOF 4
ENDMDL
MODEL 5
REMARK VINA RESULT:      -6.6      1.927      2.651
REMARK SMILES O=C(O)CCc1ccccc1
REMARK SMILES IDX 4 1 2 2 1 3 3 4 5 6 6 7 7 8 11 9 8 10 10 11 9 12
REMARK H PARENT 3 5
REMARK Flexibility Score: inf
ROOT
ATOM      1  C   UNL     1       8.256   0.129  -2.214  1.00  0.00     0.127 C 
ENDROOT
BRANCH   1   2
ATOM      2  C   UNL     1       9.379   0.331  -1.262  1.00  0.00     0.303 C 
ATOM      3  O   UNL     1       9.460  -0.400  -0.246  1.00  0.00    -0.252 OA
BRANCH   2   4
ATOM      4  O   UNL     1      10.354   1.307  -1.454  1.00  0.00    -0.481 OA
ATOM      5  H   UNL     1      11.206   1.346  -0.873  1.00  0.00     0.296 HD
ENDBRANCH   2   4
ENDBRANCH   1   2
BRANCH   1   6
ATOM      6  C   UNL     1       7.190  -0.651  -1.496  1.00  0.00     0.047 C 
BRANCH   6   7
ATOM      7  C   UNL     1       6.380   0.201  -0.585  1.00  0.00    -0.047 A 
ATOM      8  C   UNL     1       5.858   1.407  -1.010  1.00  0.00     0.004 A 
ATOM      9  C   UNL     1       6.110  -0.167   0.720  1.00  0.00     0.004 A 
ATOM     10  C   UNL     1       5.106   2.191  -0.155  1.00  0.00     0.000 A 
ATOM     11  C   UNL     1       5.361   0.612   1.573  1.00  0.00     0.000 A 
ATOM     12  C   UNL     1       4.841   1.817   1.146  1.00  0.00     0.000 A 
ENDBRANCH   6   7
ENDBRANCH   1   6
TORSDOF 4
ENDMDL
