@<TRIPOS>MOLECULE
/home/cewinharhar/GITHUB/reincatalyze/data/processed/docking_pred/2023-Apr-25-2033_maxeplen5_maxtrainstep200_exh16_gamma099_lrac3e-4_lrcr1e-3/fbb46063794dc265e75c2cefc4e8ae8bb502d9b1_ligand_2.pdbqt
 12 12 0 0 0
SMALL
GASTEIGER

@<TRIPOS>ATOM
      1  C          4.9780    1.8240    0.6640 C.3     1  UNL1        0.1270
      2  C          4.4620    1.1500    1.8840 C.2     1  UNL1        0.3030
      3  O          5.1490    0.2500    2.4240 O.2     1  UNL1       -0.2520
      4  O          3.2370    1.4800    2.4580 O.3     1  UNL1       -0.4810
      5  H          2.6920    2.2980    2.1450 H       1  UNL1        0.2960
      6  C          6.4790    1.8390    0.7560 C.3     1  UNL1        0.0470
      7  C          7.1220    1.0610   -0.3350 C.2     1  UNL1       -0.0470
      8  C          8.4570    1.2350   -0.6450 C.2     1  UNL1        0.0040
      9  C          6.4260    0.1330   -1.0860 C.2     1  UNL1        0.0040
     10  C          9.0460    0.5060   -1.6620 C.2     1  UNL1        0.0000
     11  C          7.0100   -0.5940   -2.0990 C.2     1  UNL1        0.0000
     12  C          8.3440   -0.4180   -2.4080 C.2     1  UNL1        0.0000
@<TRIPOS>BOND
     1    12    11    2
     2    12    10    1
     3    11     9    1
     4    10     8    2
     5     9     7    2
     6     8     7    1
     7     7     6    1
     8     1     6    1
     9     1     2    1
    10     2     3    2
    11     2     4    1
    12     5     4    1
