@<TRIPOS>MOLECULE
/home/cewinharhar/GITHUB/reincatalyze/data/processed/docking_pred/2023-Apr-25-2033_maxeplen5_maxtrainstep200_exh16_gamma099_lrac3e-4_lrcr1e-3/fbb46063794dc265e75c2cefc4e8ae8bb502d9b1_ligand_2.pdbqt
 12 12 0 0 0
SMALL
GASTEIGER

@<TRIPOS>ATOM
      1  C          5.0200    1.8220    0.6820 C.3     1  UNL1        0.1270
      2  C          4.4980    1.1440    1.8980 C.2     1  UNL1        0.3030
      3  O          5.1930    0.2580    2.4500 O.2     1  UNL1       -0.2520
      4  O          3.2600    1.4560    2.4530 O.3     1  UNL1       -0.4810
      5  H          2.5420    1.9770    1.9260 H       1  UNL1        0.2960
      6  C          6.5210    1.8150    0.7690 C.3     1  UNL1        0.0470
      7  C          7.1500    1.0380   -0.3310 C.2     1  UNL1       -0.0470
      8  C          6.4180    0.1360   -1.0790 C.2     1  UNL1        0.0040
      9  C          8.4850    1.1790   -0.6600 C.2     1  UNL1        0.0040
     10  C          7.0130   -0.5810   -2.1000 C.2     1  UNL1        0.0000
     11  C          9.0800    0.4660   -1.6770 C.2     1  UNL1        0.0000
     12  C          8.3470   -0.4360   -2.4220 C.2     1  UNL1        0.0000
@<TRIPOS>BOND
     1    12    10    2
     2    12    11    1
     3    10     8    1
     4    11     9    2
     5     8     7    2
     6     9     7    1
     7     7     6    1
     8     1     6    1
     9     1     2    1
    10     2     3    2
    11     2     4    1
    12     5     4    1
