@<TRIPOS>MOLECULE
/home/cewinharhar/GITHUB/reincatalyze/data/processed/docking_pred/2023-Apr-25-2033_maxeplen5_maxtrainstep200_exh16_gamma099_lrac3e-4_lrcr1e-3/fbb46063794dc265e75c2cefc4e8ae8bb502d9b1_ligand_2.pdbqt
 12 12 0 0 0
SMALL
GASTEIGER

@<TRIPOS>ATOM
      1  C          8.2560    0.1290   -2.2140 C.3     1  UNL1        0.1270
      2  C          9.3790    0.3310   -1.2620 C.2     1  UNL1        0.3030
      3  O          9.4600   -0.4000   -0.2460 O.2     1  UNL1       -0.2520
      4  O         10.3540    1.3070   -1.4540 O.3     1  UNL1       -0.4810
      5  H         11.2060    1.3460   -0.8730 H       1  UNL1        0.2960
      6  C          7.1900   -0.6510   -1.4960 C.3     1  UNL1        0.0470
      7  C          6.3800    0.2010   -0.5850 C.2     1  UNL1       -0.0470
      8  C          5.8580    1.4070   -1.0100 C.2     1  UNL1        0.0040
      9  C          6.1100   -0.1670    0.7200 C.2     1  UNL1        0.0040
     10  C          5.1060    2.1910   -0.1550 C.2     1  UNL1        0.0000
     11  C          5.3610    0.6120    1.5730 C.2     1  UNL1        0.0000
     12  C          4.8410    1.8170    1.1460 C.2     1  UNL1        0.0000
@<TRIPOS>BOND
     1     1     6    1
     2     1     2    1
     3     6     7    1
     4     4     2    1
     5     4     5    1
     6     2     3    2
     7     8     7    2
     8     8    10    1
     9     7     9    1
    10    10    12    2
    11     9    11    2
    12    12    11    1
