@<TRIPOS>MOLECULE
/home/cewinharhar/GITHUB/reincatalyze/data/processed/docking_pred/2023-Apr-25-2033_maxeplen5_maxtrainstep200_exh16_gamma099_lrac3e-4_lrcr1e-3/fd751eb3811fc03d22e30b1993ea0072812fb772_ligand_2.pdbqt
 12 12 0 0 0
SMALL
GASTEIGER

@<TRIPOS>ATOM
      1  C          8.2270   -0.8030   -2.0200 C.3     1  UNL1        0.1270
      2  C          8.3610   -1.9970   -2.8930 C.2     1  UNL1        0.3030
      3  O          9.4930   -2.5160   -3.0500 O.2     1  UNL1       -0.2520
      4  O          7.2750   -2.5710   -3.5480 O.3     1  UNL1       -0.4810
      5  H          7.2760   -3.5600   -3.8410 H       1  UNL1        0.2960
      6  C          7.6440   -1.2610   -0.7120 C.3     1  UNL1        0.0470
      7  C          6.7120   -0.2630   -0.1240 C.2     1  UNL1       -0.0470
      8  C          6.2250   -0.4080    1.1610 C.2     1  UNL1        0.0040
      9  C          6.2900    0.8510   -0.8250 C.2     1  UNL1        0.0040
     10  C          5.3600    0.5260    1.6970 C.2     1  UNL1        0.0000
     11  C          5.4280    1.7830   -0.2930 C.2     1  UNL1        0.0000
     12  C          4.9430    1.6350    0.9910 C.2     1  UNL1        0.0000
@<TRIPOS>BOND
     1     5     4    1
     2     4     2    1
     3     3     2    2
     4     2     1    1
     5     1     6    1
     6     9    11    1
     7     9     7    2
     8     6     7    1
     9    11    12    2
    10     7     8    1
    11    12    10    1
    12     8    10    2
