@<TRIPOS>MOLECULE
/home/cewinharhar/GITHUB/reincatalyze/data/processed/docking_pred/2023-Apr-25-2033_maxeplen5_maxtrainstep200_exh16_gamma099_lrac3e-4_lrcr1e-3/fd751eb3811fc03d22e30b1993ea0072812fb772_ligand_2.pdbqt
 12 12 0 0 0
SMALL
GASTEIGER

@<TRIPOS>ATOM
      1  C          8.4310   -0.5760   -2.1800 C.3     1  UNL1        0.1270
      2  C          8.4320   -1.8780   -2.8980 C.2     1  UNL1        0.3030
      3  O          7.3370   -2.4110   -3.2000 O.2     1  UNL1       -0.2520
      4  O          9.6070   -2.5350   -3.2530 O.3     1  UNL1       -0.4810
      5  H          9.6340   -3.5540   -3.4100 H       1  UNL1        0.2960
      6  C          7.0150   -0.0710   -2.1610 C.3     1  UNL1        0.0470
      7  C          6.4770    0.0570   -0.7820 C.2     1  UNL1       -0.0470
      8  C          6.5970   -0.9720    0.1320 C.2     1  UNL1        0.0040
      9  C          5.8350    1.2010   -0.3460 C.2     1  UNL1        0.0040
     10  C          6.0930   -0.8430    1.4120 C.2     1  UNL1        0.0000
     11  C          5.3320    1.3330    0.9300 C.2     1  UNL1        0.0000
     12  C          5.4530    0.3020    1.8400 C.2     1  UNL1        0.0000
@<TRIPOS>BOND
     1     5     4    1
     2     4     2    1
     3     3     2    2
     4     2     1    1
     5     1     6    1
     6     6     7    1
     7     7     9    2
     8     7     8    1
     9     9    11    1
    10     8    10    2
    11    11    12    2
    12    10    12    1
