@<TRIPOS>MOLECULE
/home/cewinharhar/GITHUB/reincatalyze/data/processed/docking_pred/2023-Apr-25-2033_maxeplen5_maxtrainstep200_exh16_gamma099_lrac3e-4_lrcr1e-3/fd751eb3811fc03d22e30b1993ea0072812fb772_ligand_2.pdbqt
 12 12 0 0 0
SMALL
GASTEIGER

@<TRIPOS>ATOM
      1  C          5.0280    1.7480    0.7320 C.3     1  UNL1        0.1270
      2  C          4.4610    1.0940    1.9400 C.2     1  UNL1        0.3030
      3  O          5.1100    0.1780    2.5010 O.2     1  UNL1       -0.2520
      4  O          3.2310    1.4590    2.4790 O.3     1  UNL1       -0.4810
      5  H          3.1070    2.3370    3.0070 H       1  UNL1        0.2960
      6  C          6.5260    1.6780    0.8400 C.3     1  UNL1        0.0470
      7  C          7.1440    0.9350   -0.2890 C.2     1  UNL1       -0.0470
      8  C          8.4340    1.2030   -0.7020 C.2     1  UNL1        0.0040
      9  C          6.4650   -0.0540   -0.9770 C.2     1  UNL1        0.0040
     10  C          8.9980    0.5060   -1.7530 C.2     1  UNL1        0.0000
     11  C          7.0250   -0.7500   -2.0250 C.2     1  UNL1        0.0000
     12  C          8.3150   -0.4790   -2.4350 C.2     1  UNL1        0.0000
@<TRIPOS>BOND
     1    12    11    2
     2    12    10    1
     3    11     9    1
     4    10     8    2
     5     9     7    2
     6     8     7    1
     7     7     6    1
     8     1     6    1
     9     1     2    1
    10     2     4    1
    11     2     3    2
    12     4     5    1
