MODEL 1
REMARK VINA RESULT:      -7.3      0.000      0.000
REMARK SMILES O=C(O)CCc1ccccc1
REMARK SMILES IDX 4 1 2 2 1 3 3 4 5 6 6 7 7 8 11 9 8 10 10 11 9 12
REMARK H PARENT 3 5
REMARK Flexibility Score: inf
ROOT
ATOM      1  C   UNL     1       8.439  -0.615  -2.144  1.00  0.00     0.127 C 
ENDROOT
BRANCH   1   2
ATOM      2  C   UNL     1       8.447  -1.891  -2.907  1.00  0.00     0.303 C 
ATOM      3  O   UNL     1       9.537  -2.483  -3.096  1.00  0.00    -0.252 OA
BRANCH   2   4
ATOM      4  O   UNL     1       7.287  -2.461  -3.423  1.00  0.00    -0.481 OA
ATOM      5  H   UNL     1       7.154  -3.483  -3.464  1.00  0.00     0.296 HD
ENDBRANCH   2   4
ENDBRANCH   1   2
BRANCH   1   6
ATOM      6  C   UNL     1       7.023  -0.108  -2.128  1.00  0.00     0.047 C 
BRANCH   6   7
ATOM      7  C   UNL     1       6.483   0.022  -0.749  1.00  0.00    -0.047 A 
ATOM      8  C   UNL     1       5.865   1.183  -0.329  1.00  0.00     0.004 A 
ATOM      9  C   UNL     1       6.570  -1.004   0.174  1.00  0.00     0.004 A 
ATOM     10  C   UNL     1       5.366   1.293   0.955  1.00  0.00     0.000 A 
ATOM     11  C   UNL     1       6.073  -0.897   1.454  1.00  0.00     0.000 A 
ATOM     12  C   UNL     1       5.457   0.266   1.871  1.00  0.00     0.000 A 
ENDBRANCH   6   7
ENDBRANCH   1   6
TORSDOF 4
ENDMDL
MODEL 2
REMARK VINA RESULT:      -7.2      0.101      1.718
REMARK SMILES O=C(O)CCc1ccccc1
REMARK SMILES IDX 4 1 2 2 1 3 3 4 5 6 6 7 7 8 11 9 8 10 10 11 9 12
REMARK H PARENT 3 5
REMARK Flexibility Score: inf
ROOT
ATOM      1  C   UNL     1       8.431  -0.576  -2.180  1.00  0.00     0.127 C 
ENDROOT
BRANCH   1   2
ATOM      2  C   UNL     1       8.432  -1.878  -2.898  1.00  0.00     0.303 C 
ATOM      3  O   UNL     1       7.337  -2.411  -3.200  1.00  0.00    -0.252 OA
BRANCH   2   4
ATOM      4  O   UNL     1       9.607  -2.535  -3.253  1.00  0.00    -0.481 OA
ATOM      5  H   UNL     1       9.634  -3.554  -3.410  1.00  0.00     0.296 HD
ENDBRANCH   2   4
ENDBRANCH   1   2
BRANCH   1   6
ATOM      6  C   UNL     1       7.015  -0.071  -2.161  1.00  0.00     0.047 C 
BRANCH   6   7
ATOM      7  C   UNL     1       6.477   0.057  -0.782  1.00  0.00    -0.047 A 
ATOM      8  C   UNL     1       6.597  -0.972   0.132  1.00  0.00     0.004 A 
ATOM      9  C   UNL     1       5.835   1.201  -0.346  1.00  0.00     0.004 A 
ATOM     10  C   UNL     1       6.093  -0.843   1.412  1.00  0.00     0.000 A 
ATOM     11  C   UNL     1       5.332   1.333   0.930  1.00  0.00     0.000 A 
ATOM     12  C   UNL     1       5.453   0.302   1.840  1.00  0.00     0.000 A 
ENDBRANCH   6   7
ENDBRANCH   1   6
TORSDOF 4
ENDMDL
MODEL 3
REMARK VINA RESULT:      -7.1      0.644      1.610
REMARK SMILES O=C(O)CCc1ccccc1
REMARK SMILES IDX 4 1 2 2 1 3 3 4 5 6 6 7 7 8 11 9 8 10 10 11 9 12
REMARK H PARENT 3 5
REMARK Flexibility Score: inf
ROOT
ATOM      1  C   UNL     1       8.227  -0.803  -2.020  1.00  0.00     0.127 C 
ENDROOT
BRANCH   1   2
ATOM      2  C   UNL     1       8.361  -1.997  -2.893  1.00  0.00     0.303 C 
ATOM      3  O   UNL     1       9.493  -2.516  -3.050  1.00  0.00    -0.252 OA
BRANCH   2   4
ATOM      4  O   UNL     1       7.275  -2.571  -3.548  1.00  0.00    -0.481 OA
ATOM      5  H   UNL     1       7.276  -3.560  -3.841  1.00  0.00     0.296 HD
ENDBRANCH   2   4
ENDBRANCH   1   2
BRANCH   1   6
ATOM      6  C   UNL     1       7.644  -1.261  -0.712  1.00  0.00     0.047 C 
BRANCH   6   7
ATOM      7  C   UNL     1       6.712  -0.263  -0.124  1.00  0.00    -0.047 A 
ATOM      8  C   UNL     1       6.225  -0.408   1.161  1.00  0.00     0.004 A 
ATOM      9  C   UNL     1       6.290   0.851  -0.825  1.00  0.00     0.004 A 
ATOM     10  C   UNL     1       5.360   0.526   1.697  1.00  0.00     0.000 A 
ATOM     11  C   UNL     1       5.428   1.783  -0.293  1.00  0.00     0.000 A 
ATOM     12  C   UNL     1       4.943   1.635   0.991  1.00  0.00     0.000 A 
ENDBRANCH   6   7
ENDBRANCH   1   6
TORSDOF 4
ENDMDL
MODEL 4
REMARK VINA RESULT:      -6.8      3.385      5.069
REMARK SMILES O=C(O)CCc1ccccc1
REMARK SMILES IDX 4 1 2 2 1 3 3 4 5 6 6 7 7 8 11 9 8 10 10 11 9 12
REMARK H PARENT 3 5
REMARK Flexibility Score: inf
ROOT
ATOM      1  C   UNL     1       5.028   1.748   0.732  1.00  0.00     0.127 C 
ENDROOT
BRANCH   1   2
ATOM      2  C   UNL     1       4.461   1.094   1.940  1.00  0.00     0.303 C 
ATOM      3  O   UNL     1       5.110   0.178   2.501  1.00  0.00    -0.252 OA
BRANCH   2   4
ATOM      4  O   UNL     1       3.231   1.459   2.479  1.00  0.00    -0.481 OA
ATOM      5  H   UNL     1       3.107   2.337   3.007  1.00  0.00     0.296 HD
ENDBRANCH   2   4
ENDBRANCH   1   2
BRANCH   1   6
ATOM      6  C   UNL     1       6.526   1.678   0.840  1.00  0.00     0.047 C 
BRANCH   6   7
ATOM      7  C   UNL     1       7.144   0.935  -0.289  1.00  0.00    -0.047 A 
ATOM      8  C   UNL     1       8.434   1.203  -0.702  1.00  0.00     0.004 A 
ATOM      9  C   UNL     1       6.465  -0.054  -0.977  1.00  0.00     0.004 A 
ATOM     10  C   UNL     1       8.998   0.506  -1.753  1.00  0.00     0.000 A 
ATOM     11  C   UNL     1       7.025  -0.750  -2.025  1.00  0.00     0.000 A 
ATOM     12  C   UNL     1       8.315  -0.479  -2.435  1.00  0.00     0.000 A 
ENDBRANCH   6   7
ENDBRANCH   1   6
TORSDOF 4
ENDMDL
MODEL 5
REMARK VINA RESULT:      -6.5      1.899      2.896
REMARK SMILES O=C(O)CCc1ccccc1
REMARK SMILES IDX 4 1 2 2 1 3 3 4 5 6 6 7 7 8 11 9 8 10 10 11 9 12
REMARK H PARENT 3 5
REMARK Flexibility Score: inf
ROOT
ATOM      1  C   UNL     1       8.215  -1.645   1.185  1.00  0.00     0.127 C 
ENDROOT
BRANCH   1   2
ATOM      2  C   UNL     1       8.511  -2.831   0.341  1.00  0.00     0.303 C 
ATOM      3  O   UNL     1       9.180  -3.776   0.825  1.00  0.00    -0.252 OA
BRANCH   2   4
ATOM      4  O   UNL     1       8.074  -2.939  -0.977  1.00  0.00    -0.481 OA
ATOM      5  H   UNL     1       7.091  -2.772  -1.240  1.00  0.00     0.296 HD
ENDBRANCH   2   4
ENDBRANCH   1   2
BRANCH   1   6
ATOM      6  C   UNL     1       6.720  -1.548   1.319  1.00  0.00     0.047 C 
BRANCH   6   7
ATOM      7  C   UNL     1       6.186  -0.265   0.791  1.00  0.00    -0.047 A 
ATOM      8  C   UNL     1       6.427   0.129  -0.510  1.00  0.00     0.004 A 
ATOM      9  C   UNL     1       5.427   0.591   1.568  1.00  0.00     0.004 A 
ATOM     10  C   UNL     1       5.926   1.324  -0.991  1.00  0.00     0.000 A 
ATOM     11  C   UNL     1       4.926   1.782   1.092  1.00  0.00     0.000 A 
ATOM     12  C   UNL     1       5.169   2.173  -0.209  1.00  0.00     0.000 A 
ENDBRANCH   6   7
ENDBRANCH   1   6
TORSDOF 4
ENDMDL
