@<TRIPOS>MOLECULE
/home/cewinharhar/GITHUB/reincatalyze/data/processed/docking_pred/2023-Apr-25-2033_maxeplen5_maxtrainstep200_exh16_gamma099_lrac3e-4_lrcr1e-3/fd751eb3811fc03d22e30b1993ea0072812fb772_ligand_2.pdbqt
 12 12 0 0 0
SMALL
GASTEIGER

@<TRIPOS>ATOM
      1  C          8.2150   -1.6450    1.1850 C.3     1  UNL1        0.1270
      2  C          8.5110   -2.8310    0.3410 C.2     1  UNL1        0.3030
      3  O          9.1800   -3.7760    0.8250 O.2     1  UNL1       -0.2520
      4  O          8.0740   -2.9390   -0.9770 O.3     1  UNL1       -0.4810
      5  H          7.0910   -2.7720   -1.2400 H       1  UNL1        0.2960
      6  C          6.7200   -1.5480    1.3190 C.3     1  UNL1        0.0470
      7  C          6.1860   -0.2650    0.7910 C.2     1  UNL1       -0.0470
      8  C          6.4270    0.1290   -0.5100 C.2     1  UNL1        0.0040
      9  C          5.4270    0.5910    1.5680 C.2     1  UNL1        0.0040
     10  C          5.9260    1.3240   -0.9910 C.2     1  UNL1        0.0000
     11  C          4.9260    1.7820    1.0920 C.2     1  UNL1        0.0000
     12  C          5.1690    2.1730   -0.2090 C.2     1  UNL1        0.0000
@<TRIPOS>BOND
     1     5     4    1
     2    10     8    1
     3    10    12    2
     4     4     2    1
     5     8     7    2
     6    12    11    1
     7     2     3    2
     8     2     1    1
     9     7     6    1
    10     7     9    1
    11    11     9    2
    12     1     6    1
