@<TRIPOS>MOLECULE
/home/cewinharhar/GITHUB/reincatalyze/data/processed/docking_pred/2023-Apr-25-2140_maxeplen10_maxtrainstep200_exh16_gamma099_lrac3e-4_lrcr1e-3/00fabcb6e86abbd64330e8a307762c5d347247e8_ligand_2.pdbqt
 12 12 0 0 0
SMALL
GASTEIGER

@<TRIPOS>ATOM
      1  C          5.0310    1.8430    0.7340 C.3     1  UNL1        0.1270
      2  C          4.5160    1.1080    1.9180 C.2     1  UNL1        0.3030
      3  O          5.1350    0.1740    2.4890 O.2     1  UNL1       -0.2520
      4  O          3.2800    1.4590    2.4400 O.3     1  UNL1       -0.4810
      5  H          2.8440    0.7740    3.0620 H       1  UNL1        0.2960
      6  C          6.5310    1.7990    0.7340 C.3     1  UNL1        0.0470
      7  C          7.1120    1.0070   -0.3480 C.2     1  UNL1       -0.0470
      8  C          6.4190    0.0580   -1.0570 C.2     1  UNL1        0.0040
      9  C          8.4270    1.2120   -0.6870 C.2     1  UNL1        0.0040
     10  C          6.9810   -0.6790   -2.0730 C.2     1  UNL1        0.0000
     11  C          9.0220    0.4920   -1.6970 C.2     1  UNL1        0.0000
     12  C          8.3020   -0.4670   -2.4060 C.2     1  UNL1        0.0000
@<TRIPOS>BOND
     1    12    10    2
     2    12    11    1
     3    10     8    1
     4    11     9    2
     5     8     7    2
     6     9     7    1
     7     7     6    1
     8     1     6    1
     9     1     2    1
    10     2     4    1
    11     2     3    2
    12     4     5    1
