@<TRIPOS>MOLECULE
/home/cewinharhar/GITHUB/reincatalyze/data/processed/docking_pred/2023-Apr-25-2140_maxeplen10_maxtrainstep200_exh16_gamma099_lrac3e-4_lrcr1e-3/00fabcb6e86abbd64330e8a307762c5d347247e8_ligand_2.pdbqt
 12 12 0 0 0
SMALL
GASTEIGER

@<TRIPOS>ATOM
      1  C          7.8640   -1.3130    2.4370 C.3     1  UNL1        0.1270
      2  C          8.7220   -2.3000    1.7300 C.2     1  UNL1        0.3030
      3  O          9.9650   -2.3930    1.8920 O.2     1  UNL1       -0.2520
      4  O          8.1320   -3.1810    0.8350 O.3     1  UNL1       -0.4810
      5  H          7.1180   -3.1050    0.7330 H       1  UNL1        0.2960
      6  C          6.4700   -1.3790    1.8870 C.3     1  UNL1        0.0470
      7  C          6.0750   -0.2110    1.1020 C.2     1  UNL1       -0.0470
      8  C          5.3270    0.8270    1.6000 C.2     1  UNL1        0.0040
      9  C          6.4660   -0.1330   -0.2120 C.2     1  UNL1        0.0040
     10  C          4.9640    1.9180    0.8470 C.2     1  UNL1        0.0000
     11  C          6.1200    0.9440   -0.9940 C.2     1  UNL1        0.0000
     12  C          5.3600    1.9890   -0.4710 C.2     1  UNL1        0.0000
@<TRIPOS>BOND
     1    11    12    2
     2    11     9    1
     3    12    10    1
     4     9     7    2
     5     5     4    1
     6     4     2    1
     7    10     8    2
     8     7     8    1
     9     7     6    1
    10     2     3    2
    11     2     1    1
    12     6     1    1
