@<TRIPOS>MOLECULE
/home/cewinharhar/GITHUB/reincatalyze/data/processed/docking_pred/2023-Apr-25-2140_maxeplen10_maxtrainstep200_exh16_gamma099_lrac3e-4_lrcr1e-3/00fabcb6e86abbd64330e8a307762c5d347247e8_ligand_2.pdbqt
 12 12 0 0 0
SMALL
GASTEIGER

@<TRIPOS>ATOM
      1  C          8.0280   -1.3780    2.5280 C.3     1  UNL1        0.1270
      2  C          9.0030   -2.2780    1.8580 C.2     1  UNL1        0.3030
      3  O          8.6850   -3.1500    1.0100 O.2     1  UNL1       -0.2520
      4  O         10.3490   -2.1630    2.1740 O.3     1  UNL1       -0.4810
      5  H         10.5620   -1.9090    3.1420 H       1  UNL1        0.2960
      6  C          6.6790   -1.5410    1.8910 C.3     1  UNL1        0.0470
      7  C          6.2480   -0.3970    1.0900 C.2     1  UNL1       -0.0470
      8  C          6.5870   -0.2160   -0.2280 C.2     1  UNL1        0.0040
      9  C          5.4580    0.5610    1.6760 C.2     1  UNL1        0.0040
     10  C          6.1720    0.8670   -0.9670 C.2     1  UNL1        0.0000
     11  C          5.0250    1.6570    0.9670 C.2     1  UNL1        0.0000
     12  C          5.3790    1.8240   -0.3710 C.2     1  UNL1        0.0000
@<TRIPOS>BOND
     1    10    12    2
     2    10     8    1
     3    12    11    1
     4     8     7    2
     5    11     9    2
     6     3     2    2
     7     7     9    1
     8     7     6    1
     9     2     4    1
    10     2     1    1
    11     6     1    1
    12     4     5    1
