MODEL 1
REMARK VINA RESULT:      -7.1      0.000      0.000
REMARK SMILES O=C(O)CCc1ccccc1
REMARK SMILES IDX 4 1 2 2 1 3 3 4 5 6 6 7 7 8 11 9 8 10 10 11 9 12
REMARK H PARENT 3 5
REMARK Flexibility Score: inf
ROOT
ATOM      1  C   UNL     1       8.494  -0.623  -2.159  1.00  0.00     0.127 C 
ENDROOT
BRANCH   1   2
ATOM      2  C   UNL     1       8.522  -1.908  -2.905  1.00  0.00     0.303 C 
ATOM      3  O   UNL     1       9.569  -2.568  -3.126  1.00  0.00    -0.252 OA
BRANCH   2   4
ATOM      4  O   UNL     1       7.332  -2.427  -3.393  1.00  0.00    -0.481 OA
ATOM      5  H   UNL     1       7.067  -3.349  -3.041  1.00  0.00     0.296 HD
ENDBRANCH   2   4
ENDBRANCH   1   2
BRANCH   1   6
ATOM      6  C   UNL     1       7.095  -0.082  -2.150  1.00  0.00     0.047 C 
BRANCH   6   7
ATOM      7  C   UNL     1       6.516   0.073  -0.817  1.00  0.00    -0.047 A 
ATOM      8  C   UNL     1       6.600  -0.880   0.168  1.00  0.00     0.004 A 
ATOM      9  C   UNL     1       5.845   1.233  -0.517  1.00  0.00     0.004 A 
ATOM     10  C   UNL     1       6.049  -0.718   1.417  1.00  0.00     0.000 A 
ATOM     11  C   UNL     1       5.281   1.428   0.723  1.00  0.00     0.000 A 
ATOM     12  C   UNL     1       5.377   0.449   1.710  1.00  0.00     0.000 A 
ENDBRANCH   6   7
ENDBRANCH   1   6
TORSDOF 4
ENDMDL
MODEL 2
REMARK VINA RESULT:      -7.1      0.048      1.426
REMARK SMILES O=C(O)CCc1ccccc1
REMARK SMILES IDX 4 1 2 2 1 3 3 4 5 6 6 7 7 8 11 9 8 10 10 11 9 12
REMARK H PARENT 3 5
REMARK Flexibility Score: inf
ROOT
ATOM      1  C   UNL     1       8.468  -0.630  -2.122  1.00  0.00     0.127 C 
ENDROOT
BRANCH   1   2
ATOM      2  C   UNL     1       8.514  -1.905  -2.884  1.00  0.00     0.303 C 
ATOM      3  O   UNL     1       9.567  -2.558  -3.095  1.00  0.00    -0.252 OA
BRANCH   2   4
ATOM      4  O   UNL     1       7.334  -2.420  -3.400  1.00  0.00    -0.481 OA
ATOM      5  H   UNL     1       6.830  -3.074  -2.798  1.00  0.00     0.296 HD
ENDBRANCH   2   4
ENDBRANCH   1   2
BRANCH   1   6
ATOM      6  C   UNL     1       7.071  -0.084  -2.144  1.00  0.00     0.047 C 
BRANCH   6   7
ATOM      7  C   UNL     1       6.483   0.124  -0.823  1.00  0.00    -0.047 A 
ATOM      8  C   UNL     1       5.821   1.269  -0.453  1.00  0.00     0.004 A 
ATOM      9  C   UNL     1       6.591  -0.872   0.115  1.00  0.00     0.004 A 
ATOM     10  C   UNL     1       5.274   1.449   0.795  1.00  0.00     0.000 A 
ATOM     11  C   UNL     1       6.056  -0.726   1.374  1.00  0.00     0.000 A 
ATOM     12  C   UNL     1       5.386   0.444   1.731  1.00  0.00     0.000 A 
ENDBRANCH   6   7
ENDBRANCH   1   6
TORSDOF 4
ENDMDL
MODEL 3
REMARK VINA RESULT:      -6.6      3.352      5.063
REMARK SMILES O=C(O)CCc1ccccc1
REMARK SMILES IDX 4 1 2 2 1 3 3 4 5 6 6 7 7 8 11 9 8 10 10 11 9 12
REMARK H PARENT 3 5
REMARK Flexibility Score: inf
ROOT
ATOM      1  C   UNL     1       5.031   1.843   0.734  1.00  0.00     0.127 C 
ENDROOT
BRANCH   1   2
ATOM      2  C   UNL     1       4.516   1.108   1.918  1.00  0.00     0.303 C 
ATOM      3  O   UNL     1       5.135   0.174   2.489  1.00  0.00    -0.252 OA
BRANCH   2   4
ATOM      4  O   UNL     1       3.280   1.459   2.440  1.00  0.00    -0.481 OA
ATOM      5  H   UNL     1       2.844   0.774   3.062  1.00  0.00     0.296 HD
ENDBRANCH   2   4
ENDBRANCH   1   2
BRANCH   1   6
ATOM      6  C   UNL     1       6.531   1.799   0.734  1.00  0.00     0.047 C 
BRANCH   6   7
ATOM      7  C   UNL     1       7.112   1.007  -0.348  1.00  0.00    -0.047 A 
ATOM      8  C   UNL     1       6.419   0.058  -1.057  1.00  0.00     0.004 A 
ATOM      9  C   UNL     1       8.427   1.212  -0.687  1.00  0.00     0.004 A 
ATOM     10  C   UNL     1       6.981  -0.679  -2.073  1.00  0.00     0.000 A 
ATOM     11  C   UNL     1       9.022   0.492  -1.697  1.00  0.00     0.000 A 
ATOM     12  C   UNL     1       8.302  -0.467  -2.406  1.00  0.00     0.000 A 
ENDBRANCH   6   7
ENDBRANCH   1   6
TORSDOF 4
ENDMDL
MODEL 4
REMARK VINA RESULT:      -6.5      2.444      3.553
REMARK SMILES O=C(O)CCc1ccccc1
REMARK SMILES IDX 4 1 2 2 1 3 3 4 5 6 6 7 7 8 11 9 8 10 10 11 9 12
REMARK H PARENT 3 5
REMARK Flexibility Score: inf
ROOT
ATOM      1  C   UNL     1       7.864  -1.313   2.437  1.00  0.00     0.127 C 
ENDROOT
BRANCH   1   2
ATOM      2  C   UNL     1       8.722  -2.300   1.730  1.00  0.00     0.303 C 
ATOM      3  O   UNL     1       9.965  -2.393   1.892  1.00  0.00    -0.252 OA
BRANCH   2   4
ATOM      4  O   UNL     1       8.132  -3.181   0.835  1.00  0.00    -0.481 OA
ATOM      5  H   UNL     1       7.118  -3.105   0.733  1.00  0.00     0.296 HD
ENDBRANCH   2   4
ENDBRANCH   1   2
BRANCH   1   6
ATOM      6  C   UNL     1       6.470  -1.379   1.887  1.00  0.00     0.047 C 
BRANCH   6   7
ATOM      7  C   UNL     1       6.075  -0.211   1.102  1.00  0.00    -0.047 A 
ATOM      8  C   UNL     1       5.327   0.827   1.600  1.00  0.00     0.004 A 
ATOM      9  C   UNL     1       6.466  -0.133  -0.212  1.00  0.00     0.004 A 
ATOM     10  C   UNL     1       4.964   1.918   0.847  1.00  0.00     0.000 A 
ATOM     11  C   UNL     1       6.120   0.944  -0.994  1.00  0.00     0.000 A 
ATOM     12  C   UNL     1       5.360   1.989  -0.471  1.00  0.00     0.000 A 
ENDBRANCH   6   7
ENDBRANCH   1   6
TORSDOF 4
ENDMDL
MODEL 5
REMARK VINA RESULT:      -6.5      2.459      3.660
REMARK SMILES O=C(O)CCc1ccccc1
REMARK SMILES IDX 4 1 2 2 1 3 3 4 5 6 6 7 7 8 11 9 8 10 10 11 9 12
REMARK H PARENT 3 5
REMARK Flexibility Score: inf
ROOT
ATOM      1  C   UNL     1       8.028  -1.378   2.528  1.00  0.00     0.127 C 
ENDROOT
BRANCH   1   2
ATOM      2  C   UNL     1       9.003  -2.278   1.858  1.00  0.00     0.303 C 
ATOM      3  O   UNL     1       8.685  -3.150   1.010  1.00  0.00    -0.252 OA
BRANCH   2   4
ATOM      4  O   UNL     1      10.349  -2.163   2.174  1.00  0.00    -0.481 OA
ATOM      5  H   UNL     1      10.562  -1.909   3.142  1.00  0.00     0.296 HD
ENDBRANCH   2   4
ENDBRANCH   1   2
BRANCH   1   6
ATOM      6  C   UNL     1       6.679  -1.541   1.891  1.00  0.00     0.047 C 
BRANCH   6   7
ATOM      7  C   UNL     1       6.248  -0.397   1.090  1.00  0.00    -0.047 A 
ATOM      8  C   UNL     1       6.587  -0.216  -0.228  1.00  0.00     0.004 A 
ATOM      9  C   UNL     1       5.458   0.561   1.676  1.00  0.00     0.004 A 
ATOM     10  C   UNL     1       6.172   0.867  -0.967  1.00  0.00     0.000 A 
ATOM     11  C   UNL     1       5.025   1.657   0.967  1.00  0.00     0.000 A 
ATOM     12  C   UNL     1       5.379   1.824  -0.371  1.00  0.00     0.000 A 
ENDBRANCH   6   7
ENDBRANCH   1   6
TORSDOF 4
ENDMDL
