@<TRIPOS>MOLECULE
/home/cewinharhar/GITHUB/reincatalyze/data/processed/docking_pred/2023-Apr-25-2140_maxeplen10_maxtrainstep200_exh16_gamma099_lrac3e-4_lrcr1e-3/00fabcb6e86abbd64330e8a307762c5d347247e8_ligand_2.pdbqt
 12 12 0 0 0
SMALL
GASTEIGER

@<TRIPOS>ATOM
      1  C          8.4680   -0.6300   -2.1220 C.3     1  UNL1        0.1270
      2  C          8.5140   -1.9050   -2.8840 C.2     1  UNL1        0.3030
      3  O          9.5670   -2.5580   -3.0950 O.2     1  UNL1       -0.2520
      4  O          7.3340   -2.4200   -3.4000 O.3     1  UNL1       -0.4810
      5  H          6.8300   -3.0740   -2.7980 H       1  UNL1        0.2960
      6  C          7.0710   -0.0840   -2.1440 C.3     1  UNL1        0.0470
      7  C          6.4830    0.1240   -0.8230 C.2     1  UNL1       -0.0470
      8  C          5.8210    1.2690   -0.4530 C.2     1  UNL1        0.0040
      9  C          6.5910   -0.8720    0.1150 C.2     1  UNL1        0.0040
     10  C          5.2740    1.4490    0.7950 C.2     1  UNL1        0.0000
     11  C          6.0560   -0.7260    1.3740 C.2     1  UNL1        0.0000
     12  C          5.3860    0.4440    1.7310 C.2     1  UNL1        0.0000
@<TRIPOS>BOND
     1     4     2    1
     2     4     5    1
     3     3     2    2
     4     2     1    1
     5     6     1    1
     6     6     7    1
     7     7     8    2
     8     7     9    1
     9     8    10    1
    10     9    11    2
    11    10    12    2
    12    11    12    1
