@<TRIPOS>MOLECULE
/home/cewinharhar/GITHUB/reincatalyze/data/processed/docking_pred/2023-Apr-25-2140_maxeplen10_maxtrainstep200_exh16_gamma099_lrac3e-4_lrcr1e-3/00fabcb6e86abbd64330e8a307762c5d347247e8_ligand_2.pdbqt
 12 12 0 0 0
SMALL
GASTEIGER

@<TRIPOS>ATOM
      1  C          8.4940   -0.6230   -2.1590 C.3     1  UNL1        0.1270
      2  C          8.5220   -1.9080   -2.9050 C.2     1  UNL1        0.3030
      3  O          9.5690   -2.5680   -3.1260 O.2     1  UNL1       -0.2520
      4  O          7.3320   -2.4270   -3.3930 O.3     1  UNL1       -0.4810
      5  H          7.0670   -3.3490   -3.0410 H       1  UNL1        0.2960
      6  C          7.0950   -0.0820   -2.1500 C.3     1  UNL1        0.0470
      7  C          6.5160    0.0730   -0.8170 C.2     1  UNL1       -0.0470
      8  C          6.6000   -0.8800    0.1680 C.2     1  UNL1        0.0040
      9  C          5.8450    1.2330   -0.5170 C.2     1  UNL1        0.0040
     10  C          6.0490   -0.7180    1.4170 C.2     1  UNL1        0.0000
     11  C          5.2810    1.4280    0.7230 C.2     1  UNL1        0.0000
     12  C          5.3770    0.4490    1.7100 C.2     1  UNL1        0.0000
@<TRIPOS>BOND
     1     4     5    1
     2     4     2    1
     3     3     2    2
     4     2     1    1
     5     1     6    1
     6     6     7    1
     7     7     9    2
     8     7     8    1
     9     9    11    1
    10     8    10    2
    11    11    12    2
    12    10    12    1
