MODEL 1
REMARK VINA RESULT:      -7.3      0.000      0.000
REMARK SMILES O=C(O)CCc1ccccc1
REMARK SMILES IDX 4 1 2 2 1 3 3 4 5 6 6 7 7 8 11 9 8 10 10 11 9 12
REMARK H PARENT 3 5
REMARK Flexibility Score: inf
ROOT
ATOM      1  C   UNL     1       8.466  -0.585  -2.192  1.00  0.00     0.127 C 
ENDROOT
BRANCH   1   2
ATOM      2  C   UNL     1       8.524  -1.883  -2.913  1.00  0.00     0.303 C 
ATOM      3  O   UNL     1       9.582  -2.535  -3.099  1.00  0.00    -0.252 OA
BRANCH   2   4
ATOM      4  O   UNL     1       7.350  -2.423  -3.417  1.00  0.00    -0.481 OA
ATOM      5  H   UNL     1       6.491  -2.163  -2.927  1.00  0.00     0.296 HD
ENDBRANCH   2   4
ENDBRANCH   1   2
BRANCH   1   6
ATOM      6  C   UNL     1       7.047  -0.097  -2.154  1.00  0.00     0.047 C 
BRANCH   6   7
ATOM      7  C   UNL     1       6.498   0.060  -0.809  1.00  0.00    -0.047 A 
ATOM      8  C   UNL     1       5.861   1.194  -0.371  1.00  0.00     0.004 A 
ATOM      9  C   UNL     1       6.619  -0.979   0.081  1.00  0.00     0.004 A 
ATOM     10  C   UNL     1       5.351   1.325   0.899  1.00  0.00     0.000 A 
ATOM     11  C   UNL     1       6.120  -0.882   1.359  1.00  0.00     0.000 A 
ATOM     12  C   UNL     1       5.476   0.278   1.786  1.00  0.00     0.000 A 
ENDBRANCH   6   7
ENDBRANCH   1   6
TORSDOF 4
ENDMDL
MODEL 2
REMARK VINA RESULT:      -7.3      0.063      1.426
REMARK SMILES O=C(O)CCc1ccccc1
REMARK SMILES IDX 4 1 2 2 1 3 3 4 5 6 6 7 7 8 11 9 8 10 10 11 9 12
REMARK H PARENT 3 5
REMARK Flexibility Score: inf
ROOT
ATOM      1  C   UNL     1       8.417  -0.525  -2.278  1.00  0.00     0.127 C 
ENDROOT
BRANCH   1   2
ATOM      2  C   UNL     1       8.501  -1.867  -2.912  1.00  0.00     0.303 C 
ATOM      3  O   UNL     1       9.569  -2.519  -3.034  1.00  0.00    -0.252 OA
BRANCH   2   4
ATOM      4  O   UNL     1       7.343  -2.450  -3.404  1.00  0.00    -0.481 OA
ATOM      5  H   UNL     1       7.420  -3.429  -3.687  1.00  0.00     0.296 HD
ENDBRANCH   2   4
ENDBRANCH   1   2
BRANCH   1   6
ATOM      6  C   UNL     1       6.978  -0.112  -2.172  1.00  0.00     0.047 C 
BRANCH   6   7
ATOM      7  C   UNL     1       6.480  -0.004  -0.803  1.00  0.00    -0.047 A 
ATOM      8  C   UNL     1       6.603  -0.999   0.136  1.00  0.00     0.004 A 
ATOM      9  C   UNL     1       5.849   1.152  -0.417  1.00  0.00     0.004 A 
ATOM     10  C   UNL     1       6.129  -0.881   1.420  1.00  0.00     0.000 A 
ATOM     11  C   UNL     1       5.361   1.304   0.860  1.00  0.00     0.000 A 
ATOM     12  C   UNL     1       5.496   0.283   1.800  1.00  0.00     0.000 A 
ENDBRANCH   6   7
ENDBRANCH   1   6
TORSDOF 4
ENDMDL
MODEL 3
REMARK VINA RESULT:      -6.8      3.370      5.083
REMARK SMILES O=C(O)CCc1ccccc1
REMARK SMILES IDX 4 1 2 2 1 3 3 4 5 6 6 7 7 8 11 9 8 10 10 11 9 12
REMARK H PARENT 3 5
REMARK Flexibility Score: inf
ROOT
ATOM      1  C   UNL     1       5.004   1.807   0.689  1.00  0.00     0.127 C 
ENDROOT
BRANCH   1   2
ATOM      2  C   UNL     1       4.519   1.102   1.904  1.00  0.00     0.303 C 
ATOM      3  O   UNL     1       5.161   0.195   2.492  1.00  0.00    -0.252 OA
BRANCH   2   4
ATOM      4  O   UNL     1       3.286   1.452   2.435  1.00  0.00    -0.481 OA
ATOM      5  H   UNL     1       2.699   0.678   2.754  1.00  0.00     0.296 HD
ENDBRANCH   2   4
ENDBRANCH   1   2
BRANCH   1   6
ATOM      6  C   UNL     1       6.504   1.825   0.688  1.00  0.00     0.047 C 
BRANCH   6   7
ATOM      7  C   UNL     1       7.118   1.027  -0.371  1.00  0.00    -0.047 A 
ATOM      8  C   UNL     1       6.441   0.088  -1.109  1.00  0.00     0.004 A 
ATOM      9  C   UNL     1       8.447   1.215  -0.656  1.00  0.00     0.004 A 
ATOM     10  C   UNL     1       7.034  -0.655  -2.103  1.00  0.00     0.000 A 
ATOM     11  C   UNL     1       9.073   0.489  -1.643  1.00  0.00     0.000 A 
ATOM     12  C   UNL     1       8.369  -0.460  -2.383  1.00  0.00     0.000 A 
ENDBRANCH   6   7
ENDBRANCH   1   6
TORSDOF 4
ENDMDL
MODEL 4
REMARK VINA RESULT:      -6.6      1.940      2.248
REMARK SMILES O=C(O)CCc1ccccc1
REMARK SMILES IDX 4 1 2 2 1 3 3 4 5 6 6 7 7 8 11 9 8 10 10 11 9 12
REMARK H PARENT 3 5
REMARK Flexibility Score: inf
ROOT
ATOM      1  C   UNL     1       8.193   0.255  -2.146  1.00  0.00     0.127 C 
ENDROOT
BRANCH   1   2
ATOM      2  C   UNL     1       9.348   0.354  -1.216  1.00  0.00     0.303 C 
ATOM      3  O   UNL     1       9.496  -0.374  -0.202  1.00  0.00    -0.252 OA
BRANCH   2   4
ATOM      4  O   UNL     1      10.331   1.300  -1.466  1.00  0.00    -0.481 OA
ATOM      5  H   UNL     1      10.704   1.786  -0.647  1.00  0.00     0.296 HD
ENDBRANCH   2   4
ENDBRANCH   1   2
BRANCH   1   6
ATOM      6  C   UNL     1       7.102  -0.551  -1.505  1.00  0.00     0.047 C 
BRANCH   6   7
ATOM      7  C   UNL     1       6.337   0.169  -0.490  1.00  0.00    -0.047 A 
ATOM      8  C   UNL     1       5.771   1.404  -0.693  1.00  0.00     0.004 A 
ATOM      9  C   UNL     1       6.164  -0.408   0.743  1.00  0.00     0.004 A 
ATOM     10  C   UNL     1       5.054   2.068   0.273  1.00  0.00     0.000 A 
ATOM     11  C   UNL     1       5.452   0.228   1.734  1.00  0.00     0.000 A 
ATOM     12  C   UNL     1       4.885   1.481   1.509  1.00  0.00     0.000 A 
ENDBRANCH   6   7
ENDBRANCH   1   6
TORSDOF 4
ENDMDL
MODEL 5
REMARK VINA RESULT:      -6.5      3.730      5.126
REMARK SMILES O=C(O)CCc1ccccc1
REMARK SMILES IDX 4 1 2 2 1 3 3 4 5 6 6 7 7 8 11 9 8 10 10 11 9 12
REMARK H PARENT 3 5
REMARK Flexibility Score: inf
ROOT
ATOM      1  C   UNL     1       5.330   2.914   0.097  1.00  0.00     0.127 C 
ENDROOT
BRANCH   1   2
ATOM      2  C   UNL     1       6.199   3.887   0.809  1.00  0.00     0.303 C 
ATOM      3  O   UNL     1       6.883   4.770   0.232  1.00  0.00    -0.252 OA
BRANCH   2   4
ATOM      4  O   UNL     1       6.272   3.833   2.193  1.00  0.00    -0.481 OA
ATOM      5  H   UNL     1       5.510   4.290   2.700  1.00  0.00     0.296 HD
ENDBRANCH   2   4
ENDBRANCH   1   2
BRANCH   1   6
ATOM      6  C   UNL     1       5.343   1.604   0.829  1.00  0.00     0.047 C 
BRANCH   6   7
ATOM      7  C   UNL     1       6.079   0.540   0.151  1.00  0.00    -0.047 A 
ATOM      8  C   UNL     1       6.560  -0.580   0.784  1.00  0.00     0.004 A 
ATOM      9  C   UNL     1       6.312   0.651  -1.197  1.00  0.00     0.004 A 
ATOM     10  C   UNL     1       7.251  -1.572   0.130  1.00  0.00     0.000 A 
ATOM     11  C   UNL     1       7.001  -0.322  -1.883  1.00  0.00     0.000 A 
ATOM     12  C   UNL     1       7.481  -1.452  -1.224  1.00  0.00     0.000 A 
ENDBRANCH   6   7
ENDBRANCH   1   6
TORSDOF 4
ENDMDL
