@<TRIPOS>MOLECULE
/home/cewinharhar/GITHUB/reincatalyze/data/processed/docking_pred/2023-Apr-25-2140_maxeplen10_maxtrainstep200_exh16_gamma099_lrac3e-4_lrcr1e-3/0310d41f91ab2de901a6698b161cc991790b6b4b_ligand_2.pdbqt
 12 12 0 0 0
SMALL
GASTEIGER

@<TRIPOS>ATOM
      1  C          5.3300    2.9140    0.0970 C.3     1  UNL1        0.1270
      2  C          6.1990    3.8870    0.8090 C.2     1  UNL1        0.3030
      3  O          6.8830    4.7700    0.2320 O.2     1  UNL1       -0.2520
      4  O          6.2720    3.8330    2.1930 O.3     1  UNL1       -0.4810
      5  H          5.5100    4.2900    2.7000 H       1  UNL1        0.2960
      6  C          5.3430    1.6040    0.8290 C.3     1  UNL1        0.0470
      7  C          6.0790    0.5400    0.1510 C.2     1  UNL1       -0.0470
      8  C          6.5600   -0.5800    0.7840 C.2     1  UNL1        0.0040
      9  C          6.3120    0.6510   -1.1970 C.2     1  UNL1        0.0040
     10  C          7.2510   -1.5720    0.1300 C.2     1  UNL1        0.0000
     11  C          7.0010   -0.3220   -1.8830 C.2     1  UNL1        0.0000
     12  C          7.4810   -1.4520   -1.2240 C.2     1  UNL1        0.0000
@<TRIPOS>BOND
     1    11    12    2
     2    11     9    1
     3    12    10    1
     4     9     7    2
     5     1     2    1
     6     1     6    1
     7    10     8    2
     8     7     8    1
     9     7     6    1
    10     3     2    2
    11     2     4    1
    12     4     5    1
