@<TRIPOS>MOLECULE
/home/cewinharhar/GITHUB/reincatalyze/data/processed/docking_pred/2023-Apr-25-2140_maxeplen10_maxtrainstep200_exh16_gamma099_lrac3e-4_lrcr1e-3/0310d41f91ab2de901a6698b161cc991790b6b4b_ligand_2.pdbqt
 12 12 0 0 0
SMALL
GASTEIGER

@<TRIPOS>ATOM
      1  C          8.4170   -0.5250   -2.2780 C.3     1  UNL1        0.1270
      2  C          8.5010   -1.8670   -2.9120 C.2     1  UNL1        0.3030
      3  O          9.5690   -2.5190   -3.0340 O.2     1  UNL1       -0.2520
      4  O          7.3430   -2.4500   -3.4040 O.3     1  UNL1       -0.4810
      5  H          7.4200   -3.4290   -3.6870 H       1  UNL1        0.2960
      6  C          6.9780   -0.1120   -2.1720 C.3     1  UNL1        0.0470
      7  C          6.4800   -0.0040   -0.8030 C.2     1  UNL1       -0.0470
      8  C          6.6030   -0.9990    0.1360 C.2     1  UNL1        0.0040
      9  C          5.8490    1.1520   -0.4170 C.2     1  UNL1        0.0040
     10  C          6.1290   -0.8810    1.4200 C.2     1  UNL1        0.0000
     11  C          5.3610    1.3040    0.8600 C.2     1  UNL1        0.0000
     12  C          5.4960    0.2830    1.8000 C.2     1  UNL1        0.0000
@<TRIPOS>BOND
     1     5     4    1
     2     4     2    1
     3     3     2    2
     4     2     1    1
     5     1     6    1
     6     6     7    1
     7     7     9    2
     8     7     8    1
     9     9    11    1
    10     8    10    2
    11    11    12    2
    12    10    12    1
