@<TRIPOS>MOLECULE
/home/cewinharhar/GITHUB/reincatalyze/data/processed/docking_pred/2023-Apr-25-2140_maxeplen10_maxtrainstep200_exh16_gamma099_lrac3e-4_lrcr1e-3/0310d41f91ab2de901a6698b161cc991790b6b4b_ligand_2.pdbqt
 12 12 0 0 0
SMALL
GASTEIGER

@<TRIPOS>ATOM
      1  C          5.0040    1.8070    0.6890 C.3     1  UNL1        0.1270
      2  C          4.5190    1.1020    1.9040 C.2     1  UNL1        0.3030
      3  O          5.1610    0.1950    2.4920 O.2     1  UNL1       -0.2520
      4  O          3.2860    1.4520    2.4350 O.3     1  UNL1       -0.4810
      5  H          2.6990    0.6780    2.7540 H       1  UNL1        0.2960
      6  C          6.5040    1.8250    0.6880 C.3     1  UNL1        0.0470
      7  C          7.1180    1.0270   -0.3710 C.2     1  UNL1       -0.0470
      8  C          6.4410    0.0880   -1.1090 C.2     1  UNL1        0.0040
      9  C          8.4470    1.2150   -0.6560 C.2     1  UNL1        0.0040
     10  C          7.0340   -0.6550   -2.1030 C.2     1  UNL1        0.0000
     11  C          9.0730    0.4890   -1.6430 C.2     1  UNL1        0.0000
     12  C          8.3690   -0.4600   -2.3830 C.2     1  UNL1        0.0000
@<TRIPOS>BOND
     1    12    10    2
     2    12    11    1
     3    10     8    1
     4    11     9    2
     5     8     7    2
     6     9     7    1
     7     7     6    1
     8     6     1    1
     9     1     2    1
    10     2     4    1
    11     2     3    2
    12     4     5    1
