@<TRIPOS>MOLECULE
/home/cewinharhar/GITHUB/reincatalyze/data/processed/docking_pred/2023-Apr-25-2140_maxeplen10_maxtrainstep200_exh16_gamma099_lrac3e-4_lrcr1e-3/0310d41f91ab2de901a6698b161cc991790b6b4b_ligand_2.pdbqt
 12 12 0 0 0
SMALL
GASTEIGER

@<TRIPOS>ATOM
      1  C          8.1930    0.2550   -2.1460 C.3     1  UNL1        0.1270
      2  C          9.3480    0.3540   -1.2160 C.2     1  UNL1        0.3030
      3  O          9.4960   -0.3740   -0.2020 O.2     1  UNL1       -0.2520
      4  O         10.3310    1.3000   -1.4660 O.3     1  UNL1       -0.4810
      5  H         10.7040    1.7860   -0.6470 H       1  UNL1        0.2960
      6  C          7.1020   -0.5510   -1.5050 C.3     1  UNL1        0.0470
      7  C          6.3370    0.1690   -0.4900 C.2     1  UNL1       -0.0470
      8  C          5.7710    1.4040   -0.6930 C.2     1  UNL1        0.0040
      9  C          6.1640   -0.4080    0.7430 C.2     1  UNL1        0.0040
     10  C          5.0540    2.0680    0.2730 C.2     1  UNL1        0.0000
     11  C          5.4520    0.2280    1.7340 C.2     1  UNL1        0.0000
     12  C          4.8850    1.4810    1.5090 C.2     1  UNL1        0.0000
@<TRIPOS>BOND
     1     1     6    1
     2     1     2    1
     3     6     7    1
     4     4     2    1
     5     4     5    1
     6     2     3    2
     7     8     7    2
     8     8    10    1
     9     7     9    1
    10    10    12    2
    11     9    11    2
    12    12    11    1
