@<TRIPOS>MOLECULE
/home/cewinharhar/GITHUB/reincatalyze/data/processed/docking_pred/2023-Apr-25-2140_maxeplen10_maxtrainstep200_exh16_gamma099_lrac3e-4_lrcr1e-3/034cecc51265c6b10d0b2cc1c9f67b1ec6b5e3be_ligand_2.pdbqt
 12 12 0 0 0
SMALL
GASTEIGER

@<TRIPOS>ATOM
      1  C          8.1880    0.2280   -2.1470 C.3     1  UNL1        0.1270
      2  C          9.3340    0.3350   -1.2080 C.2     1  UNL1        0.3030
      3  O          9.4800   -0.3940   -0.1940 O.2     1  UNL1       -0.2520
      4  O         10.3110    1.2890   -1.4480 O.3     1  UNL1       -0.4810
      5  H         10.7060    1.7450   -0.6220 H       1  UNL1        0.2960
      6  C          7.0900   -0.5700   -1.5070 C.3     1  UNL1        0.0470
      7  C          6.3300    0.1550   -0.4900 C.2     1  UNL1       -0.0470
      8  C          5.7750    1.3950   -0.6910 C.2     1  UNL1        0.0040
      9  C          6.1530   -0.4240    0.7420 C.2     1  UNL1        0.0040
     10  C          5.0630    2.0630    0.2770 C.2     1  UNL1        0.0000
     11  C          5.4470    0.2170    1.7340 C.2     1  UNL1        0.0000
     12  C          4.8900    1.4750    1.5120 C.2     1  UNL1        0.0000
@<TRIPOS>BOND
     1     1     6    1
     2     1     2    1
     3     6     7    1
     4     4     2    1
     5     4     5    1
     6     2     3    2
     7     8     7    2
     8     8    10    1
     9     7     9    1
    10    10    12    2
    11     9    11    2
    12    12    11    1
