@<TRIPOS>MOLECULE
/home/cewinharhar/GITHUB/reincatalyze/data/processed/docking_pred/2023-Apr-25-2140_maxeplen10_maxtrainstep200_exh16_gamma099_lrac3e-4_lrcr1e-3/034cecc51265c6b10d0b2cc1c9f67b1ec6b5e3be_ligand_2.pdbqt
 12 12 0 0 0
SMALL
GASTEIGER

@<TRIPOS>ATOM
      1  C          5.0110    1.8360    0.7310 C.3     1  UNL1        0.1270
      2  C          4.4950    1.1130    1.9230 C.2     1  UNL1        0.3030
      3  O          5.1150    0.1860    2.5030 O.2     1  UNL1       -0.2520
      4  O          3.2590    1.4700    2.4410 O.3     1  UNL1       -0.4810
      5  H          3.0250    2.4640    2.3970 H       1  UNL1        0.2960
      6  C          6.5120    1.8060    0.7400 C.3     1  UNL1        0.0470
      7  C          7.1060    1.0170   -0.3360 C.2     1  UNL1       -0.0470
      8  C          6.4320    0.0440   -1.0320 C.2     1  UNL1        0.0040
      9  C          8.4140    1.2480   -0.6820 C.2     1  UNL1        0.0040
     10  C          7.0070   -0.6900   -2.0420 C.2     1  UNL1        0.0000
     11  C          9.0220    0.5320   -1.6870 C.2     1  UNL1        0.0000
     12  C          8.3210   -0.4520   -2.3840 C.2     1  UNL1        0.0000
@<TRIPOS>BOND
     1    12    10    2
     2    12    11    1
     3    10     8    1
     4    11     9    2
     5     8     7    2
     6     9     7    1
     7     7     6    1
     8     1     6    1
     9     1     2    1
    10     2     4    1
    11     2     3    2
    12     5     4    1
