@<TRIPOS>MOLECULE
/home/cewinharhar/GITHUB/reincatalyze/data/processed/docking_pred/2023-Apr-25-2140_maxeplen10_maxtrainstep200_exh16_gamma099_lrac3e-4_lrcr1e-3/034cecc51265c6b10d0b2cc1c9f67b1ec6b5e3be_ligand_2.pdbqt
 12 12 0 0 0
SMALL
GASTEIGER

@<TRIPOS>ATOM
      1  C          8.0130   -1.3530    2.5700 C.3     1  UNL1        0.1270
      2  C          9.0780   -2.1640    1.9250 C.2     1  UNL1        0.3030
      3  O         10.3060   -2.0100    2.1450 O.2     1  UNL1       -0.2520
      4  O          8.7150   -3.1540    1.0250 O.3     1  UNL1       -0.4810
      5  H          9.0450   -3.0310    0.0650 H       1  UNL1        0.2960
      6  C          6.7170   -1.5590    1.8410 C.3     1  UNL1        0.0470
      7  C          6.2410   -0.3870    1.1120 C.2     1  UNL1       -0.0470
      8  C          5.4310    0.5770    1.6600 C.2     1  UNL1        0.0040
      9  C          6.6150   -0.2250   -0.1990 C.2     1  UNL1        0.0040
     10  C          4.9920    1.6750    0.9590 C.2     1  UNL1        0.0000
     11  C          6.1930    0.8610   -0.9300 C.2     1  UNL1        0.0000
     12  C          5.3720    1.8300   -0.3560 C.2     1  UNL1        0.0000
@<TRIPOS>BOND
     1    11    12    2
     2    11     9    1
     3    12    10    1
     4     9     7    2
     5     5     4    1
     6    10     8    2
     7     4     2    1
     8     7     8    1
     9     7     6    1
    10     6     1    1
    11     2     3    2
    12     2     1    1
