MODEL 1
REMARK VINA RESULT:      -7.1      0.000      0.000
REMARK SMILES O=C(O)CCc1ccccc1
REMARK SMILES IDX 4 1 2 2 1 3 3 4 5 6 6 7 7 8 11 9 8 10 10 11 9 12
REMARK H PARENT 3 5
REMARK Flexibility Score: inf
ROOT
ATOM      1  C   UNL     1       8.501  -0.618  -2.153  1.00  0.00     0.127 C 
ENDROOT
BRANCH   1   2
ATOM      2  C   UNL     1       8.538  -1.898  -2.906  1.00  0.00     0.303 C 
ATOM      3  O   UNL     1       9.590  -2.551  -3.127  1.00  0.00    -0.252 OA
BRANCH   2   4
ATOM      4  O   UNL     1       7.352  -2.420  -3.401  1.00  0.00    -0.481 OA
ATOM      5  H   UNL     1       7.266  -2.448  -4.419  1.00  0.00     0.296 HD
ENDBRANCH   2   4
ENDBRANCH   1   2
BRANCH   1   6
ATOM      6  C   UNL     1       7.105  -0.068  -2.171  1.00  0.00     0.047 C 
BRANCH   6   7
ATOM      7  C   UNL     1       6.513   0.121  -0.849  1.00  0.00    -0.047 A 
ATOM      8  C   UNL     1       5.847   1.259  -0.465  1.00  0.00     0.004 A 
ATOM      9  C   UNL     1       6.619  -0.889   0.075  1.00  0.00     0.004 A 
ATOM     10  C   UNL     1       5.296   1.420   0.784  1.00  0.00     0.000 A 
ATOM     11  C   UNL     1       6.080  -0.762   1.334  1.00  0.00     0.000 A 
ATOM     12  C   UNL     1       5.407   0.401   1.706  1.00  0.00     0.000 A 
ENDBRANCH   6   7
ENDBRANCH   1   6
TORSDOF 4
ENDMDL
MODEL 2
REMARK VINA RESULT:      -6.6      3.366      5.094
REMARK SMILES O=C(O)CCc1ccccc1
REMARK SMILES IDX 4 1 2 2 1 3 3 4 5 6 6 7 7 8 11 9 8 10 10 11 9 12
REMARK H PARENT 3 5
REMARK Flexibility Score: inf
ROOT
ATOM      1  C   UNL     1       5.011   1.836   0.731  1.00  0.00     0.127 C 
ENDROOT
BRANCH   1   2
ATOM      2  C   UNL     1       4.495   1.113   1.923  1.00  0.00     0.303 C 
ATOM      3  O   UNL     1       5.115   0.186   2.503  1.00  0.00    -0.252 OA
BRANCH   2   4
ATOM      4  O   UNL     1       3.259   1.470   2.441  1.00  0.00    -0.481 OA
ATOM      5  H   UNL     1       3.025   2.464   2.397  1.00  0.00     0.296 HD
ENDBRANCH   2   4
ENDBRANCH   1   2
BRANCH   1   6
ATOM      6  C   UNL     1       6.512   1.806   0.740  1.00  0.00     0.047 C 
BRANCH   6   7
ATOM      7  C   UNL     1       7.106   1.017  -0.336  1.00  0.00    -0.047 A 
ATOM      8  C   UNL     1       6.432   0.044  -1.032  1.00  0.00     0.004 A 
ATOM      9  C   UNL     1       8.414   1.248  -0.682  1.00  0.00     0.004 A 
ATOM     10  C   UNL     1       7.007  -0.690  -2.042  1.00  0.00     0.000 A 
ATOM     11  C   UNL     1       9.022   0.532  -1.687  1.00  0.00     0.000 A 
ATOM     12  C   UNL     1       8.321  -0.452  -2.384  1.00  0.00     0.000 A 
ENDBRANCH   6   7
ENDBRANCH   1   6
TORSDOF 4
ENDMDL
MODEL 3
REMARK VINA RESULT:      -6.5      2.468      3.567
REMARK SMILES O=C(O)CCc1ccccc1
REMARK SMILES IDX 4 1 2 2 1 3 3 4 5 6 6 7 7 8 11 9 8 10 10 11 9 12
REMARK H PARENT 3 5
REMARK Flexibility Score: inf
ROOT
ATOM      1  C   UNL     1       8.013  -1.353   2.570  1.00  0.00     0.127 C 
ENDROOT
BRANCH   1   2
ATOM      2  C   UNL     1       9.078  -2.164   1.925  1.00  0.00     0.303 C 
ATOM      3  O   UNL     1      10.306  -2.010   2.145  1.00  0.00    -0.252 OA
BRANCH   2   4
ATOM      4  O   UNL     1       8.715  -3.154   1.025  1.00  0.00    -0.481 OA
ATOM      5  H   UNL     1       9.045  -3.031   0.065  1.00  0.00     0.296 HD
ENDBRANCH   2   4
ENDBRANCH   1   2
BRANCH   1   6
ATOM      6  C   UNL     1       6.717  -1.559   1.841  1.00  0.00     0.047 C 
BRANCH   6   7
ATOM      7  C   UNL     1       6.241  -0.387   1.112  1.00  0.00    -0.047 A 
ATOM      8  C   UNL     1       5.431   0.577   1.660  1.00  0.00     0.004 A 
ATOM      9  C   UNL     1       6.615  -0.225  -0.199  1.00  0.00     0.004 A 
ATOM     10  C   UNL     1       4.992   1.675   0.959  1.00  0.00     0.000 A 
ATOM     11  C   UNL     1       6.193   0.861  -0.930  1.00  0.00     0.000 A 
ATOM     12  C   UNL     1       5.372   1.830  -0.356  1.00  0.00     0.000 A 
ENDBRANCH   6   7
ENDBRANCH   1   6
TORSDOF 4
ENDMDL
MODEL 4
REMARK VINA RESULT:      -6.5      2.461      3.586
REMARK SMILES O=C(O)CCc1ccccc1
REMARK SMILES IDX 4 1 2 2 1 3 3 4 5 6 6 7 7 8 11 9 8 10 10 11 9 12
REMARK H PARENT 3 5
REMARK Flexibility Score: inf
ROOT
ATOM      1  C   UNL     1       7.788  -1.530   2.558  1.00  0.00     0.127 C 
ENDROOT
BRANCH   1   2
ATOM      2  C   UNL     1       8.933  -2.106   1.805  1.00  0.00     0.303 C 
ATOM      3  O   UNL     1      10.105  -1.656   1.860  1.00  0.00    -0.252 OA
BRANCH   2   4
ATOM      4  O   UNL     1       8.713  -3.205   0.988  1.00  0.00    -0.481 OA
ATOM      5  H   UNL     1       9.548  -3.639   0.587  1.00  0.00     0.296 HD
ENDBRANCH   2   4
ENDBRANCH   1   2
BRANCH   1   6
ATOM      6  C   UNL     1       6.537  -1.659   1.740  1.00  0.00     0.047 C 
BRANCH   6   7
ATOM      7  C   UNL     1       6.160  -0.447   1.017  1.00  0.00    -0.047 A 
ATOM      8  C   UNL     1       6.529  -0.185  -0.280  1.00  0.00     0.004 A 
ATOM      9  C   UNL     1       5.393   0.495   1.657  1.00  0.00     0.004 A 
ATOM     10  C   UNL     1       6.165   0.961  -0.946  1.00  0.00     0.000 A 
ATOM     11  C   UNL     1       5.012   1.654   1.021  1.00  0.00     0.000 A 
ATOM     12  C   UNL     1       5.396   1.902  -0.296  1.00  0.00     0.000 A 
ENDBRANCH   6   7
ENDBRANCH   1   6
TORSDOF 4
ENDMDL
MODEL 5
REMARK VINA RESULT:      -6.4      1.936      2.224
REMARK SMILES O=C(O)CCc1ccccc1
REMARK SMILES IDX 4 1 2 2 1 3 3 4 5 6 6 7 7 8 11 9 8 10 10 11 9 12
REMARK H PARENT 3 5
REMARK Flexibility Score: inf
ROOT
ATOM      1  C   UNL     1       8.188   0.228  -2.147  1.00  0.00     0.127 C 
ENDROOT
BRANCH   1   2
ATOM      2  C   UNL     1       9.334   0.335  -1.208  1.00  0.00     0.303 C 
ATOM      3  O   UNL     1       9.480  -0.394  -0.194  1.00  0.00    -0.252 OA
BRANCH   2   4
ATOM      4  O   UNL     1      10.311   1.289  -1.448  1.00  0.00    -0.481 OA
ATOM      5  H   UNL     1      10.706   1.745  -0.622  1.00  0.00     0.296 HD
ENDBRANCH   2   4
ENDBRANCH   1   2
BRANCH   1   6
ATOM      6  C   UNL     1       7.090  -0.570  -1.507  1.00  0.00     0.047 C 
BRANCH   6   7
ATOM      7  C   UNL     1       6.330   0.155  -0.490  1.00  0.00    -0.047 A 
ATOM      8  C   UNL     1       5.775   1.395  -0.691  1.00  0.00     0.004 A 
ATOM      9  C   UNL     1       6.153  -0.424   0.742  1.00  0.00     0.004 A 
ATOM     10  C   UNL     1       5.063   2.063   0.277  1.00  0.00     0.000 A 
ATOM     11  C   UNL     1       5.447   0.217   1.734  1.00  0.00     0.000 A 
ATOM     12  C   UNL     1       4.890   1.475   1.512  1.00  0.00     0.000 A 
ENDBRANCH   6   7
ENDBRANCH   1   6
TORSDOF 4
ENDMDL
