@<TRIPOS>MOLECULE
/home/cewinharhar/GITHUB/reincatalyze/data/processed/docking_pred/2023-Apr-25-2140_maxeplen10_maxtrainstep200_exh16_gamma099_lrac3e-4_lrcr1e-3/034cecc51265c6b10d0b2cc1c9f67b1ec6b5e3be_ligand_2.pdbqt
 12 12 0 0 0
SMALL
GASTEIGER

@<TRIPOS>ATOM
      1  C          8.5010   -0.6180   -2.1530 C.3     1  UNL1        0.1270
      2  C          8.5380   -1.8980   -2.9060 C.2     1  UNL1        0.3030
      3  O          9.5900   -2.5510   -3.1270 O.2     1  UNL1       -0.2520
      4  O          7.3520   -2.4200   -3.4010 O.3     1  UNL1       -0.4810
      5  H          7.2660   -2.4480   -4.4190 H       1  UNL1        0.2960
      6  C          7.1050   -0.0680   -2.1710 C.3     1  UNL1        0.0470
      7  C          6.5130    0.1210   -0.8490 C.2     1  UNL1       -0.0470
      8  C          5.8470    1.2590   -0.4650 C.2     1  UNL1        0.0040
      9  C          6.6190   -0.8890    0.0750 C.2     1  UNL1        0.0040
     10  C          5.2960    1.4200    0.7840 C.2     1  UNL1        0.0000
     11  C          6.0800   -0.7620    1.3340 C.2     1  UNL1        0.0000
     12  C          5.4070    0.4010    1.7060 C.2     1  UNL1        0.0000
@<TRIPOS>BOND
     1     5     4    1
     2     4     2    1
     3     3     2    2
     4     2     1    1
     5     6     1    1
     6     6     7    1
     7     7     8    2
     8     7     9    1
     9     8    10    1
    10     9    11    2
    11    10    12    2
    12    11    12    1
