@<TRIPOS>MOLECULE
/home/cewinharhar/GITHUB/reincatalyze/data/processed/docking_pred/2023-Apr-25-2140_maxeplen10_maxtrainstep200_exh16_gamma099_lrac3e-4_lrcr1e-3/034cecc51265c6b10d0b2cc1c9f67b1ec6b5e3be_ligand_2.pdbqt
 12 12 0 0 0
SMALL
GASTEIGER

@<TRIPOS>ATOM
      1  C          7.7880   -1.5300    2.5580 C.3     1  UNL1        0.1270
      2  C          8.9330   -2.1060    1.8050 C.2     1  UNL1        0.3030
      3  O         10.1050   -1.6560    1.8600 O.2     1  UNL1       -0.2520
      4  O          8.7130   -3.2050    0.9880 O.3     1  UNL1       -0.4810
      5  H          9.5480   -3.6390    0.5870 H       1  UNL1        0.2960
      6  C          6.5370   -1.6590    1.7400 C.3     1  UNL1        0.0470
      7  C          6.1600   -0.4470    1.0170 C.2     1  UNL1       -0.0470
      8  C          6.5290   -0.1850   -0.2800 C.2     1  UNL1        0.0040
      9  C          5.3930    0.4950    1.6570 C.2     1  UNL1        0.0040
     10  C          6.1650    0.9610   -0.9460 C.2     1  UNL1        0.0000
     11  C          5.0120    1.6540    1.0210 C.2     1  UNL1        0.0000
     12  C          5.3960    1.9020   -0.2960 C.2     1  UNL1        0.0000
@<TRIPOS>BOND
     1    10    12    2
     2    10     8    1
     3    12    11    1
     4     8     7    2
     5     5     4    1
     6     4     2    1
     7     7     9    1
     8     7     6    1
     9    11     9    2
    10     6     1    1
    11     2     3    2
    12     2     1    1
