@<TRIPOS>MOLECULE
/home/cewinharhar/GITHUB/reincatalyze/data/processed/docking_pred/2023-Apr-25-2140_maxeplen10_maxtrainstep200_exh16_gamma099_lrac3e-4_lrcr1e-3/04093ca98f76925b46d8e425639cb467aa73d951_ligand_2.pdbqt
 12 12 0 0 0
SMALL
GASTEIGER

@<TRIPOS>ATOM
      1  C          5.6000    2.7580   -0.0800 C.3     1  UNL1        0.1270
      2  C          6.2610    3.8130    0.7310 C.2     1  UNL1        0.3030
      3  O          6.9060    4.7740    0.2400 O.2     1  UNL1       -0.2520
      4  O          6.1700    3.7530    2.1130 O.3     1  UNL1       -0.4810
      5  H          5.6560    2.9550    2.4940 H       1  UNL1        0.2960
      6  C          4.9990    1.7290    0.8330 C.3     1  UNL1        0.0470
      7  C          5.7760    0.4980    0.9500 C.2     1  UNL1       -0.0470
      8  C          5.7300   -0.3350    2.0400 C.2     1  UNL1        0.0040
      9  C          6.6070    0.1380   -0.0830 C.2     1  UNL1        0.0040
     10  C          6.4680   -1.4910    2.1330 C.2     1  UNL1        0.0000
     11  C          7.3610   -1.0110   -0.0230 C.2     1  UNL1        0.0000
     12  C          7.3000   -1.8450    1.0920 C.2     1  UNL1        0.0000
@<TRIPOS>BOND
     1     9    11    1
     2     9     7    2
     3     1     2    1
     4     1     6    1
     5    11    12    2
     6     3     2    2
     7     2     4    1
     8     6     7    1
     9     7     8    1
    10    12    10    1
    11     8    10    2
    12     4     5    1
