@<TRIPOS>MOLECULE
/home/cewinharhar/GITHUB/reincatalyze/data/processed/docking_pred/2023-Apr-25-2140_maxeplen10_maxtrainstep200_exh16_gamma099_lrac3e-4_lrcr1e-3/04093ca98f76925b46d8e425639cb467aa73d951_ligand_2.pdbqt
 12 12 0 0 0
SMALL
GASTEIGER

@<TRIPOS>ATOM
      1  C          8.4200   -0.4420   -2.1410 C.3     1  UNL1        0.1270
      2  C          8.4770   -1.7580   -2.8290 C.2     1  UNL1        0.3030
      3  O          9.5410   -2.3960   -3.0350 O.2     1  UNL1       -0.2520
      4  O          7.2970   -2.3320   -3.2780 O.3     1  UNL1       -0.4810
      5  H          7.2080   -2.4400   -4.2910 H       1  UNL1        0.2960
      6  C          6.9980    0.0320   -2.0870 C.3     1  UNL1        0.0470
      7  C          6.4470    0.1380   -0.7380 C.2     1  UNL1       -0.0470
      8  C          6.5530   -0.8480    0.2110 C.2     1  UNL1        0.0040
      9  C          5.7820    1.2850   -0.3830 C.2     1  UNL1        0.0040
     10  C          6.0290   -0.7310    1.4770 C.2     1  UNL1        0.0000
     11  C          5.2440    1.4360    0.8750 C.2     1  UNL1        0.0000
     12  C          5.3620    0.4230    1.8250 C.2     1  UNL1        0.0000
@<TRIPOS>BOND
     1     5     4    1
     2     4     2    1
     3     3     2    2
     4     2     1    1
     5     1     6    1
     6     6     7    1
     7     7     9    2
     8     7     8    1
     9     9    11    1
    10     8    10    2
    11    11    12    2
    12    10    12    1
