@<TRIPOS>MOLECULE
/home/cewinharhar/GITHUB/reincatalyze/data/processed/docking_pred/2023-Apr-25-2140_maxeplen10_maxtrainstep200_exh16_gamma099_lrac3e-4_lrcr1e-3/04093ca98f76925b46d8e425639cb467aa73d951_ligand_2.pdbqt
 12 12 0 0 0
SMALL
GASTEIGER

@<TRIPOS>ATOM
      1  C          4.9920    1.7690    0.6540 C.3     1  UNL1        0.1270
      2  C          4.6010    1.0560    1.8980 C.2     1  UNL1        0.3030
      3  O          5.3270    0.2110    2.4790 O.2     1  UNL1       -0.2520
      4  O          3.3650    1.3270    2.4650 O.3     1  UNL1       -0.4810
      5  H          3.3660    1.9860    3.2470 H       1  UNL1        0.2960
      6  C          6.4860    1.8980    0.6010 C.3     1  UNL1        0.0470
      7  C          7.1270    1.0710   -0.4190 C.2     1  UNL1       -0.0470
      8  C          6.4590    0.1510   -1.1880 C.2     1  UNL1        0.0040
      9  C          8.4770    1.2090   -0.6320 C.2     1  UNL1        0.0040
     10  C          7.0780   -0.6200   -2.1440 C.2     1  UNL1        0.0000
     11  C          9.1290    0.4540   -1.5790 C.2     1  UNL1        0.0000
     12  C          8.4330   -0.4750   -2.3510 C.2     1  UNL1        0.0000
@<TRIPOS>BOND
     1    12    10    2
     2    12    11    1
     3    10     8    1
     4    11     9    2
     5     8     7    2
     6     9     7    1
     7     7     6    1
     8     6     1    1
     9     1     2    1
    10     2     4    1
    11     2     3    2
    12     4     5    1
