MODEL 1
REMARK VINA RESULT:      -6.8      0.000      0.000
REMARK SMILES O=C(O)CCc1ccccc1
REMARK SMILES IDX 4 1 2 2 1 3 3 4 5 6 6 7 7 8 11 9 8 10 10 11 9 12
REMARK H PARENT 3 5
REMARK Flexibility Score: inf
ROOT
ATOM      1  C   UNL     1       8.420  -0.442  -2.141  1.00  0.00     0.127 C 
ENDROOT
BRANCH   1   2
ATOM      2  C   UNL     1       8.477  -1.758  -2.829  1.00  0.00     0.303 C 
ATOM      3  O   UNL     1       9.541  -2.396  -3.035  1.00  0.00    -0.252 OA
BRANCH   2   4
ATOM      4  O   UNL     1       7.297  -2.332  -3.278  1.00  0.00    -0.481 OA
ATOM      5  H   UNL     1       7.208  -2.440  -4.291  1.00  0.00     0.296 HD
ENDBRANCH   2   4
ENDBRANCH   1   2
BRANCH   1   6
ATOM      6  C   UNL     1       6.998   0.032  -2.087  1.00  0.00     0.047 C 
BRANCH   6   7
ATOM      7  C   UNL     1       6.447   0.138  -0.738  1.00  0.00    -0.047 A 
ATOM      8  C   UNL     1       6.553  -0.848   0.211  1.00  0.00     0.004 A 
ATOM      9  C   UNL     1       5.782   1.285  -0.383  1.00  0.00     0.004 A 
ATOM     10  C   UNL     1       6.029  -0.731   1.477  1.00  0.00     0.000 A 
ATOM     11  C   UNL     1       5.244   1.436   0.875  1.00  0.00     0.000 A 
ATOM     12  C   UNL     1       5.362   0.423   1.825  1.00  0.00     0.000 A 
ENDBRANCH   6   7
ENDBRANCH   1   6
TORSDOF 4
ENDMDL
MODEL 2
REMARK VINA RESULT:      -6.7      0.088      1.721
REMARK SMILES O=C(O)CCc1ccccc1
REMARK SMILES IDX 4 1 2 2 1 3 3 4 5 6 6 7 7 8 11 9 8 10 10 11 9 12
REMARK H PARENT 3 5
REMARK Flexibility Score: inf
ROOT
ATOM      1  C   UNL     1       8.383  -0.426  -2.136  1.00  0.00     0.127 C 
ENDROOT
BRANCH   1   2
ATOM      2  C   UNL     1       8.414  -1.741  -2.829  1.00  0.00     0.303 C 
ATOM      3  O   UNL     1       7.392  -2.325  -3.269  1.00  0.00    -0.252 OA
BRANCH   2   4
ATOM      4  O   UNL     1       9.634  -2.375  -3.009  1.00  0.00    -0.481 OA
ATOM      5  H   UNL     1       9.929  -2.512  -3.979  1.00  0.00     0.296 HD
ENDBRANCH   2   4
ENDBRANCH   1   2
BRANCH   1   6
ATOM      6  C   UNL     1       6.971   0.078  -2.085  1.00  0.00     0.047 C 
BRANCH   6   7
ATOM      7  C   UNL     1       6.420   0.195  -0.737  1.00  0.00    -0.047 A 
ATOM      8  C   UNL     1       5.754   1.305  -0.277  1.00  0.00     0.004 A 
ATOM      9  C   UNL     1       6.568  -0.856   0.132  1.00  0.00     0.004 A 
ATOM     10  C   UNL     1       5.242   1.398   0.995  1.00  0.00     0.000 A 
ATOM     11  C   UNL     1       6.068  -0.797   1.413  1.00  0.00     0.000 A 
ATOM     12  C   UNL     1       5.395   0.338   1.862  1.00  0.00     0.000 A 
ENDBRANCH   6   7
ENDBRANCH   1   6
TORSDOF 4
ENDMDL
MODEL 3
REMARK VINA RESULT:      -6.7      3.263      4.984
REMARK SMILES O=C(O)CCc1ccccc1
REMARK SMILES IDX 4 1 2 2 1 3 3 4 5 6 6 7 7 8 11 9 8 10 10 11 9 12
REMARK H PARENT 3 5
REMARK Flexibility Score: inf
ROOT
ATOM      1  C   UNL     1       4.992   1.769   0.654  1.00  0.00     0.127 C 
ENDROOT
BRANCH   1   2
ATOM      2  C   UNL     1       4.601   1.056   1.898  1.00  0.00     0.303 C 
ATOM      3  O   UNL     1       5.327   0.211   2.479  1.00  0.00    -0.252 OA
BRANCH   2   4
ATOM      4  O   UNL     1       3.365   1.327   2.465  1.00  0.00    -0.481 OA
ATOM      5  H   UNL     1       3.366   1.986   3.247  1.00  0.00     0.296 HD
ENDBRANCH   2   4
ENDBRANCH   1   2
BRANCH   1   6
ATOM      6  C   UNL     1       6.486   1.898   0.601  1.00  0.00     0.047 C 
BRANCH   6   7
ATOM      7  C   UNL     1       7.127   1.071  -0.419  1.00  0.00    -0.047 A 
ATOM      8  C   UNL     1       6.459   0.151  -1.188  1.00  0.00     0.004 A 
ATOM      9  C   UNL     1       8.477   1.209  -0.632  1.00  0.00     0.004 A 
ATOM     10  C   UNL     1       7.078  -0.620  -2.144  1.00  0.00     0.000 A 
ATOM     11  C   UNL     1       9.129   0.454  -1.579  1.00  0.00     0.000 A 
ATOM     12  C   UNL     1       8.433  -0.475  -2.351  1.00  0.00     0.000 A 
ENDBRANCH   6   7
ENDBRANCH   1   6
TORSDOF 4
ENDMDL
MODEL 4
REMARK VINA RESULT:      -6.6      0.889      1.364
REMARK SMILES O=C(O)CCc1ccccc1
REMARK SMILES IDX 4 1 2 2 1 3 3 4 5 6 6 7 7 8 11 9 8 10 10 11 9 12
REMARK H PARENT 3 5
REMARK Flexibility Score: inf
ROOT
ATOM      1  C   UNL     1       8.235   0.222  -2.394  1.00  0.00     0.127 C 
ENDROOT
BRANCH   1   2
ATOM      2  C   UNL     1       8.148  -1.247  -2.601  1.00  0.00     0.303 C 
ATOM      3  O   UNL     1       7.070  -1.893  -2.594  1.00  0.00    -0.252 OA
BRANCH   2   4
ATOM      4  O   UNL     1       9.315  -1.964  -2.818  1.00  0.00    -0.481 OA
ATOM      5  H   UNL     1       9.255  -2.974  -2.669  1.00  0.00     0.296 HD
ENDBRANCH   2   4
ENDBRANCH   1   2
BRANCH   1   6
ATOM      6  C   UNL     1       8.620   0.504  -0.971  1.00  0.00     0.047 C 
BRANCH   6   7
ATOM      7  C   UNL     1       7.511   0.448  -0.023  1.00  0.00    -0.047 A 
ATOM      8  C   UNL     1       7.460  -0.415   1.044  1.00  0.00     0.004 A 
ATOM      9  C   UNL     1       6.448   1.300  -0.196  1.00  0.00     0.004 A 
ATOM     10  C   UNL     1       6.408  -0.454   1.928  1.00  0.00     0.000 A 
ATOM     11  C   UNL     1       5.378   1.287   0.669  1.00  0.00     0.000 A 
ATOM     12  C   UNL     1       5.345   0.405   1.747  1.00  0.00     0.000 A 
ENDBRANCH   6   7
ENDBRANCH   1   6
TORSDOF 4
ENDMDL
MODEL 5
REMARK VINA RESULT:      -6.6      3.773      4.811
REMARK SMILES O=C(O)CCc1ccccc1
REMARK SMILES IDX 4 1 2 2 1 3 3 4 5 6 6 7 7 8 11 9 8 10 10 11 9 12
REMARK H PARENT 3 5
REMARK Flexibility Score: inf
ROOT
ATOM      1  C   UNL     1       5.600   2.758  -0.080  1.00  0.00     0.127 C 
ENDROOT
BRANCH   1   2
ATOM      2  C   UNL     1       6.261   3.813   0.731  1.00  0.00     0.303 C 
ATOM      3  O   UNL     1       6.906   4.774   0.240  1.00  0.00    -0.252 OA
BRANCH   2   4
ATOM      4  O   UNL     1       6.170   3.753   2.113  1.00  0.00    -0.481 OA
ATOM      5  H   UNL     1       5.656   2.955   2.494  1.00  0.00     0.296 HD
ENDBRANCH   2   4
ENDBRANCH   1   2
BRANCH   1   6
ATOM      6  C   UNL     1       4.999   1.729   0.833  1.00  0.00     0.047 C 
BRANCH   6   7
ATOM      7  C   UNL     1       5.776   0.498   0.950  1.00  0.00    -0.047 A 
ATOM      8  C   UNL     1       5.730  -0.335   2.040  1.00  0.00     0.004 A 
ATOM      9  C   UNL     1       6.607   0.138  -0.083  1.00  0.00     0.004 A 
ATOM     10  C   UNL     1       6.468  -1.491   2.133  1.00  0.00     0.000 A 
ATOM     11  C   UNL     1       7.361  -1.011  -0.023  1.00  0.00     0.000 A 
ATOM     12  C   UNL     1       7.300  -1.845   1.092  1.00  0.00     0.000 A 
ENDBRANCH   6   7
ENDBRANCH   1   6
TORSDOF 4
ENDMDL
