@<TRIPOS>MOLECULE
/home/cewinharhar/GITHUB/reincatalyze/data/processed/docking_pred/2023-Apr-25-2140_maxeplen10_maxtrainstep200_exh16_gamma099_lrac3e-4_lrcr1e-3/04093ca98f76925b46d8e425639cb467aa73d951_ligand_2.pdbqt
 12 12 0 0 0
SMALL
GASTEIGER

@<TRIPOS>ATOM
      1  C          8.2350    0.2220   -2.3940 C.3     1  UNL1        0.1270
      2  C          8.1480   -1.2470   -2.6010 C.2     1  UNL1        0.3030
      3  O          7.0700   -1.8930   -2.5940 O.2     1  UNL1       -0.2520
      4  O          9.3150   -1.9640   -2.8180 O.3     1  UNL1       -0.4810
      5  H          9.2550   -2.9740   -2.6690 H       1  UNL1        0.2960
      6  C          8.6200    0.5040   -0.9710 C.3     1  UNL1        0.0470
      7  C          7.5110    0.4480   -0.0230 C.2     1  UNL1       -0.0470
      8  C          7.4600   -0.4150    1.0440 C.2     1  UNL1        0.0040
      9  C          6.4480    1.3000   -0.1960 C.2     1  UNL1        0.0040
     10  C          6.4080   -0.4540    1.9280 C.2     1  UNL1        0.0000
     11  C          5.3780    1.2870    0.6690 C.2     1  UNL1        0.0000
     12  C          5.3450    0.4050    1.7470 C.2     1  UNL1        0.0000
@<TRIPOS>BOND
     1     4     5    1
     2     4     2    1
     3     2     3    2
     4     2     1    1
     5     1     6    1
     6     6     7    1
     7     9     7    2
     8     9    11    1
     9     7     8    1
    10    11    12    2
    11     8    10    2
    12    12    10    1
