MODEL 1
REMARK VINA RESULT:      -7.4      0.000      0.000
REMARK SMILES O=C(O)CCc1ccccc1
REMARK SMILES IDX 4 1 2 2 1 3 3 4 5 6 6 7 7 8 11 9 8 10 10 11 9 12
REMARK H PARENT 3 5
REMARK Flexibility Score: inf
ROOT
ATOM      1  C   UNL     1       8.450  -0.539  -2.275  1.00  0.00     0.127 C 
ENDROOT
BRANCH   1   2
ATOM      2  C   UNL     1       8.526  -1.864  -2.943  1.00  0.00     0.303 C 
ATOM      3  O   UNL     1       9.596  -2.502  -3.117  1.00  0.00    -0.252 OA
BRANCH   2   4
ATOM      4  O   UNL     1       7.358  -2.448  -3.410  1.00  0.00    -0.481 OA
ATOM      5  H   UNL     1       7.322  -3.469  -3.373  1.00  0.00     0.296 HD
ENDBRANCH   2   4
ENDBRANCH   1   2
BRANCH   1   6
ATOM      6  C   UNL     1       7.016  -0.106  -2.186  1.00  0.00     0.047 C 
BRANCH   6   7
ATOM      7  C   UNL     1       6.505   0.015  -0.823  1.00  0.00    -0.047 A 
ATOM      8  C   UNL     1       6.610  -0.975   0.123  1.00  0.00     0.004 A 
ATOM      9  C   UNL     1       5.879   1.179  -0.451  1.00  0.00     0.004 A 
ATOM     10  C   UNL     1       6.123  -0.845   1.402  1.00  0.00     0.000 A 
ATOM     11  C   UNL     1       5.379   1.343   0.820  1.00  0.00     0.000 A 
ATOM     12  C   UNL     1       5.496   0.327   1.767  1.00  0.00     0.000 A 
ENDBRANCH   6   7
ENDBRANCH   1   6
TORSDOF 4
ENDMDL
MODEL 2
REMARK VINA RESULT:      -7.3      0.054      1.426
REMARK SMILES O=C(O)CCc1ccccc1
REMARK SMILES IDX 4 1 2 2 1 3 3 4 5 6 6 7 7 8 11 9 8 10 10 11 9 12
REMARK H PARENT 3 5
REMARK Flexibility Score: inf
ROOT
ATOM      1  C   UNL     1       8.439  -0.573  -2.218  1.00  0.00     0.127 C 
ENDROOT
BRANCH   1   2
ATOM      2  C   UNL     1       8.518  -1.881  -2.919  1.00  0.00     0.303 C 
ATOM      3  O   UNL     1       9.589  -2.513  -3.107  1.00  0.00    -0.252 OA
BRANCH   2   4
ATOM      4  O   UNL     1       7.351  -2.455  -3.402  1.00  0.00    -0.481 OA
ATOM      5  H   UNL     1       6.578  -2.526  -2.737  1.00  0.00     0.296 HD
ENDBRANCH   2   4
ENDBRANCH   1   2
BRANCH   1   6
ATOM      6  C   UNL     1       7.012  -0.110  -2.184  1.00  0.00     0.047 C 
BRANCH   6   7
ATOM      7  C   UNL     1       6.471   0.082  -0.840  1.00  0.00    -0.047 A 
ATOM      8  C   UNL     1       5.830   1.225  -0.430  1.00  0.00     0.004 A 
ATOM      9  C   UNL     1       6.605  -0.930   0.078  1.00  0.00     0.004 A 
ATOM     10  C   UNL     1       5.328   1.389   0.838  1.00  0.00     0.000 A 
ATOM     11  C   UNL     1       6.114  -0.800   1.357  1.00  0.00     0.000 A 
ATOM     12  C   UNL     1       5.466   0.368   1.754  1.00  0.00     0.000 A 
ENDBRANCH   6   7
ENDBRANCH   1   6
TORSDOF 4
ENDMDL
MODEL 3
REMARK VINA RESULT:      -6.8      3.380      5.087
REMARK SMILES O=C(O)CCc1ccccc1
REMARK SMILES IDX 4 1 2 2 1 3 3 4 5 6 6 7 7 8 11 9 8 10 10 11 9 12
REMARK H PARENT 3 5
REMARK Flexibility Score: inf
ROOT
ATOM      1  C   UNL     1       4.994   1.822   0.706  1.00  0.00     0.127 C 
ENDROOT
BRANCH   1   2
ATOM      2  C   UNL     1       4.498   1.106   1.910  1.00  0.00     0.303 C 
ATOM      3  O   UNL     1       5.129   0.185   2.488  1.00  0.00    -0.252 OA
BRANCH   2   4
ATOM      4  O   UNL     1       3.269   1.463   2.443  1.00  0.00    -0.481 OA
ATOM      5  H   UNL     1       2.850   2.318   2.072  1.00  0.00     0.296 HD
ENDBRANCH   2   4
ENDBRANCH   1   2
BRANCH   1   6
ATOM      6  C   UNL     1       6.493   1.871   0.736  1.00  0.00     0.047 C 
BRANCH   6   7
ATOM      7  C   UNL     1       7.144   1.112  -0.330  1.00  0.00    -0.047 A 
ATOM      8  C   UNL     1       8.477   1.217  -0.639  1.00  0.00     0.004 A 
ATOM      9  C   UNL     1       6.391   0.238  -1.074  1.00  0.00     0.004 A 
ATOM     10  C   UNL     1       9.073   0.495  -1.646  1.00  0.00     0.000 A 
ATOM     11  C   UNL     1       6.954  -0.500  -2.090  1.00  0.00     0.000 A 
ATOM     12  C   UNL     1       8.311  -0.380  -2.389  1.00  0.00     0.000 A 
ENDBRANCH   6   7
ENDBRANCH   1   6
TORSDOF 4
ENDMDL
MODEL 4
REMARK VINA RESULT:      -6.7      3.846      4.962
REMARK SMILES O=C(O)CCc1ccccc1
REMARK SMILES IDX 4 1 2 2 1 3 3 4 5 6 6 7 7 8 11 9 8 10 10 11 9 12
REMARK H PARENT 3 5
REMARK Flexibility Score: inf
ROOT
ATOM      1  C   UNL     1       5.513   2.865  -0.046  1.00  0.00     0.127 C 
ENDROOT
BRANCH   1   2
ATOM      2  C   UNL     1       6.270   3.859   0.758  1.00  0.00     0.303 C 
ATOM      3  O   UNL     1       6.974   4.774   0.259  1.00  0.00    -0.252 OA
BRANCH   2   4
ATOM      4  O   UNL     1       6.209   3.790   2.142  1.00  0.00    -0.481 OA
ATOM      5  H   UNL     1       5.519   4.397   2.591  1.00  0.00     0.296 HD
ENDBRANCH   2   4
ENDBRANCH   1   2
BRANCH   1   6
ATOM      6  C   UNL     1       4.954   1.810   0.863  1.00  0.00     0.047 C 
BRANCH   6   7
ATOM      7  C   UNL     1       5.732   0.574   0.904  1.00  0.00    -0.047 A 
ATOM      8  C   UNL     1       6.419   0.067  -0.172  1.00  0.00     0.004 A 
ATOM      9  C   UNL     1       5.790  -0.134   2.079  1.00  0.00     0.004 A 
ATOM     10  C   UNL     1       7.147  -1.097  -0.115  1.00  0.00     0.000 A 
ATOM     11  C   UNL     1       6.508  -1.304   2.171  1.00  0.00     0.000 A 
ATOM     12  C   UNL     1       7.200  -1.802   1.068  1.00  0.00     0.000 A 
ENDBRANCH   6   7
ENDBRANCH   1   6
TORSDOF 4
ENDMDL
MODEL 5
REMARK VINA RESULT:      -6.7      1.950      2.671
REMARK SMILES O=C(O)CCc1ccccc1
REMARK SMILES IDX 4 1 2 2 1 3 3 4 5 6 6 7 7 8 11 9 8 10 10 11 9 12
REMARK H PARENT 3 5
REMARK Flexibility Score: inf
ROOT
ATOM      1  C   UNL     1       8.285   0.221  -2.242  1.00  0.00     0.127 C 
ENDROOT
BRANCH   1   2
ATOM      2  C   UNL     1       9.387   0.357  -1.253  1.00  0.00     0.303 C 
ATOM      3  O   UNL     1       9.496  -0.357  -0.224  1.00  0.00    -0.252 OA
BRANCH   2   4
ATOM      4  O   UNL     1      10.361   1.321  -1.462  1.00  0.00    -0.481 OA
ATOM      5  H   UNL     1      10.160   2.250  -1.086  1.00  0.00     0.296 HD
ENDBRANCH   2   4
ENDBRANCH   1   2
BRANCH   1   6
ATOM      6  C   UNL     1       7.127  -0.489  -1.606  1.00  0.00     0.047 C 
BRANCH   6   7
ATOM      7  C   UNL     1       6.345   0.333  -0.686  1.00  0.00    -0.047 A 
ATOM      8  C   UNL     1       5.791   1.543  -1.026  1.00  0.00     0.004 A 
ATOM      9  C   UNL     1       6.144  -0.115   0.596  1.00  0.00     0.004 A 
ATOM     10  C   UNL     1       5.058   2.305  -0.147  1.00  0.00     0.000 A 
ATOM     11  C   UNL     1       5.416   0.622   1.501  1.00  0.00     0.000 A 
ATOM     12  C   UNL     1       4.860   1.848   1.138  1.00  0.00     0.000 A 
ENDBRANCH   6   7
ENDBRANCH   1   6
TORSDOF 4
ENDMDL
