@<TRIPOS>MOLECULE
/home/cewinharhar/GITHUB/reincatalyze/data/processed/docking_pred/2023-Apr-25-2140_maxeplen10_maxtrainstep200_exh16_gamma099_lrac3e-4_lrcr1e-3/074f71e156faecc69724e62cc987f5104d3c940c_ligand_2.pdbqt
 12 12 0 0 0
SMALL
GASTEIGER

@<TRIPOS>ATOM
      1  C          8.4500   -0.5390   -2.2750 C.3     1  UNL1        0.1270
      2  C          8.5260   -1.8640   -2.9430 C.2     1  UNL1        0.3030
      3  O          9.5960   -2.5020   -3.1170 O.2     1  UNL1       -0.2520
      4  O          7.3580   -2.4480   -3.4100 O.3     1  UNL1       -0.4810
      5  H          7.3220   -3.4690   -3.3730 H       1  UNL1        0.2960
      6  C          7.0160   -0.1060   -2.1860 C.3     1  UNL1        0.0470
      7  C          6.5050    0.0150   -0.8230 C.2     1  UNL1       -0.0470
      8  C          6.6100   -0.9750    0.1230 C.2     1  UNL1        0.0040
      9  C          5.8790    1.1790   -0.4510 C.2     1  UNL1        0.0040
     10  C          6.1230   -0.8450    1.4020 C.2     1  UNL1        0.0000
     11  C          5.3790    1.3430    0.8200 C.2     1  UNL1        0.0000
     12  C          5.4960    0.3270    1.7670 C.2     1  UNL1        0.0000
@<TRIPOS>BOND
     1     4     5    1
     2     4     2    1
     3     3     2    2
     4     2     1    1
     5     1     6    1
     6     6     7    1
     7     7     9    2
     8     7     8    1
     9     9    11    1
    10     8    10    2
    11    11    12    2
    12    10    12    1
