@<TRIPOS>MOLECULE
/home/cewinharhar/GITHUB/reincatalyze/data/processed/docking_pred/2023-Apr-25-2140_maxeplen10_maxtrainstep200_exh16_gamma099_lrac3e-4_lrcr1e-3/074f71e156faecc69724e62cc987f5104d3c940c_ligand_2.pdbqt
 12 12 0 0 0
SMALL
GASTEIGER

@<TRIPOS>ATOM
      1  C          4.9940    1.8220    0.7060 C.3     1  UNL1        0.1270
      2  C          4.4980    1.1060    1.9100 C.2     1  UNL1        0.3030
      3  O          5.1290    0.1850    2.4880 O.2     1  UNL1       -0.2520
      4  O          3.2690    1.4630    2.4430 O.3     1  UNL1       -0.4810
      5  H          2.8500    2.3180    2.0720 H       1  UNL1        0.2960
      6  C          6.4930    1.8710    0.7360 C.3     1  UNL1        0.0470
      7  C          7.1440    1.1120   -0.3300 C.2     1  UNL1       -0.0470
      8  C          8.4770    1.2170   -0.6390 C.2     1  UNL1        0.0040
      9  C          6.3910    0.2380   -1.0740 C.2     1  UNL1        0.0040
     10  C          9.0730    0.4950   -1.6460 C.2     1  UNL1        0.0000
     11  C          6.9540   -0.5000   -2.0900 C.2     1  UNL1        0.0000
     12  C          8.3110   -0.3800   -2.3890 C.2     1  UNL1        0.0000
@<TRIPOS>BOND
     1    12    11    2
     2    12    10    1
     3    11     9    1
     4    10     8    2
     5     9     7    2
     6     8     7    1
     7     7     6    1
     8     1     6    1
     9     1     2    1
    10     2     4    1
    11     2     3    2
    12     5     4    1
