@<TRIPOS>MOLECULE
/home/cewinharhar/GITHUB/reincatalyze/data/processed/docking_pred/2023-Apr-25-2140_maxeplen10_maxtrainstep200_exh16_gamma099_lrac3e-4_lrcr1e-3/074f71e156faecc69724e62cc987f5104d3c940c_ligand_2.pdbqt
 12 12 0 0 0
SMALL
GASTEIGER

@<TRIPOS>ATOM
      1  C          5.5130    2.8650   -0.0460 C.3     1  UNL1        0.1270
      2  C          6.2700    3.8590    0.7580 C.2     1  UNL1        0.3030
      3  O          6.9740    4.7740    0.2590 O.2     1  UNL1       -0.2520
      4  O          6.2090    3.7900    2.1420 O.3     1  UNL1       -0.4810
      5  H          5.5190    4.3970    2.5910 H       1  UNL1        0.2960
      6  C          4.9540    1.8100    0.8630 C.3     1  UNL1        0.0470
      7  C          5.7320    0.5740    0.9040 C.2     1  UNL1       -0.0470
      8  C          6.4190    0.0670   -0.1720 C.2     1  UNL1        0.0040
      9  C          5.7900   -0.1340    2.0790 C.2     1  UNL1        0.0040
     10  C          7.1470   -1.0970   -0.1150 C.2     1  UNL1        0.0000
     11  C          6.5080   -1.3040    2.1710 C.2     1  UNL1        0.0000
     12  C          7.2000   -1.8020    1.0680 C.2     1  UNL1        0.0000
@<TRIPOS>BOND
     1     8    10    1
     2     8     7    2
     3    10    12    2
     4     1     2    1
     5     1     6    1
     6     3     2    2
     7     2     4    1
     8     6     7    1
     9     7     9    1
    10    12    11    1
    11     9    11    2
    12     4     5    1
