@<TRIPOS>MOLECULE
/home/cewinharhar/GITHUB/reincatalyze/data/processed/docking_pred/2023-Apr-25-2140_maxeplen10_maxtrainstep200_exh16_gamma099_lrac3e-4_lrcr1e-3/074f71e156faecc69724e62cc987f5104d3c940c_ligand_2.pdbqt
 12 12 0 0 0
SMALL
GASTEIGER

@<TRIPOS>ATOM
      1  C          8.4390   -0.5730   -2.2180 C.3     1  UNL1        0.1270
      2  C          8.5180   -1.8810   -2.9190 C.2     1  UNL1        0.3030
      3  O          9.5890   -2.5130   -3.1070 O.2     1  UNL1       -0.2520
      4  O          7.3510   -2.4550   -3.4020 O.3     1  UNL1       -0.4810
      5  H          6.5780   -2.5260   -2.7370 H       1  UNL1        0.2960
      6  C          7.0120   -0.1100   -2.1840 C.3     1  UNL1        0.0470
      7  C          6.4710    0.0820   -0.8400 C.2     1  UNL1       -0.0470
      8  C          5.8300    1.2250   -0.4300 C.2     1  UNL1        0.0040
      9  C          6.6050   -0.9300    0.0780 C.2     1  UNL1        0.0040
     10  C          5.3280    1.3890    0.8380 C.2     1  UNL1        0.0000
     11  C          6.1140   -0.8000    1.3570 C.2     1  UNL1        0.0000
     12  C          5.4660    0.3680    1.7540 C.2     1  UNL1        0.0000
@<TRIPOS>BOND
     1     4     2    1
     2     4     5    1
     3     3     2    2
     4     2     1    1
     5     1     6    1
     6     6     7    1
     7     7     8    2
     8     7     9    1
     9     8    10    1
    10     9    11    2
    11    10    12    2
    12    11    12    1
