@<TRIPOS>MOLECULE
/home/cewinharhar/GITHUB/reincatalyze/data/processed/docking_pred/2023-Apr-25-2140_maxeplen10_maxtrainstep200_exh16_gamma099_lrac3e-4_lrcr1e-3/074f71e156faecc69724e62cc987f5104d3c940c_ligand_2.pdbqt
 12 12 0 0 0
SMALL
GASTEIGER

@<TRIPOS>ATOM
      1  C          8.2850    0.2210   -2.2420 C.3     1  UNL1        0.1270
      2  C          9.3870    0.3570   -1.2530 C.2     1  UNL1        0.3030
      3  O          9.4960   -0.3570   -0.2240 O.2     1  UNL1       -0.2520
      4  O         10.3610    1.3210   -1.4620 O.3     1  UNL1       -0.4810
      5  H         10.1600    2.2500   -1.0860 H       1  UNL1        0.2960
      6  C          7.1270   -0.4890   -1.6060 C.3     1  UNL1        0.0470
      7  C          6.3450    0.3330   -0.6860 C.2     1  UNL1       -0.0470
      8  C          5.7910    1.5430   -1.0260 C.2     1  UNL1        0.0040
      9  C          6.1440   -0.1150    0.5960 C.2     1  UNL1        0.0040
     10  C          5.0580    2.3050   -0.1470 C.2     1  UNL1        0.0000
     11  C          5.4160    0.6220    1.5010 C.2     1  UNL1        0.0000
     12  C          4.8600    1.8480    1.1380 C.2     1  UNL1        0.0000
@<TRIPOS>BOND
     1     1     6    1
     2     1     2    1
     3     6     7    1
     4     4     2    1
     5     4     5    1
     6     2     3    2
     7     8     7    2
     8     8    10    1
     9     7     9    1
    10    10    12    2
    11     9    11    2
    12    12    11    1
