@<TRIPOS>MOLECULE
/home/cewinharhar/GITHUB/reincatalyze/data/processed/docking_pred/2023-Apr-25-2140_maxeplen10_maxtrainstep200_exh16_gamma099_lrac3e-4_lrcr1e-3/08a74a7e320cd1ecb560e86b752820c061dfae11_ligand_2.pdbqt
 12 12 0 0 0
SMALL
GASTEIGER

@<TRIPOS>ATOM
      1  C          8.4460   -0.5600   -2.2300 C.3     1  UNL1        0.1270
      2  C          8.5080   -1.8760   -2.9170 C.2     1  UNL1        0.3030
      3  O          9.5690   -2.5280   -3.0900 O.2     1  UNL1       -0.2520
      4  O          7.3350   -2.4340   -3.4030 O.3     1  UNL1       -0.4810
      5  H          7.4210   -2.9800   -4.2630 H       1  UNL1        0.2960
      6  C          7.0180   -0.1070   -2.1440 C.3     1  UNL1        0.0470
      7  C          6.5000    0.0020   -0.7820 C.2     1  UNL1       -0.0470
      8  C          6.5890   -1.0000    0.1520 C.2     1  UNL1        0.0040
      9  C          5.8860    1.1680   -0.3990 C.2     1  UNL1        0.0040
     10  C          6.0960   -0.8810    1.4300 C.2     1  UNL1        0.0000
     11  C          5.3810    1.3220    0.8710 C.2     1  UNL1        0.0000
     12  C          5.4800    0.2930    1.8070 C.2     1  UNL1        0.0000
@<TRIPOS>BOND
     1     5     4    1
     2     4     2    1
     3     3     2    2
     4     2     1    1
     5     1     6    1
     6     6     7    1
     7     7     9    2
     8     7     8    1
     9     9    11    1
    10     8    10    2
    11    11    12    2
    12    10    12    1
