@<TRIPOS>MOLECULE
/home/cewinharhar/GITHUB/reincatalyze/data/processed/docking_pred/2023-Apr-25-2140_maxeplen10_maxtrainstep200_exh16_gamma099_lrac3e-4_lrcr1e-3/08a74a7e320cd1ecb560e86b752820c061dfae11_ligand_2.pdbqt
 12 12 0 0 0
SMALL
GASTEIGER

@<TRIPOS>ATOM
      1  C          8.4170   -0.6450   -2.0750 C.3     1  UNL1        0.1270
      2  C          8.3670   -1.8890   -2.8860 C.2     1  UNL1        0.3030
      3  O          7.3000   -2.4370   -3.2630 O.2     1  UNL1       -0.2520
      4  O          9.5570   -2.4940   -3.2610 O.3     1  UNL1       -0.4810
      5  H         10.2440   -1.8890   -3.7150 H       1  UNL1        0.2960
      6  C          7.0710    0.0170   -2.0910 C.3     1  UNL1        0.0470
      7  C          6.4700    0.1960   -0.7710 C.2     1  UNL1       -0.0470
      8  C          5.7740    1.3180   -0.3940 C.2     1  UNL1        0.0040
      9  C          6.6010   -0.8060    0.1580 C.2     1  UNL1        0.0040
     10  C          5.2150    1.4700    0.8520 C.2     1  UNL1        0.0000
     11  C          6.0550   -0.6880    1.4150 C.2     1  UNL1        0.0000
     12  C          5.3500    0.4590    1.7790 C.2     1  UNL1        0.0000
@<TRIPOS>BOND
     1     5     4    1
     2     3     2    2
     3     4     2    1
     4     2     1    1
     5     6     1    1
     6     6     7    1
     7     7     8    2
     8     7     9    1
     9     8    10    1
    10     9    11    2
    11    10    12    2
    12    11    12    1
