@<TRIPOS>MOLECULE
/home/cewinharhar/GITHUB/reincatalyze/data/processed/docking_pred/2023-Apr-25-2140_maxeplen10_maxtrainstep200_exh16_gamma099_lrac3e-4_lrcr1e-3/08a74a7e320cd1ecb560e86b752820c061dfae11_ligand_2.pdbqt
 12 12 0 0 0
SMALL
GASTEIGER

@<TRIPOS>ATOM
      1  C          5.3130    2.9330    0.0570 C.3     1  UNL1        0.1270
      2  C          6.2100    3.8480    0.8090 C.2     1  UNL1        0.3030
      3  O          6.8890    4.7620    0.2740 O.2     1  UNL1       -0.2520
      4  O          6.3180    3.7010    2.1840 O.3     1  UNL1       -0.4810
      5  H          6.6630    2.7960    2.5120 H       1  UNL1        0.2960
      6  C          5.2560    1.6050    0.7530 C.3     1  UNL1        0.0470
      7  C          6.0440    0.5540    0.1140 C.2     1  UNL1       -0.0470
      8  C          6.3760    0.5510   -1.2190 C.2     1  UNL1        0.0040
      9  C          6.4850   -0.4990    0.8750 C.2     1  UNL1        0.0040
     10  C          7.1180   -0.4470   -1.8050 C.2     1  UNL1        0.0000
     11  C          7.2300   -1.5150    0.3220 C.2     1  UNL1        0.0000
     12  C          7.5570   -1.5010   -1.0330 C.2     1  UNL1        0.0000
@<TRIPOS>BOND
     1    10     8    1
     2    10    12    2
     3     8     7    2
     4    12    11    1
     5     1     6    1
     6     1     2    1
     7     7     6    1
     8     7     9    1
     9     3     2    2
    10    11     9    2
    11     2     4    1
    12     4     5    1
