@<TRIPOS>MOLECULE
/home/cewinharhar/GITHUB/reincatalyze/data/processed/docking_pred/2023-Apr-25-2140_maxeplen10_maxtrainstep200_exh16_gamma099_lrac3e-4_lrcr1e-3/08a74a7e320cd1ecb560e86b752820c061dfae11_ligand_2.pdbqt
 12 12 0 0 0
SMALL
GASTEIGER

@<TRIPOS>ATOM
      1  C          8.3570    0.4060   -2.1010 C.3     1  UNL1        0.1270
      2  C          9.4730    0.4130   -1.1200 C.2     1  UNL1        0.3030
      3  O          9.5410   -0.3560   -0.1290 O.2     1  UNL1       -0.2520
      4  O         10.5120    1.3150   -1.2940 O.3     1  UNL1       -0.4810
      5  H         11.1160    1.4650   -0.4830 H       1  UNL1        0.2960
      6  C          7.2160   -0.4000   -1.5530 C.3     1  UNL1        0.0470
      7  C          6.3980    0.3030   -0.5680 C.2     1  UNL1       -0.0470
      8  C          5.8030    1.5200   -0.7970 C.2     1  UNL1        0.0040
      9  C          6.2030   -0.2720    0.6630 C.2     1  UNL1        0.0040
     10  C          5.0360    2.1680    0.1420 C.2     1  UNL1        0.0000
     11  C          5.4420    0.3490    1.6270 C.2     1  UNL1        0.0000
     12  C          4.8450    1.5840    1.3750 C.2     1  UNL1        0.0000
@<TRIPOS>BOND
     1     1     6    1
     2     1     2    1
     3     6     7    1
     4     4     2    1
     5     4     5    1
     6     2     3    2
     7     8     7    2
     8     8    10    1
     9     7     9    1
    10    10    12    2
    11     9    11    2
    12    12    11    1
