MODEL 1
REMARK VINA RESULT:      -7.4      0.000      0.000
REMARK SMILES O=C(O)CCc1ccccc1
REMARK SMILES IDX 4 1 2 2 1 3 3 4 5 6 6 7 7 8 11 9 8 10 10 11 9 12
REMARK H PARENT 3 5
REMARK Flexibility Score: inf
ROOT
ATOM      1  C   UNL     1       8.446  -0.560  -2.230  1.00  0.00     0.127 C 
ENDROOT
BRANCH   1   2
ATOM      2  C   UNL     1       8.508  -1.876  -2.917  1.00  0.00     0.303 C 
ATOM      3  O   UNL     1       9.569  -2.528  -3.090  1.00  0.00    -0.252 OA
BRANCH   2   4
ATOM      4  O   UNL     1       7.335  -2.434  -3.403  1.00  0.00    -0.481 OA
ATOM      5  H   UNL     1       7.421  -2.980  -4.263  1.00  0.00     0.296 HD
ENDBRANCH   2   4
ENDBRANCH   1   2
BRANCH   1   6
ATOM      6  C   UNL     1       7.018  -0.107  -2.144  1.00  0.00     0.047 C 
BRANCH   6   7
ATOM      7  C   UNL     1       6.500   0.002  -0.782  1.00  0.00    -0.047 A 
ATOM      8  C   UNL     1       6.589  -1.000   0.152  1.00  0.00     0.004 A 
ATOM      9  C   UNL     1       5.886   1.168  -0.399  1.00  0.00     0.004 A 
ATOM     10  C   UNL     1       6.096  -0.881   1.430  1.00  0.00     0.000 A 
ATOM     11  C   UNL     1       5.381   1.322   0.871  1.00  0.00     0.000 A 
ATOM     12  C   UNL     1       5.480   0.293   1.807  1.00  0.00     0.000 A 
ENDBRANCH   6   7
ENDBRANCH   1   6
TORSDOF 4
ENDMDL
MODEL 2
REMARK VINA RESULT:      -7.3      0.184      1.726
REMARK SMILES O=C(O)CCc1ccccc1
REMARK SMILES IDX 4 1 2 2 1 3 3 4 5 6 6 7 7 8 11 9 8 10 10 11 9 12
REMARK H PARENT 3 5
REMARK Flexibility Score: inf
ROOT
ATOM      1  C   UNL     1       8.417  -0.645  -2.075  1.00  0.00     0.127 C 
ENDROOT
BRANCH   1   2
ATOM      2  C   UNL     1       8.367  -1.889  -2.886  1.00  0.00     0.303 C 
ATOM      3  O   UNL     1       7.300  -2.437  -3.263  1.00  0.00    -0.252 OA
BRANCH   2   4
ATOM      4  O   UNL     1       9.557  -2.494  -3.261  1.00  0.00    -0.481 OA
ATOM      5  H   UNL     1      10.244  -1.889  -3.715  1.00  0.00     0.296 HD
ENDBRANCH   2   4
ENDBRANCH   1   2
BRANCH   1   6
ATOM      6  C   UNL     1       7.071   0.017  -2.091  1.00  0.00     0.047 C 
BRANCH   6   7
ATOM      7  C   UNL     1       6.470   0.196  -0.771  1.00  0.00    -0.047 A 
ATOM      8  C   UNL     1       5.774   1.318  -0.394  1.00  0.00     0.004 A 
ATOM      9  C   UNL     1       6.601  -0.806   0.158  1.00  0.00     0.004 A 
ATOM     10  C   UNL     1       5.215   1.470   0.852  1.00  0.00     0.000 A 
ATOM     11  C   UNL     1       6.055  -0.688   1.415  1.00  0.00     0.000 A 
ATOM     12  C   UNL     1       5.350   0.459   1.779  1.00  0.00     0.000 A 
ENDBRANCH   6   7
ENDBRANCH   1   6
TORSDOF 4
ENDMDL
MODEL 3
REMARK VINA RESULT:      -6.7      3.336      5.053
REMARK SMILES O=C(O)CCc1ccccc1
REMARK SMILES IDX 4 1 2 2 1 3 3 4 5 6 6 7 7 8 11 9 8 10 10 11 9 12
REMARK H PARENT 3 5
REMARK Flexibility Score: inf
ROOT
ATOM      1  C   UNL     1       5.070   1.750   0.774  1.00  0.00     0.127 C 
ENDROOT
BRANCH   1   2
ATOM      2  C   UNL     1       4.597   0.980   1.953  1.00  0.00     0.303 C 
ATOM      3  O   UNL     1       5.250   0.051   2.492  1.00  0.00    -0.252 OA
BRANCH   2   4
ATOM      4  O   UNL     1       3.363   1.290   2.506  1.00  0.00    -0.481 OA
ATOM      5  H   UNL     1       2.992   2.216   2.282  1.00  0.00     0.296 HD
ENDBRANCH   2   4
ENDBRANCH   1   2
BRANCH   1   6
ATOM      6  C   UNL     1       6.569   1.792   0.773  1.00  0.00     0.047 C 
BRANCH   6   7
ATOM      7  C   UNL     1       7.194   1.041  -0.313  1.00  0.00    -0.047 A 
ATOM      8  C   UNL     1       8.499   1.211  -0.708  1.00  0.00     0.004 A 
ATOM      9  C   UNL     1       6.447   0.110  -0.990  1.00  0.00     0.004 A 
ATOM     10  C   UNL     1       9.071   0.496  -1.733  1.00  0.00     0.000 A 
ATOM     11  C   UNL     1       6.987  -0.623  -2.021  1.00  0.00     0.000 A 
ATOM     12  C   UNL     1       8.314  -0.438  -2.407  1.00  0.00     0.000 A 
ENDBRANCH   6   7
ENDBRANCH   1   6
TORSDOF 4
ENDMDL
MODEL 4
REMARK VINA RESULT:      -6.6      1.989      2.698
REMARK SMILES O=C(O)CCc1ccccc1
REMARK SMILES IDX 4 1 2 2 1 3 3 4 5 6 6 7 7 8 11 9 8 10 10 11 9 12
REMARK H PARENT 3 5
REMARK Flexibility Score: inf
ROOT
ATOM      1  C   UNL     1       8.357   0.406  -2.101  1.00  0.00     0.127 C 
ENDROOT
BRANCH   1   2
ATOM      2  C   UNL     1       9.473   0.413  -1.120  1.00  0.00     0.303 C 
ATOM      3  O   UNL     1       9.541  -0.356  -0.129  1.00  0.00    -0.252 OA
BRANCH   2   4
ATOM      4  O   UNL     1      10.512   1.315  -1.294  1.00  0.00    -0.481 OA
ATOM      5  H   UNL     1      11.116   1.465  -0.483  1.00  0.00     0.296 HD
ENDBRANCH   2   4
ENDBRANCH   1   2
BRANCH   1   6
ATOM      6  C   UNL     1       7.216  -0.400  -1.553  1.00  0.00     0.047 C 
BRANCH   6   7
ATOM      7  C   UNL     1       6.398   0.303  -0.568  1.00  0.00    -0.047 A 
ATOM      8  C   UNL     1       5.803   1.520  -0.797  1.00  0.00     0.004 A 
ATOM      9  C   UNL     1       6.203  -0.272   0.663  1.00  0.00     0.004 A 
ATOM     10  C   UNL     1       5.036   2.168   0.142  1.00  0.00     0.000 A 
ATOM     11  C   UNL     1       5.442   0.349   1.627  1.00  0.00     0.000 A 
ATOM     12  C   UNL     1       4.845   1.584   1.375  1.00  0.00     0.000 A 
ENDBRANCH   6   7
ENDBRANCH   1   6
TORSDOF 4
ENDMDL
MODEL 5
REMARK VINA RESULT:      -6.6      3.707      5.086
REMARK SMILES O=C(O)CCc1ccccc1
REMARK SMILES IDX 4 1 2 2 1 3 3 4 5 6 6 7 7 8 11 9 8 10 10 11 9 12
REMARK H PARENT 3 5
REMARK Flexibility Score: inf
ROOT
ATOM      1  C   UNL     1       5.313   2.933   0.057  1.00  0.00     0.127 C 
ENDROOT
BRANCH   1   2
ATOM      2  C   UNL     1       6.210   3.848   0.809  1.00  0.00     0.303 C 
ATOM      3  O   UNL     1       6.889   4.762   0.274  1.00  0.00    -0.252 OA
BRANCH   2   4
ATOM      4  O   UNL     1       6.318   3.701   2.184  1.00  0.00    -0.481 OA
ATOM      5  H   UNL     1       6.663   2.796   2.512  1.00  0.00     0.296 HD
ENDBRANCH   2   4
ENDBRANCH   1   2
BRANCH   1   6
ATOM      6  C   UNL     1       5.256   1.605   0.753  1.00  0.00     0.047 C 
BRANCH   6   7
ATOM      7  C   UNL     1       6.044   0.554   0.114  1.00  0.00    -0.047 A 
ATOM      8  C   UNL     1       6.376   0.551  -1.219  1.00  0.00     0.004 A 
ATOM      9  C   UNL     1       6.485  -0.499   0.875  1.00  0.00     0.004 A 
ATOM     10  C   UNL     1       7.118  -0.447  -1.805  1.00  0.00     0.000 A 
ATOM     11  C   UNL     1       7.230  -1.515   0.322  1.00  0.00     0.000 A 
ATOM     12  C   UNL     1       7.557  -1.501  -1.033  1.00  0.00     0.000 A 
ENDBRANCH   6   7
ENDBRANCH   1   6
TORSDOF 4
ENDMDL
