@<TRIPOS>MOLECULE
/home/cewinharhar/GITHUB/reincatalyze/data/processed/docking_pred/2023-Apr-25-2140_maxeplen10_maxtrainstep200_exh16_gamma099_lrac3e-4_lrcr1e-3/08a74a7e320cd1ecb560e86b752820c061dfae11_ligand_2.pdbqt
 12 12 0 0 0
SMALL
GASTEIGER

@<TRIPOS>ATOM
      1  C          5.0700    1.7500    0.7740 C.3     1  UNL1        0.1270
      2  C          4.5970    0.9800    1.9530 C.2     1  UNL1        0.3030
      3  O          5.2500    0.0510    2.4920 O.2     1  UNL1       -0.2520
      4  O          3.3630    1.2900    2.5060 O.3     1  UNL1       -0.4810
      5  H          2.9920    2.2160    2.2820 H       1  UNL1        0.2960
      6  C          6.5690    1.7920    0.7730 C.3     1  UNL1        0.0470
      7  C          7.1940    1.0410   -0.3130 C.2     1  UNL1       -0.0470
      8  C          8.4990    1.2110   -0.7080 C.2     1  UNL1        0.0040
      9  C          6.4470    0.1100   -0.9900 C.2     1  UNL1        0.0040
     10  C          9.0710    0.4960   -1.7330 C.2     1  UNL1        0.0000
     11  C          6.9870   -0.6230   -2.0210 C.2     1  UNL1        0.0000
     12  C          8.3140   -0.4380   -2.4070 C.2     1  UNL1        0.0000
@<TRIPOS>BOND
     1    12    11    2
     2    12    10    1
     3    11     9    1
     4    10     8    2
     5     9     7    2
     6     8     7    1
     7     7     6    1
     8     6     1    1
     9     1     2    1
    10     2     3    2
    11     2     4    1
    12     5     4    1
