@<TRIPOS>MOLECULE
/home/cewinharhar/GITHUB/reincatalyze/data/processed/docking_pred/2023-Apr-25-2140_maxeplen10_maxtrainstep200_exh16_gamma099_lrac3e-4_lrcr1e-3/09c0e00cbaa22f287e1ef7d21129eabb08ea3244_ligand_2.pdbqt
 12 12 0 0 0
SMALL
GASTEIGER

@<TRIPOS>ATOM
      1  C          8.7530   -0.7470   -1.9050 C.3     1  UNL1        0.1270
      2  C          8.7570   -1.9400   -2.7910 C.2     1  UNL1        0.3030
      3  O          9.8000   -2.5500   -3.1420 O.2     1  UNL1       -0.2520
      4  O          7.5490   -2.4250   -3.2680 O.3     1  UNL1       -0.4810
      5  H          7.2550   -3.3340   -2.9030 H       1  UNL1        0.2960
      6  C          7.4490   -0.0210   -2.0510 C.3     1  UNL1        0.0470
      7  C          6.7260    0.1810   -0.7980 C.2     1  UNL1       -0.0470
      8  C          5.9660    1.2920   -0.5240 C.2     1  UNL1        0.0040
      9  C          6.8010   -0.7860    0.1730 C.2     1  UNL1        0.0040
     10  C          5.2920    1.4660    0.6610 C.2     1  UNL1        0.0000
     11  C          6.1400   -0.6450    1.3720 C.2     1  UNL1        0.0000
     12  C          5.3730    0.4900    1.6310 C.2     1  UNL1        0.0000
@<TRIPOS>BOND
     1     4     5    1
     2     4     2    1
     3     3     2    2
     4     2     1    1
     5     6     1    1
     6     6     7    1
     7     7     8    2
     8     7     9    1
     9     8    10    1
    10     9    11    2
    11    10    12    2
    12    11    12    1
