@<TRIPOS>MOLECULE
/home/cewinharhar/GITHUB/reincatalyze/data/processed/docking_pred/2023-Apr-25-2140_maxeplen10_maxtrainstep200_exh16_gamma099_lrac3e-4_lrcr1e-3/09c0e00cbaa22f287e1ef7d21129eabb08ea3244_ligand_2.pdbqt
 12 12 0 0 0
SMALL
GASTEIGER

@<TRIPOS>ATOM
      1  C          8.4150    0.2990   -2.1110 C.3     1  UNL1        0.1270
      2  C          9.6460   -0.1070   -1.3840 C.2     1  UNL1        0.3030
      3  O          9.9230   -1.2960   -1.0840 O.2     1  UNL1       -0.2520
      4  O         10.5550    0.8700   -1.0070 O.3     1  UNL1       -0.4810
      5  H         11.5230    0.7180   -1.2990 H       1  UNL1        0.2960
      6  C          7.2810   -0.6010   -1.7160 C.3     1  UNL1        0.0470
      7  C          6.5710   -0.1850   -0.5090 C.2     1  UNL1       -0.0470
      8  C          6.4690   -0.9560    0.6220 C.2     1  UNL1        0.0040
      9  C          5.9640    1.0460   -0.4900 C.2     1  UNL1        0.0040
     10  C          5.7970   -0.5490    1.7490 C.2     1  UNL1        0.0000
     11  C          5.2820    1.4860    0.6210 C.2     1  UNL1        0.0000
     12  C          5.1900    0.6890    1.7610 C.2     1  UNL1        0.0000
@<TRIPOS>BOND
     1     1     6    1
     2     1     2    1
     3     6     7    1
     4     2     3    2
     5     2     4    1
     6     5     4    1
     7     7     9    2
     8     7     8    1
     9     9    11    1
    10    11    12    2
    11     8    10    2
    12    10    12    1
