@<TRIPOS>MOLECULE
/home/cewinharhar/GITHUB/reincatalyze/data/processed/docking_pred/2023-Apr-25-2140_maxeplen10_maxtrainstep200_exh16_gamma099_lrac3e-4_lrcr1e-3/09c0e00cbaa22f287e1ef7d21129eabb08ea3244_ligand_2.pdbqt
 12 12 0 0 0
SMALL
GASTEIGER

@<TRIPOS>ATOM
      1  C          4.9910    1.8380    0.7230 C.3     1  UNL1        0.1270
      2  C          4.4880    1.1110    1.9170 C.2     1  UNL1        0.3030
      3  O          5.1130    0.1790    2.4850 O.2     1  UNL1       -0.2520
      4  O          3.2590    1.4670    2.4510 O.3     1  UNL1       -0.4810
      5  H          2.8020    0.7630    3.0340 H       1  UNL1        0.2960
      6  C          6.4920    1.8350    0.7320 C.3     1  UNL1        0.0470
      7  C          7.1000    1.0570   -0.3450 C.2     1  UNL1       -0.0470
      8  C          6.4200    0.1340   -1.1000 C.2     1  UNL1        0.0040
      9  C          8.4300    1.2480   -0.6300 C.2     1  UNL1        0.0040
     10  C          7.0080   -0.5900   -2.1090 C.2     1  UNL1        0.0000
     11  C          9.0510    0.5400   -1.6330 C.2     1  UNL1        0.0000
     12  C          8.3430   -0.3930   -2.3900 C.2     1  UNL1        0.0000
@<TRIPOS>BOND
     1    12    10    2
     2    12    11    1
     3    10     8    1
     4    11     9    2
     5     8     7    2
     6     9     7    1
     7     7     6    1
     8     1     6    1
     9     1     2    1
    10     2     4    1
    11     2     3    2
    12     4     5    1
