@<TRIPOS>MOLECULE
/home/cewinharhar/GITHUB/reincatalyze/data/processed/docking_pred/2023-Apr-25-2140_maxeplen10_maxtrainstep200_exh16_gamma099_lrac3e-4_lrcr1e-3/09c0e00cbaa22f287e1ef7d21129eabb08ea3244_ligand_2.pdbqt
 12 12 0 0 0
SMALL
GASTEIGER

@<TRIPOS>ATOM
      1  C          5.6780    1.3540   -0.4230 C.3     1  UNL1        0.1270
      2  C          5.1710    2.2060    0.6830 C.2     1  UNL1        0.3030
      3  O          4.4050    1.7950    1.5910 O.2     1  UNL1       -0.2520
      4  O          5.5550    3.5380    0.7340 O.3     1  UNL1       -0.4810
      5  H          5.1710    4.0870    1.5060 H       1  UNL1        0.2960
      6  C          6.2840    0.1050    0.1470 C.3     1  UNL1        0.0470
      7  C          7.7290   -0.0030   -0.0370 C.2     1  UNL1       -0.0470
      8  C          8.5120   -0.9380    0.5950 C.2     1  UNL1        0.0040
      9  C          8.3570    0.8750   -0.8860 C.2     1  UNL1        0.0040
     10  C          9.8720   -1.0250    0.4110 C.2     1  UNL1        0.0000
     11  C          9.7160    0.8160   -1.0930 C.2     1  UNL1        0.0000
     12  C         10.4940   -0.1400   -0.4430 C.2     1  UNL1        0.0000
@<TRIPOS>BOND
     1    11     9    1
     2    11    12    2
     3     9     7    2
     4    12    10    1
     5     1     6    1
     6     1     2    1
     7     7     6    1
     8     7     8    1
     9    10     8    2
    10     2     4    1
    11     2     3    2
    12     4     5    1
