MODEL 1
REMARK VINA RESULT:      -7.0      0.000      0.000
REMARK SMILES O=C(O)CCc1ccccc1
REMARK SMILES IDX 4 1 2 2 1 3 3 4 5 6 6 7 7 8 11 9 8 10 10 11 9 12
REMARK H PARENT 3 5
REMARK Flexibility Score: inf
ROOT
ATOM      1  C   UNL     1       8.621  -0.752  -2.015  1.00  0.00     0.127 C 
ENDROOT
BRANCH   1   2
ATOM      2  C   UNL     1       8.706  -1.976  -2.854  1.00  0.00     0.303 C 
ATOM      3  O   UNL     1       9.786  -2.531  -3.178  1.00  0.00    -0.252 OA
BRANCH   2   4
ATOM      4  O   UNL     1       7.533  -2.554  -3.316  1.00  0.00    -0.481 OA
ATOM      5  H   UNL     1       7.282  -3.454  -2.900  1.00  0.00     0.296 HD
ENDBRANCH   2   4
ENDBRANCH   1   2
BRANCH   1   6
ATOM      6  C   UNL     1       7.222  -0.213  -2.057  1.00  0.00     0.047 C 
BRANCH   6   7
ATOM      7  C   UNL     1       6.604  -0.033  -0.746  1.00  0.00    -0.047 A 
ATOM      8  C   UNL     1       6.624  -0.983   0.245  1.00  0.00     0.004 A 
ATOM      9  C   UNL     1       5.962   1.150  -0.473  1.00  0.00     0.004 A 
ATOM     10  C   UNL     1       6.037  -0.797   1.474  1.00  0.00     0.000 A 
ATOM     11  C   UNL     1       5.363   1.369   0.746  1.00  0.00     0.000 A 
ATOM     12  C   UNL     1       5.394   0.393   1.741  1.00  0.00     0.000 A 
ENDBRANCH   6   7
ENDBRANCH   1   6
TORSDOF 4
ENDMDL
MODEL 2
REMARK VINA RESULT:      -6.9      0.190      1.436
REMARK SMILES O=C(O)CCc1ccccc1
REMARK SMILES IDX 4 1 2 2 1 3 3 4 5 6 6 7 7 8 11 9 8 10 10 11 9 12
REMARK H PARENT 3 5
REMARK Flexibility Score: inf
ROOT
ATOM      1  C   UNL     1       8.753  -0.747  -1.905  1.00  0.00     0.127 C 
ENDROOT
BRANCH   1   2
ATOM      2  C   UNL     1       8.757  -1.940  -2.791  1.00  0.00     0.303 C 
ATOM      3  O   UNL     1       9.800  -2.550  -3.142  1.00  0.00    -0.252 OA
BRANCH   2   4
ATOM      4  O   UNL     1       7.549  -2.425  -3.268  1.00  0.00    -0.481 OA
ATOM      5  H   UNL     1       7.255  -3.334  -2.903  1.00  0.00     0.296 HD
ENDBRANCH   2   4
ENDBRANCH   1   2
BRANCH   1   6
ATOM      6  C   UNL     1       7.449  -0.021  -2.051  1.00  0.00     0.047 C 
BRANCH   6   7
ATOM      7  C   UNL     1       6.726   0.181  -0.798  1.00  0.00    -0.047 A 
ATOM      8  C   UNL     1       5.966   1.292  -0.524  1.00  0.00     0.004 A 
ATOM      9  C   UNL     1       6.801  -0.786   0.173  1.00  0.00     0.004 A 
ATOM     10  C   UNL     1       5.292   1.466   0.661  1.00  0.00     0.000 A 
ATOM     11  C   UNL     1       6.140  -0.645   1.372  1.00  0.00     0.000 A 
ATOM     12  C   UNL     1       5.373   0.490   1.631  1.00  0.00     0.000 A 
ENDBRANCH   6   7
ENDBRANCH   1   6
TORSDOF 4
ENDMDL
MODEL 3
REMARK VINA RESULT:      -6.6      3.397      5.134
REMARK SMILES O=C(O)CCc1ccccc1
REMARK SMILES IDX 4 1 2 2 1 3 3 4 5 6 6 7 7 8 11 9 8 10 10 11 9 12
REMARK H PARENT 3 5
REMARK Flexibility Score: inf
ROOT
ATOM      1  C   UNL     1       4.991   1.838   0.723  1.00  0.00     0.127 C 
ENDROOT
BRANCH   1   2
ATOM      2  C   UNL     1       4.488   1.111   1.917  1.00  0.00     0.303 C 
ATOM      3  O   UNL     1       5.113   0.179   2.485  1.00  0.00    -0.252 OA
BRANCH   2   4
ATOM      4  O   UNL     1       3.259   1.467   2.451  1.00  0.00    -0.481 OA
ATOM      5  H   UNL     1       2.802   0.763   3.034  1.00  0.00     0.296 HD
ENDBRANCH   2   4
ENDBRANCH   1   2
BRANCH   1   6
ATOM      6  C   UNL     1       6.492   1.835   0.732  1.00  0.00     0.047 C 
BRANCH   6   7
ATOM      7  C   UNL     1       7.100   1.057  -0.345  1.00  0.00    -0.047 A 
ATOM      8  C   UNL     1       6.420   0.134  -1.100  1.00  0.00     0.004 A 
ATOM      9  C   UNL     1       8.430   1.248  -0.630  1.00  0.00     0.004 A 
ATOM     10  C   UNL     1       7.008  -0.590  -2.109  1.00  0.00     0.000 A 
ATOM     11  C   UNL     1       9.051   0.540  -1.633  1.00  0.00     0.000 A 
ATOM     12  C   UNL     1       8.343  -0.393  -2.390  1.00  0.00     0.000 A 
ENDBRANCH   6   7
ENDBRANCH   1   6
TORSDOF 4
ENDMDL
MODEL 4
REMARK VINA RESULT:      -6.6      1.558      1.923
REMARK SMILES O=C(O)CCc1ccccc1
REMARK SMILES IDX 4 1 2 2 1 3 3 4 5 6 6 7 7 8 11 9 8 10 10 11 9 12
REMARK H PARENT 3 5
REMARK Flexibility Score: inf
ROOT
ATOM      1  C   UNL     1       8.415   0.299  -2.111  1.00  0.00     0.127 C 
ENDROOT
BRANCH   1   2
ATOM      2  C   UNL     1       9.646  -0.107  -1.384  1.00  0.00     0.303 C 
ATOM      3  O   UNL     1       9.923  -1.296  -1.084  1.00  0.00    -0.252 OA
BRANCH   2   4
ATOM      4  O   UNL     1      10.555   0.870  -1.007  1.00  0.00    -0.481 OA
ATOM      5  H   UNL     1      11.523   0.718  -1.299  1.00  0.00     0.296 HD
ENDBRANCH   2   4
ENDBRANCH   1   2
BRANCH   1   6
ATOM      6  C   UNL     1       7.281  -0.601  -1.716  1.00  0.00     0.047 C 
BRANCH   6   7
ATOM      7  C   UNL     1       6.571  -0.185  -0.509  1.00  0.00    -0.047 A 
ATOM      8  C   UNL     1       6.469  -0.956   0.622  1.00  0.00     0.004 A 
ATOM      9  C   UNL     1       5.964   1.046  -0.490  1.00  0.00     0.004 A 
ATOM     10  C   UNL     1       5.797  -0.549   1.749  1.00  0.00     0.000 A 
ATOM     11  C   UNL     1       5.282   1.486   0.621  1.00  0.00     0.000 A 
ATOM     12  C   UNL     1       5.190   0.689   1.761  1.00  0.00     0.000 A 
ENDBRANCH   6   7
ENDBRANCH   1   6
TORSDOF 4
ENDMDL
MODEL 5
REMARK VINA RESULT:      -6.5      3.714      4.980
REMARK SMILES O=C(O)CCc1ccccc1
REMARK SMILES IDX 4 1 2 2 1 3 3 4 5 6 6 7 7 8 11 9 8 10 10 11 9 12
REMARK H PARENT 3 5
REMARK Flexibility Score: inf
ROOT
ATOM      1  C   UNL     1       5.678   1.354  -0.423  1.00  0.00     0.127 C 
ENDROOT
BRANCH   1   2
ATOM      2  C   UNL     1       5.171   2.206   0.683  1.00  0.00     0.303 C 
ATOM      3  O   UNL     1       4.405   1.795   1.591  1.00  0.00    -0.252 OA
BRANCH   2   4
ATOM      4  O   UNL     1       5.555   3.538   0.734  1.00  0.00    -0.481 OA
ATOM      5  H   UNL     1       5.171   4.087   1.506  1.00  0.00     0.296 HD
ENDBRANCH   2   4
ENDBRANCH   1   2
BRANCH   1   6
ATOM      6  C   UNL     1       6.284   0.105   0.147  1.00  0.00     0.047 C 
BRANCH   6   7
ATOM      7  C   UNL     1       7.729  -0.003  -0.037  1.00  0.00    -0.047 A 
ATOM      8  C   UNL     1       8.512  -0.938   0.595  1.00  0.00     0.004 A 
ATOM      9  C   UNL     1       8.357   0.875  -0.886  1.00  0.00     0.004 A 
ATOM     10  C   UNL     1       9.872  -1.025   0.411  1.00  0.00     0.000 A 
ATOM     11  C   UNL     1       9.716   0.816  -1.093  1.00  0.00     0.000 A 
ATOM     12  C   UNL     1      10.494  -0.140  -0.443  1.00  0.00     0.000 A 
ENDBRANCH   6   7
ENDBRANCH   1   6
TORSDOF 4
ENDMDL
