@<TRIPOS>MOLECULE
/home/cewinharhar/GITHUB/reincatalyze/data/processed/docking_pred/2023-Apr-25-2140_maxeplen10_maxtrainstep200_exh16_gamma099_lrac3e-4_lrcr1e-3/09c0e00cbaa22f287e1ef7d21129eabb08ea3244_ligand_2.pdbqt
 12 12 0 0 0
SMALL
GASTEIGER

@<TRIPOS>ATOM
      1  C          8.6210   -0.7520   -2.0150 C.3     1  UNL1        0.1270
      2  C          8.7060   -1.9760   -2.8540 C.2     1  UNL1        0.3030
      3  O          9.7860   -2.5310   -3.1780 O.2     1  UNL1       -0.2520
      4  O          7.5330   -2.5540   -3.3160 O.3     1  UNL1       -0.4810
      5  H          7.2820   -3.4540   -2.9000 H       1  UNL1        0.2960
      6  C          7.2220   -0.2130   -2.0570 C.3     1  UNL1        0.0470
      7  C          6.6040   -0.0330   -0.7460 C.2     1  UNL1       -0.0470
      8  C          6.6240   -0.9830    0.2450 C.2     1  UNL1        0.0040
      9  C          5.9620    1.1500   -0.4730 C.2     1  UNL1        0.0040
     10  C          6.0370   -0.7970    1.4740 C.2     1  UNL1        0.0000
     11  C          5.3630    1.3690    0.7460 C.2     1  UNL1        0.0000
     12  C          5.3940    0.3930    1.7410 C.2     1  UNL1        0.0000
@<TRIPOS>BOND
     1     4     5    1
     2     4     2    1
     3     3     2    2
     4     2     1    1
     5     6     1    1
     6     6     7    1
     7     7     9    2
     8     7     8    1
     9     9    11    1
    10     8    10    2
    11    11    12    2
    12    10    12    1
