@<TRIPOS>MOLECULE
/home/cewinharhar/GITHUB/reincatalyze/data/processed/docking_pred/2023-Apr-25-2140_maxeplen10_maxtrainstep200_exh16_gamma099_lrac3e-4_lrcr1e-3/0c0669ff2f8dcec30d9aff9f411b757c1c1ac29f_ligand_2.pdbqt
 12 12 0 0 0
SMALL
GASTEIGER

@<TRIPOS>ATOM
      1  C          8.3130   -0.9320   -1.8190 C.3     1  UNL1        0.1270
      2  C          8.4750   -2.0040   -2.8360 C.2     1  UNL1        0.3030
      3  O          9.5820   -2.5100   -3.1500 O.2     1  UNL1       -0.2520
      4  O          7.3500   -2.4870   -3.4860 O.3     1  UNL1       -0.4810
      5  H          6.4740   -1.9960   -3.2920 H       1  UNL1        0.2960
      6  C          7.3860   -1.4060   -0.7380 C.3     1  UNL1        0.0470
      7  C          6.5700   -0.3520   -0.1380 C.2     1  UNL1       -0.0470
      8  C          6.1020   -0.3900    1.1520 C.2     1  UNL1        0.0040
      9  C          6.2430    0.7450   -0.8960 C.2     1  UNL1        0.0040
     10  C          5.3360    0.6100    1.7010 C.2     1  UNL1        0.0000
     11  C          5.4770    1.7640   -0.3790 C.2     1  UNL1        0.0000
     12  C          5.0120    1.7080    0.9340 C.2     1  UNL1        0.0000
@<TRIPOS>BOND
     1     4     5    1
     2     4     2    1
     3     3     2    2
     4     2     1    1
     5     1     6    1
     6     9    11    1
     7     9     7    2
     8     6     7    1
     9    11    12    2
    10     7     8    1
    11    12    10    1
    12     8    10    2
