@<TRIPOS>MOLECULE
/home/cewinharhar/GITHUB/reincatalyze/data/processed/docking_pred/2023-Apr-25-2140_maxeplen10_maxtrainstep200_exh16_gamma099_lrac3e-4_lrcr1e-3/0c0669ff2f8dcec30d9aff9f411b757c1c1ac29f_ligand_2.pdbqt
 12 12 0 0 0
SMALL
GASTEIGER

@<TRIPOS>ATOM
      1  C          8.4440   -0.5540   -2.2430 C.3     1  UNL1        0.1270
      2  C          8.5130   -1.8740   -2.9240 C.2     1  UNL1        0.3030
      3  O          9.5790   -2.5140   -3.1060 O.2     1  UNL1       -0.2520
      4  O          7.3410   -2.4490   -3.3910 O.3     1  UNL1       -0.4810
      5  H          7.4130   -3.4190   -3.7080 H       1  UNL1        0.2960
      6  C          7.0140   -0.1090   -2.1610 C.3     1  UNL1        0.0470
      7  C          6.4950    0.0110   -0.8000 C.2     1  UNL1       -0.0470
      8  C          6.6000   -0.9780    0.1470 C.2     1  UNL1        0.0040
      9  C          5.8640    1.1730   -0.4320 C.2     1  UNL1        0.0040
     10  C          6.1070   -0.8490    1.4230 C.2     1  UNL1        0.0000
     11  C          5.3580    1.3360    0.8370 C.2     1  UNL1        0.0000
     12  C          5.4740    0.3200    1.7860 C.2     1  UNL1        0.0000
@<TRIPOS>BOND
     1     5     4    1
     2     4     2    1
     3     3     2    2
     4     2     1    1
     5     1     6    1
     6     6     7    1
     7     7     9    2
     8     7     8    1
     9     9    11    1
    10     8    10    2
    11    11    12    2
    12    10    12    1
