@<TRIPOS>MOLECULE
/home/cewinharhar/GITHUB/reincatalyze/data/processed/docking_pred/2023-Apr-25-2140_maxeplen10_maxtrainstep200_exh16_gamma099_lrac3e-4_lrcr1e-3/0c0669ff2f8dcec30d9aff9f411b757c1c1ac29f_ligand_2.pdbqt
 12 12 0 0 0
SMALL
GASTEIGER

@<TRIPOS>ATOM
      1  C          5.0060    1.8060    0.6790 C.3     1  UNL1        0.1270
      2  C          4.5650    1.0960    1.9080 C.2     1  UNL1        0.3030
      3  O          5.2440    0.2130    2.4900 O.2     1  UNL1       -0.2520
      4  O          3.3330    1.4140    2.4610 O.3     1  UNL1       -0.4810
      5  H          3.3580    1.9260    3.3460 H       1  UNL1        0.2960
      6  C          6.5050    1.8630    0.6460 C.3     1  UNL1        0.0470
      7  C          7.1180    1.0380   -0.3930 C.2     1  UNL1       -0.0470
      8  C          6.4290    0.1170   -1.1430 C.2     1  UNL1        0.0040
      9  C          8.4600    1.1800   -0.6440 C.2     1  UNL1        0.0040
     10  C          7.0210   -0.6510   -2.1160 C.2     1  UNL1        0.0000
     11  C          9.0860    0.4270   -1.6110 C.2     1  UNL1        0.0000
     12  C          8.3690   -0.5030   -2.3630 C.2     1  UNL1        0.0000
@<TRIPOS>BOND
     1    12    10    2
     2    12    11    1
     3    10     8    1
     4    11     9    2
     5     8     7    2
     6     9     7    1
     7     7     6    1
     8     6     1    1
     9     1     2    1
    10     2     4    1
    11     2     3    2
    12     4     5    1
