@<TRIPOS>MOLECULE
/home/cewinharhar/GITHUB/reincatalyze/data/processed/docking_pred/2023-Apr-25-2140_maxeplen10_maxtrainstep200_exh16_gamma099_lrac3e-4_lrcr1e-3/0c0669ff2f8dcec30d9aff9f411b757c1c1ac29f_ligand_2.pdbqt
 12 12 0 0 0
SMALL
GASTEIGER

@<TRIPOS>ATOM
      1  C          8.1930   -0.7510   -2.1050 C.3     1  UNL1        0.1270
      2  C          8.3970   -1.9730   -2.9250 C.2     1  UNL1        0.3030
      3  O          9.5170   -2.5130   -3.1130 O.2     1  UNL1       -0.2520
      4  O          7.2980   -2.5690   -3.5260 O.3     1  UNL1       -0.4810
      5  H          6.5070   -2.7720   -2.9120 H       1  UNL1        0.2960
      6  C          7.6540   -1.1360   -0.7590 C.3     1  UNL1        0.0470
      7  C          6.7180   -0.1730   -0.1850 C.2     1  UNL1       -0.0470
      8  C          6.2680    0.9430   -0.8460 C.2     1  UNL1        0.0040
      9  C          6.2520   -0.3810    1.0900 C.2     1  UNL1        0.0040
     10  C          5.3860    1.8390   -0.2910 C.2     1  UNL1        0.0000
     11  C          5.3690    0.4960    1.6770 C.2     1  UNL1        0.0000
     12  C          4.9230    1.6230    0.9890 C.2     1  UNL1        0.0000
@<TRIPOS>BOND
     1     4     2    1
     2     4     5    1
     3     3     2    2
     4     2     1    1
     5     1     6    1
     6     8    10    1
     7     8     7    2
     8     6     7    1
     9    10    12    2
    10     7     9    1
    11    12    11    1
    12     9    11    2
