MODEL 1
REMARK VINA RESULT:      -7.4      0.000      0.000
REMARK SMILES O=C(O)CCc1ccccc1
REMARK SMILES IDX 4 1 2 2 1 3 3 4 5 6 6 7 7 8 11 9 8 10 10 11 9 12
REMARK H PARENT 3 5
REMARK Flexibility Score: inf
ROOT
ATOM      1  C   UNL     1       8.444  -0.554  -2.243  1.00  0.00     0.127 C 
ENDROOT
BRANCH   1   2
ATOM      2  C   UNL     1       8.513  -1.874  -2.924  1.00  0.00     0.303 C 
ATOM      3  O   UNL     1       9.579  -2.514  -3.106  1.00  0.00    -0.252 OA
BRANCH   2   4
ATOM      4  O   UNL     1       7.341  -2.449  -3.391  1.00  0.00    -0.481 OA
ATOM      5  H   UNL     1       7.413  -3.419  -3.708  1.00  0.00     0.296 HD
ENDBRANCH   2   4
ENDBRANCH   1   2
BRANCH   1   6
ATOM      6  C   UNL     1       7.014  -0.109  -2.161  1.00  0.00     0.047 C 
BRANCH   6   7
ATOM      7  C   UNL     1       6.495   0.011  -0.800  1.00  0.00    -0.047 A 
ATOM      8  C   UNL     1       6.600  -0.978   0.147  1.00  0.00     0.004 A 
ATOM      9  C   UNL     1       5.864   1.173  -0.432  1.00  0.00     0.004 A 
ATOM     10  C   UNL     1       6.107  -0.849   1.423  1.00  0.00     0.000 A 
ATOM     11  C   UNL     1       5.358   1.336   0.837  1.00  0.00     0.000 A 
ATOM     12  C   UNL     1       5.474   0.320   1.786  1.00  0.00     0.000 A 
ENDBRANCH   6   7
ENDBRANCH   1   6
TORSDOF 4
ENDMDL
MODEL 2
REMARK VINA RESULT:      -7.3      0.121      1.721
REMARK SMILES O=C(O)CCc1ccccc1
REMARK SMILES IDX 4 1 2 2 1 3 3 4 5 6 6 7 7 8 11 9 8 10 10 11 9 12
REMARK H PARENT 3 5
REMARK Flexibility Score: inf
ROOT
ATOM      1  C   UNL     1       8.408  -0.623  -2.130  1.00  0.00     0.127 C 
ENDROOT
BRANCH   1   2
ATOM      2  C   UNL     1       8.362  -1.888  -2.909  1.00  0.00     0.303 C 
ATOM      3  O   UNL     1       7.298  -2.444  -3.283  1.00  0.00    -0.252 OA
BRANCH   2   4
ATOM      4  O   UNL     1       9.555  -2.507  -3.253  1.00  0.00    -0.481 OA
ATOM      5  H   UNL     1      10.299  -1.890  -3.587  1.00  0.00     0.296 HD
ENDBRANCH   2   4
ENDBRANCH   1   2
BRANCH   1   6
ATOM      6  C   UNL     1       7.038  -0.012  -2.089  1.00  0.00     0.047 C 
BRANCH   6   7
ATOM      7  C   UNL     1       6.474   0.117  -0.748  1.00  0.00    -0.047 A 
ATOM      8  C   UNL     1       5.809   1.233  -0.303  1.00  0.00     0.004 A 
ATOM      9  C   UNL     1       6.609  -0.928   0.131  1.00  0.00     0.004 A 
ATOM     10  C   UNL     1       5.284   1.338   0.963  1.00  0.00     0.000 A 
ATOM     11  C   UNL     1       6.097  -0.857   1.406  1.00  0.00     0.000 A 
ATOM     12  C   UNL     1       5.424   0.284   1.840  1.00  0.00     0.000 A 
ENDBRANCH   6   7
ENDBRANCH   1   6
TORSDOF 4
ENDMDL
MODEL 3
REMARK VINA RESULT:      -7.2      0.679      1.140
REMARK SMILES O=C(O)CCc1ccccc1
REMARK SMILES IDX 4 1 2 2 1 3 3 4 5 6 6 7 7 8 11 9 8 10 10 11 9 12
REMARK H PARENT 3 5
REMARK Flexibility Score: inf
ROOT
ATOM      1  C   UNL     1       8.313  -0.932  -1.819  1.00  0.00     0.127 C 
ENDROOT
BRANCH   1   2
ATOM      2  C   UNL     1       8.475  -2.004  -2.836  1.00  0.00     0.303 C 
ATOM      3  O   UNL     1       9.582  -2.510  -3.150  1.00  0.00    -0.252 OA
BRANCH   2   4
ATOM      4  O   UNL     1       7.350  -2.487  -3.486  1.00  0.00    -0.481 OA
ATOM      5  H   UNL     1       6.474  -1.996  -3.292  1.00  0.00     0.296 HD
ENDBRANCH   2   4
ENDBRANCH   1   2
BRANCH   1   6
ATOM      6  C   UNL     1       7.386  -1.406  -0.738  1.00  0.00     0.047 C 
BRANCH   6   7
ATOM      7  C   UNL     1       6.570  -0.352  -0.138  1.00  0.00    -0.047 A 
ATOM      8  C   UNL     1       6.102  -0.390   1.152  1.00  0.00     0.004 A 
ATOM      9  C   UNL     1       6.243   0.745  -0.896  1.00  0.00     0.004 A 
ATOM     10  C   UNL     1       5.336   0.610   1.701  1.00  0.00     0.000 A 
ATOM     11  C   UNL     1       5.477   1.764  -0.379  1.00  0.00     0.000 A 
ATOM     12  C   UNL     1       5.012   1.708   0.934  1.00  0.00     0.000 A 
ENDBRANCH   6   7
ENDBRANCH   1   6
TORSDOF 4
ENDMDL
MODEL 4
REMARK VINA RESULT:      -7.1      0.631      1.609
REMARK SMILES O=C(O)CCc1ccccc1
REMARK SMILES IDX 4 1 2 2 1 3 3 4 5 6 6 7 7 8 11 9 8 10 10 11 9 12
REMARK H PARENT 3 5
REMARK Flexibility Score: inf
ROOT
ATOM      1  C   UNL     1       8.193  -0.751  -2.105  1.00  0.00     0.127 C 
ENDROOT
BRANCH   1   2
ATOM      2  C   UNL     1       8.397  -1.973  -2.925  1.00  0.00     0.303 C 
ATOM      3  O   UNL     1       9.517  -2.513  -3.113  1.00  0.00    -0.252 OA
BRANCH   2   4
ATOM      4  O   UNL     1       7.298  -2.569  -3.526  1.00  0.00    -0.481 OA
ATOM      5  H   UNL     1       6.507  -2.772  -2.912  1.00  0.00     0.296 HD
ENDBRANCH   2   4
ENDBRANCH   1   2
BRANCH   1   6
ATOM      6  C   UNL     1       7.654  -1.136  -0.759  1.00  0.00     0.047 C 
BRANCH   6   7
ATOM      7  C   UNL     1       6.718  -0.173  -0.185  1.00  0.00    -0.047 A 
ATOM      8  C   UNL     1       6.268   0.943  -0.846  1.00  0.00     0.004 A 
ATOM      9  C   UNL     1       6.252  -0.381   1.090  1.00  0.00     0.004 A 
ATOM     10  C   UNL     1       5.386   1.839  -0.291  1.00  0.00     0.000 A 
ATOM     11  C   UNL     1       5.369   0.496   1.677  1.00  0.00     0.000 A 
ATOM     12  C   UNL     1       4.923   1.623   0.989  1.00  0.00     0.000 A 
ENDBRANCH   6   7
ENDBRANCH   1   6
TORSDOF 4
ENDMDL
MODEL 5
REMARK VINA RESULT:      -6.8      3.355      5.047
REMARK SMILES O=C(O)CCc1ccccc1
REMARK SMILES IDX 4 1 2 2 1 3 3 4 5 6 6 7 7 8 11 9 8 10 10 11 9 12
REMARK H PARENT 3 5
REMARK Flexibility Score: inf
ROOT
ATOM      1  C   UNL     1       5.006   1.806   0.679  1.00  0.00     0.127 C 
ENDROOT
BRANCH   1   2
ATOM      2  C   UNL     1       4.565   1.096   1.908  1.00  0.00     0.303 C 
ATOM      3  O   UNL     1       5.244   0.213   2.490  1.00  0.00    -0.252 OA
BRANCH   2   4
ATOM      4  O   UNL     1       3.333   1.414   2.461  1.00  0.00    -0.481 OA
ATOM      5  H   UNL     1       3.358   1.926   3.346  1.00  0.00     0.296 HD
ENDBRANCH   2   4
ENDBRANCH   1   2
BRANCH   1   6
ATOM      6  C   UNL     1       6.505   1.863   0.646  1.00  0.00     0.047 C 
BRANCH   6   7
ATOM      7  C   UNL     1       7.118   1.038  -0.393  1.00  0.00    -0.047 A 
ATOM      8  C   UNL     1       6.429   0.117  -1.143  1.00  0.00     0.004 A 
ATOM      9  C   UNL     1       8.460   1.180  -0.644  1.00  0.00     0.004 A 
ATOM     10  C   UNL     1       7.021  -0.651  -2.116  1.00  0.00     0.000 A 
ATOM     11  C   UNL     1       9.086   0.427  -1.611  1.00  0.00     0.000 A 
ATOM     12  C   UNL     1       8.369  -0.503  -2.363  1.00  0.00     0.000 A 
ENDBRANCH   6   7
ENDBRANCH   1   6
TORSDOF 4
ENDMDL
