@<TRIPOS>MOLECULE
/home/cewinharhar/GITHUB/reincatalyze/data/processed/docking_pred/2023-Apr-25-2140_maxeplen10_maxtrainstep200_exh16_gamma099_lrac3e-4_lrcr1e-3/0c0669ff2f8dcec30d9aff9f411b757c1c1ac29f_ligand_2.pdbqt
 12 12 0 0 0
SMALL
GASTEIGER

@<TRIPOS>ATOM
      1  C          8.4080   -0.6230   -2.1300 C.3     1  UNL1        0.1270
      2  C          8.3620   -1.8880   -2.9090 C.2     1  UNL1        0.3030
      3  O          7.2980   -2.4440   -3.2830 O.2     1  UNL1       -0.2520
      4  O          9.5550   -2.5070   -3.2530 O.3     1  UNL1       -0.4810
      5  H         10.2990   -1.8900   -3.5870 H       1  UNL1        0.2960
      6  C          7.0380   -0.0120   -2.0890 C.3     1  UNL1        0.0470
      7  C          6.4740    0.1170   -0.7480 C.2     1  UNL1       -0.0470
      8  C          5.8090    1.2330   -0.3030 C.2     1  UNL1        0.0040
      9  C          6.6090   -0.9280    0.1310 C.2     1  UNL1        0.0040
     10  C          5.2840    1.3380    0.9630 C.2     1  UNL1        0.0000
     11  C          6.0970   -0.8570    1.4060 C.2     1  UNL1        0.0000
     12  C          5.4240    0.2840    1.8400 C.2     1  UNL1        0.0000
@<TRIPOS>BOND
     1     5     4    1
     2     3     2    2
     3     4     2    1
     4     2     1    1
     5     1     6    1
     6     6     7    1
     7     7     8    2
     8     7     9    1
     9     8    10    1
    10     9    11    2
    11    10    12    2
    12    11    12    1
