@<TRIPOS>MOLECULE
/home/cewinharhar/GITHUB/reincatalyze/data/processed/docking_pred/2023-Apr-25-2140_maxeplen10_maxtrainstep200_exh16_gamma099_lrac3e-4_lrcr1e-3/0df60b8790b800bbceb9ee276e91b409308b6f54_ligand_2.pdbqt
 12 12 0 0 0
SMALL
GASTEIGER

@<TRIPOS>ATOM
      1  C          8.2000   -0.9150   -1.9250 C.3     1  UNL1        0.1270
      2  C          8.3950   -2.0470   -2.8680 C.2     1  UNL1        0.3030
      3  O          9.5080   -2.5820   -3.1000 O.2     1  UNL1       -0.2520
      4  O          7.2940   -2.5560   -3.5410 O.3     1  UNL1       -0.4810
      5  H          7.4060   -2.6880   -4.5490 H       1  UNL1        0.2960
      6  C          7.4540   -1.3950   -0.7150 C.3     1  UNL1        0.0470
      7  C          6.6060   -0.3840   -0.0880 C.2     1  UNL1       -0.0470
      8  C          6.1200   -0.4820    1.1930 C.2     1  UNL1        0.0040
      9  C          6.2660    0.7340   -0.8070 C.2     1  UNL1        0.0040
     10  C          5.3230    0.4780    1.7680 C.2     1  UNL1        0.0000
     11  C          5.4690    1.7150   -0.2630 C.2     1  UNL1        0.0000
     12  C          4.9860    1.5990    1.0390 C.2     1  UNL1        0.0000
@<TRIPOS>BOND
     1     5     4    1
     2     4     2    1
     3     3     2    2
     4     2     1    1
     5     1     6    1
     6     9    11    1
     7     9     7    2
     8     6     7    1
     9    11    12    2
    10     7     8    1
    11    12    10    1
    12     8    10    2
