@<TRIPOS>MOLECULE
/home/cewinharhar/GITHUB/reincatalyze/data/processed/docking_pred/2023-Apr-25-2140_maxeplen10_maxtrainstep200_exh16_gamma099_lrac3e-4_lrcr1e-3/0df60b8790b800bbceb9ee276e91b409308b6f54_ligand_2.pdbqt
 12 12 0 0 0
SMALL
GASTEIGER

@<TRIPOS>ATOM
      1  C          8.4310   -0.5300   -2.2670 C.3     1  UNL1        0.1270
      2  C          8.5120   -1.8580   -2.9280 C.2     1  UNL1        0.3030
      3  O          9.5840   -2.4950   -3.0910 O.2     1  UNL1       -0.2520
      4  O          7.3480   -2.4460   -3.3980 O.3     1  UNL1       -0.4810
      5  H          6.6520   -2.6920   -2.6900 H       1  UNL1        0.2960
      6  C          6.9960   -0.0930   -2.1980 C.3     1  UNL1        0.0470
      7  C          6.4850    0.0870   -0.8410 C.2     1  UNL1       -0.0470
      8  C          5.8730    1.2350   -0.4020 C.2     1  UNL1        0.0040
      9  C          6.6160   -0.9410    0.0590 C.2     1  UNL1        0.0040
     10  C          5.3970    1.3880    0.8790 C.2     1  UNL1        0.0000
     11  C          6.1520   -0.8220    1.3480 C.2     1  UNL1        0.0000
     12  C          5.5330    0.3510    1.7760 C.2     1  UNL1        0.0000
@<TRIPOS>BOND
     1     4     2    1
     2     4     5    1
     3     3     2    2
     4     2     1    1
     5     1     6    1
     6     6     7    1
     7     7     8    2
     8     7     9    1
     9     8    10    1
    10     9    11    2
    11    10    12    2
    12    11    12    1
