@<TRIPOS>MOLECULE
/home/cewinharhar/GITHUB/reincatalyze/data/processed/docking_pred/2023-Apr-25-2140_maxeplen10_maxtrainstep200_exh16_gamma099_lrac3e-4_lrcr1e-3/0df60b8790b800bbceb9ee276e91b409308b6f54_ligand_2.pdbqt
 12 12 0 0 0
SMALL
GASTEIGER

@<TRIPOS>ATOM
      1  C          8.4320   -0.5300   -2.2750 C.3     1  UNL1        0.1270
      2  C          8.5080   -1.8670   -2.9190 C.2     1  UNL1        0.3030
      3  O          9.5750   -2.5150   -3.0660 O.2     1  UNL1       -0.2520
      4  O          7.3420   -2.4510   -3.3910 O.3     1  UNL1       -0.4810
      5  H          7.4150   -3.4280   -3.6820 H       1  UNL1        0.2960
      6  C          6.9970   -0.1030   -2.1780 C.3     1  UNL1        0.0470
      7  C          6.4930    0.0150   -0.8110 C.2     1  UNL1       -0.0470
      8  C          6.5990   -0.9780    0.1310 C.2     1  UNL1        0.0040
      9  C          5.8750    1.1810   -0.4320 C.2     1  UNL1        0.0040
     10  C          6.1200   -0.8500    1.4130 C.2     1  UNL1        0.0000
     11  C          5.3820    1.3430    0.8430 C.2     1  UNL1        0.0000
     12  C          5.5000    0.3230    1.7860 C.2     1  UNL1        0.0000
@<TRIPOS>BOND
     1     5     4    1
     2     4     2    1
     3     3     2    2
     4     2     1    1
     5     1     6    1
     6     6     7    1
     7     7     9    2
     8     7     8    1
     9     9    11    1
    10     8    10    2
    11    11    12    2
    12    10    12    1
