@<TRIPOS>MOLECULE
/home/cewinharhar/GITHUB/reincatalyze/data/processed/docking_pred/2023-Apr-25-2140_maxeplen10_maxtrainstep200_exh16_gamma099_lrac3e-4_lrcr1e-3/0df60b8790b800bbceb9ee276e91b409308b6f54_ligand_2.pdbqt
 12 12 0 0 0
SMALL
GASTEIGER

@<TRIPOS>ATOM
      1  C          8.2710    0.1840   -2.2190 C.3     1  UNL1        0.1270
      2  C          9.3790    0.3330   -1.2390 C.2     1  UNL1        0.3030
      3  O          9.4960   -0.3690   -0.2020 O.2     1  UNL1       -0.2520
      4  O         10.3500    1.2970   -1.4650 O.3     1  UNL1       -0.4810
      5  H         11.1690    0.9920   -1.9960 H       1  UNL1        0.2960
      6  C          7.1210   -0.5270   -1.5690 C.3     1  UNL1        0.0470
      7  C          6.3420    0.3000   -0.6500 C.2     1  UNL1       -0.0470
      8  C          5.8060    1.5190   -0.9860 C.2     1  UNL1        0.0040
      9  C          6.1250   -0.1530    0.6270 C.2     1  UNL1        0.0040
     10  C          5.0750    2.2850   -0.1090 C.2     1  UNL1        0.0000
     11  C          5.3990    0.5880    1.5320 C.2     1  UNL1        0.0000
     12  C          4.8620    1.8230    1.1720 C.2     1  UNL1        0.0000
@<TRIPOS>BOND
     1     1     6    1
     2     1     2    1
     3     5     4    1
     4     6     7    1
     5     4     2    1
     6     2     3    2
     7     8     7    2
     8     8    10    1
     9     7     9    1
    10    10    12    2
    11     9    11    2
    12    12    11    1
