@<TRIPOS>MOLECULE
/home/cewinharhar/GITHUB/reincatalyze/data/processed/docking_pred/2023-Apr-25-2140_maxeplen10_maxtrainstep200_exh16_gamma099_lrac3e-4_lrcr1e-3/0df60b8790b800bbceb9ee276e91b409308b6f54_ligand_2.pdbqt
 12 12 0 0 0
SMALL
GASTEIGER

@<TRIPOS>ATOM
      1  C          5.0260    1.7380    0.7060 C.3     1  UNL1        0.1270
      2  C          4.5890    1.0200    1.9320 C.2     1  UNL1        0.3030
      3  O          5.2750    0.1380    2.5090 O.2     1  UNL1       -0.2520
      4  O          3.3550    1.3270    2.4860 O.3     1  UNL1       -0.4810
      5  H          3.2600    1.1580    3.4900 H       1  UNL1        0.2960
      6  C          6.5220    1.8420    0.6950 C.3     1  UNL1        0.0470
      7  C          7.1740    1.0670   -0.3590 C.2     1  UNL1       -0.0470
      8  C          8.5060    1.1740   -0.6740 C.2     1  UNL1        0.0040
      9  C          6.4230    0.1770   -1.0860 C.2     1  UNL1        0.0040
     10  C          9.1030    0.4370   -1.6690 C.2     1  UNL1        0.0000
     11  C          6.9880   -0.5760   -2.0900 C.2     1  UNL1        0.0000
     12  C          8.3430   -0.4550   -2.3950 C.2     1  UNL1        0.0000
@<TRIPOS>BOND
     1    12    11    2
     2    12    10    1
     3    11     9    1
     4    10     8    2
     5     9     7    2
     6     8     7    1
     7     7     6    1
     8     6     1    1
     9     1     2    1
    10     2     4    1
    11     2     3    2
    12     4     5    1
