MODEL 1
REMARK VINA RESULT:      -7.3      0.000      0.000
REMARK SMILES O=C(O)CCc1ccccc1
REMARK SMILES IDX 4 1 2 2 1 3 3 4 5 6 6 7 7 8 11 9 8 10 10 11 9 12
REMARK H PARENT 3 5
REMARK Flexibility Score: inf
ROOT
ATOM      1  C   UNL     1       8.432  -0.530  -2.275  1.00  0.00     0.127 C 
ENDROOT
BRANCH   1   2
ATOM      2  C   UNL     1       8.508  -1.867  -2.919  1.00  0.00     0.303 C 
ATOM      3  O   UNL     1       9.575  -2.515  -3.066  1.00  0.00    -0.252 OA
BRANCH   2   4
ATOM      4  O   UNL     1       7.342  -2.451  -3.391  1.00  0.00    -0.481 OA
ATOM      5  H   UNL     1       7.415  -3.428  -3.682  1.00  0.00     0.296 HD
ENDBRANCH   2   4
ENDBRANCH   1   2
BRANCH   1   6
ATOM      6  C   UNL     1       6.997  -0.103  -2.178  1.00  0.00     0.047 C 
BRANCH   6   7
ATOM      7  C   UNL     1       6.493   0.015  -0.811  1.00  0.00    -0.047 A 
ATOM      8  C   UNL     1       6.599  -0.978   0.131  1.00  0.00     0.004 A 
ATOM      9  C   UNL     1       5.875   1.181  -0.432  1.00  0.00     0.004 A 
ATOM     10  C   UNL     1       6.120  -0.850   1.413  1.00  0.00     0.000 A 
ATOM     11  C   UNL     1       5.382   1.343   0.843  1.00  0.00     0.000 A 
ATOM     12  C   UNL     1       5.500   0.323   1.786  1.00  0.00     0.000 A 
ENDBRANCH   6   7
ENDBRANCH   1   6
TORSDOF 4
ENDMDL
MODEL 2
REMARK VINA RESULT:      -7.3      0.053      1.426
REMARK SMILES O=C(O)CCc1ccccc1
REMARK SMILES IDX 4 1 2 2 1 3 3 4 5 6 6 7 7 8 11 9 8 10 10 11 9 12
REMARK H PARENT 3 5
REMARK Flexibility Score: inf
ROOT
ATOM      1  C   UNL     1       8.431  -0.530  -2.267  1.00  0.00     0.127 C 
ENDROOT
BRANCH   1   2
ATOM      2  C   UNL     1       8.512  -1.858  -2.928  1.00  0.00     0.303 C 
ATOM      3  O   UNL     1       9.584  -2.495  -3.091  1.00  0.00    -0.252 OA
BRANCH   2   4
ATOM      4  O   UNL     1       7.348  -2.446  -3.398  1.00  0.00    -0.481 OA
ATOM      5  H   UNL     1       6.652  -2.692  -2.690  1.00  0.00     0.296 HD
ENDBRANCH   2   4
ENDBRANCH   1   2
BRANCH   1   6
ATOM      6  C   UNL     1       6.996  -0.093  -2.198  1.00  0.00     0.047 C 
BRANCH   6   7
ATOM      7  C   UNL     1       6.485   0.087  -0.841  1.00  0.00    -0.047 A 
ATOM      8  C   UNL     1       5.873   1.235  -0.402  1.00  0.00     0.004 A 
ATOM      9  C   UNL     1       6.616  -0.941   0.059  1.00  0.00     0.004 A 
ATOM     10  C   UNL     1       5.397   1.388   0.879  1.00  0.00     0.000 A 
ATOM     11  C   UNL     1       6.152  -0.822   1.348  1.00  0.00     0.000 A 
ATOM     12  C   UNL     1       5.533   0.351   1.776  1.00  0.00     0.000 A 
ENDBRANCH   6   7
ENDBRANCH   1   6
TORSDOF 4
ENDMDL
MODEL 3
REMARK VINA RESULT:      -7.2      0.642      1.111
REMARK SMILES O=C(O)CCc1ccccc1
REMARK SMILES IDX 4 1 2 2 1 3 3 4 5 6 6 7 7 8 11 9 8 10 10 11 9 12
REMARK H PARENT 3 5
REMARK Flexibility Score: inf
ROOT
ATOM      1  C   UNL     1       8.200  -0.915  -1.925  1.00  0.00     0.127 C 
ENDROOT
BRANCH   1   2
ATOM      2  C   UNL     1       8.395  -2.047  -2.868  1.00  0.00     0.303 C 
ATOM      3  O   UNL     1       9.508  -2.582  -3.100  1.00  0.00    -0.252 OA
BRANCH   2   4
ATOM      4  O   UNL     1       7.294  -2.556  -3.541  1.00  0.00    -0.481 OA
ATOM      5  H   UNL     1       7.406  -2.688  -4.549  1.00  0.00     0.296 HD
ENDBRANCH   2   4
ENDBRANCH   1   2
BRANCH   1   6
ATOM      6  C   UNL     1       7.454  -1.395  -0.715  1.00  0.00     0.047 C 
BRANCH   6   7
ATOM      7  C   UNL     1       6.606  -0.384  -0.088  1.00  0.00    -0.047 A 
ATOM      8  C   UNL     1       6.120  -0.482   1.193  1.00  0.00     0.004 A 
ATOM      9  C   UNL     1       6.266   0.734  -0.807  1.00  0.00     0.004 A 
ATOM     10  C   UNL     1       5.323   0.478   1.768  1.00  0.00     0.000 A 
ATOM     11  C   UNL     1       5.469   1.715  -0.263  1.00  0.00     0.000 A 
ATOM     12  C   UNL     1       4.986   1.599   1.039  1.00  0.00     0.000 A 
ENDBRANCH   6   7
ENDBRANCH   1   6
TORSDOF 4
ENDMDL
MODEL 4
REMARK VINA RESULT:      -6.8      3.343      5.045
REMARK SMILES O=C(O)CCc1ccccc1
REMARK SMILES IDX 4 1 2 2 1 3 3 4 5 6 6 7 7 8 11 9 8 10 10 11 9 12
REMARK H PARENT 3 5
REMARK Flexibility Score: inf
ROOT
ATOM      1  C   UNL     1       5.026   1.738   0.706  1.00  0.00     0.127 C 
ENDROOT
BRANCH   1   2
ATOM      2  C   UNL     1       4.589   1.020   1.932  1.00  0.00     0.303 C 
ATOM      3  O   UNL     1       5.275   0.138   2.509  1.00  0.00    -0.252 OA
BRANCH   2   4
ATOM      4  O   UNL     1       3.355   1.327   2.486  1.00  0.00    -0.481 OA
ATOM      5  H   UNL     1       3.260   1.158   3.490  1.00  0.00     0.296 HD
ENDBRANCH   2   4
ENDBRANCH   1   2
BRANCH   1   6
ATOM      6  C   UNL     1       6.522   1.842   0.695  1.00  0.00     0.047 C 
BRANCH   6   7
ATOM      7  C   UNL     1       7.174   1.067  -0.359  1.00  0.00    -0.047 A 
ATOM      8  C   UNL     1       8.506   1.174  -0.674  1.00  0.00     0.004 A 
ATOM      9  C   UNL     1       6.423   0.177  -1.086  1.00  0.00     0.004 A 
ATOM     10  C   UNL     1       9.103   0.437  -1.669  1.00  0.00     0.000 A 
ATOM     11  C   UNL     1       6.988  -0.576  -2.090  1.00  0.00     0.000 A 
ATOM     12  C   UNL     1       8.343  -0.455  -2.395  1.00  0.00     0.000 A 
ENDBRANCH   6   7
ENDBRANCH   1   6
TORSDOF 4
ENDMDL
MODEL 5
REMARK VINA RESULT:      -6.7      1.940      2.657
REMARK SMILES O=C(O)CCc1ccccc1
REMARK SMILES IDX 4 1 2 2 1 3 3 4 5 6 6 7 7 8 11 9 8 10 10 11 9 12
REMARK H PARENT 3 5
REMARK Flexibility Score: inf
ROOT
ATOM      1  C   UNL     1       8.271   0.184  -2.219  1.00  0.00     0.127 C 
ENDROOT
BRANCH   1   2
ATOM      2  C   UNL     1       9.379   0.333  -1.239  1.00  0.00     0.303 C 
ATOM      3  O   UNL     1       9.496  -0.369  -0.202  1.00  0.00    -0.252 OA
BRANCH   2   4
ATOM      4  O   UNL     1      10.350   1.297  -1.465  1.00  0.00    -0.481 OA
ATOM      5  H   UNL     1      11.169   0.992  -1.996  1.00  0.00     0.296 HD
ENDBRANCH   2   4
ENDBRANCH   1   2
BRANCH   1   6
ATOM      6  C   UNL     1       7.121  -0.527  -1.569  1.00  0.00     0.047 C 
BRANCH   6   7
ATOM      7  C   UNL     1       6.342   0.300  -0.650  1.00  0.00    -0.047 A 
ATOM      8  C   UNL     1       5.806   1.519  -0.986  1.00  0.00     0.004 A 
ATOM      9  C   UNL     1       6.125  -0.153   0.627  1.00  0.00     0.004 A 
ATOM     10  C   UNL     1       5.075   2.285  -0.109  1.00  0.00     0.000 A 
ATOM     11  C   UNL     1       5.399   0.588   1.532  1.00  0.00     0.000 A 
ATOM     12  C   UNL     1       4.862   1.823   1.172  1.00  0.00     0.000 A 
ENDBRANCH   6   7
ENDBRANCH   1   6
TORSDOF 4
ENDMDL
