@<TRIPOS>MOLECULE
/home/cewinharhar/GITHUB/reincatalyze/data/processed/docking_pred/2023-Apr-25-2140_maxeplen10_maxtrainstep200_exh16_gamma099_lrac3e-4_lrcr1e-3/12e5788d749ca0b681d4f032b25b6d257325d045_ligand_2.pdbqt
 12 12 0 0 0
SMALL
GASTEIGER

@<TRIPOS>ATOM
      1  C          8.5170   -0.8410   -1.9360 C.3     1  UNL1        0.1270
      2  C          8.4230   -2.0080   -2.8520 C.2     1  UNL1        0.3030
      3  O          7.3380   -2.4800   -3.2760 O.2     1  UNL1       -0.2520
      4  O          9.5910   -2.6250   -3.2740 O.3     1  UNL1       -0.4810
      5  H          9.9700   -2.3040   -4.1680 H       1  UNL1        0.2960
      6  C          7.2750   -0.0080   -2.0590 C.3     1  UNL1        0.0470
      7  C          6.7070    0.4200   -0.7830 C.2     1  UNL1       -0.0470
      8  C          5.6940    1.3400   -0.6680 C.2     1  UNL1        0.0040
      9  C          7.2040   -0.1190    0.3780 C.2     1  UNL1        0.0040
     10  C          5.1700    1.7320    0.5410 C.2     1  UNL1        0.0000
     11  C          6.7040    0.2510    1.6050 C.2     1  UNL1        0.0000
     12  C          5.6750    1.1860    1.7020 C.2     1  UNL1        0.0000
@<TRIPOS>BOND
     1     5     4    1
     2     3     2    2
     3     4     2    1
     4     2     1    1
     5     6     1    1
     6     6     7    1
     7     7     8    2
     8     7     9    1
     9     8    10    1
    10     9    11    2
    11    10    12    2
    12    11    12    1
