@<TRIPOS>MOLECULE
/home/cewinharhar/GITHUB/reincatalyze/data/processed/docking_pred/2023-Apr-25-2140_maxeplen10_maxtrainstep200_exh16_gamma099_lrac3e-4_lrcr1e-3/12e5788d749ca0b681d4f032b25b6d257325d045_ligand_2.pdbqt
 12 12 0 0 0
SMALL
GASTEIGER

@<TRIPOS>ATOM
      1  C          8.6600   -0.6030   -2.2170 C.3     1  UNL1        0.1270
      2  C          8.6730   -1.8840   -2.9690 C.2     1  UNL1        0.3030
      3  O          9.7200   -2.5180   -3.2570 O.2     1  UNL1       -0.2520
      4  O          7.4680   -2.4290   -3.3860 O.3     1  UNL1       -0.4810
      5  H          7.5110   -3.0380   -4.2070 H       1  UNL1        0.2960
      6  C          7.2570   -0.0730   -2.1570 C.3     1  UNL1        0.0470
      7  C          6.7980    0.2700   -0.8130 C.2     1  UNL1       -0.0470
      8  C          7.3230   -0.2710    0.3350 C.2     1  UNL1        0.0040
      9  C          5.7830    1.1840   -0.6720 C.2     1  UNL1        0.0040
     10  C          6.8790    0.0630    1.5930 C.2     1  UNL1        0.0000
     11  C          5.3140    1.5400    0.5710 C.2     1  UNL1        0.0000
     12  C          5.8600    0.9810    1.7250 C.2     1  UNL1        0.0000
@<TRIPOS>BOND
     1     5     4    1
     2     4     2    1
     3     3     2    2
     4     2     1    1
     5     1     6    1
     6     6     7    1
     7     7     9    2
     8     7     8    1
     9     9    11    1
    10     8    10    2
    11    11    12    2
    12    10    12    1
