@<TRIPOS>MOLECULE
/home/cewinharhar/GITHUB/reincatalyze/data/processed/docking_pred/2023-Apr-25-2140_maxeplen10_maxtrainstep200_exh16_gamma099_lrac3e-4_lrcr1e-3/12e5788d749ca0b681d4f032b25b6d257325d045_ligand_2.pdbqt
 12 12 0 0 0
SMALL
GASTEIGER

@<TRIPOS>ATOM
      1  C          8.6320   -0.5840   -2.3050 C.3     1  UNL1        0.1270
      2  C          8.6110   -1.9190   -2.9570 C.2     1  UNL1        0.3030
      3  O          9.6260   -2.6470   -3.0970 O.2     1  UNL1       -0.2520
      4  O          7.4080   -2.4080   -3.4440 O.3     1  UNL1       -0.4810
      5  H          7.3660   -3.4180   -3.6020 H       1  UNL1        0.2960
      6  C          7.2350   -0.0390   -2.2360 C.3     1  UNL1        0.0470
      7  C          6.7820    0.2900   -0.8870 C.2     1  UNL1       -0.0470
      8  C          5.7680    1.1760   -0.6160 C.2     1  UNL1        0.0040
      9  C          7.3960   -0.3120    0.1840 C.2     1  UNL1        0.0040
     10  C          5.3540    1.4750    0.6600 C.2     1  UNL1        0.0000
     11  C          7.0070   -0.0350    1.4740 C.2     1  UNL1        0.0000
     12  C          5.9750    0.8670    1.7290 C.2     1  UNL1        0.0000
@<TRIPOS>BOND
     1     5     4    1
     2     4     2    1
     3     3     2    2
     4     2     1    1
     5     1     6    1
     6     6     7    1
     7     7     8    2
     8     7     9    1
     9     8    10    1
    10     9    11    2
    11    10    12    2
    12    11    12    1
