@<TRIPOS>MOLECULE
/home/cewinharhar/GITHUB/reincatalyze/data/processed/docking_pred/2023-Apr-25-2140_maxeplen10_maxtrainstep200_exh16_gamma099_lrac3e-4_lrcr1e-3/12e5788d749ca0b681d4f032b25b6d257325d045_ligand_2.pdbqt
 12 12 0 0 0
SMALL
GASTEIGER

@<TRIPOS>ATOM
      1  C          5.0010    1.8340    0.7110 C.3     1  UNL1        0.1270
      2  C          4.5360    1.1680    1.9550 C.2     1  UNL1        0.3030
      3  O          5.2270    0.3470    2.6110 O.2     1  UNL1       -0.2520
      4  O          3.2690    1.4570    2.4370 O.3     1  UNL1       -0.4810
      5  H          2.5180    1.4700    1.7440 H       1  UNL1        0.2960
      6  C          6.5010    1.8530    0.6840 C.3     1  UNL1        0.0470
      7  C          7.0970    1.0240   -0.3620 C.2     1  UNL1       -0.0470
      8  C          6.4280    0.0170   -1.0120 C.2     1  UNL1        0.0040
      9  C          8.4000    1.2540   -0.7260 C.2     1  UNL1        0.0040
     10  C          7.0040   -0.7530   -1.9940 C.2     1  UNL1        0.0000
     11  C          9.0080    0.5010   -1.7040 C.2     1  UNL1        0.0000
     12  C          8.3130   -0.5170   -2.3540 C.2     1  UNL1        0.0000
@<TRIPOS>BOND
     1    12    10    2
     2    12    11    1
     3    10     8    1
     4    11     9    2
     5     8     7    2
     6     9     7    1
     7     7     6    1
     8     6     1    1
     9     1     2    1
    10     5     4    1
    11     2     4    1
    12     2     3    2
