MODEL 1
REMARK VINA RESULT:      -7.2      0.000      0.000
REMARK SMILES O=C(O)CCc1ccccc1
REMARK SMILES IDX 4 1 2 2 1 3 3 4 5 6 6 7 7 8 11 9 8 10 10 11 9 12
REMARK H PARENT 3 5
REMARK Flexibility Score: inf
ROOT
ATOM      1  C   UNL     1       8.632  -0.584  -2.305  1.00  0.00     0.127 C 
ENDROOT
BRANCH   1   2
ATOM      2  C   UNL     1       8.611  -1.919  -2.957  1.00  0.00     0.303 C 
ATOM      3  O   UNL     1       9.626  -2.647  -3.097  1.00  0.00    -0.252 OA
BRANCH   2   4
ATOM      4  O   UNL     1       7.408  -2.408  -3.444  1.00  0.00    -0.481 OA
ATOM      5  H   UNL     1       7.366  -3.418  -3.602  1.00  0.00     0.296 HD
ENDBRANCH   2   4
ENDBRANCH   1   2
BRANCH   1   6
ATOM      6  C   UNL     1       7.235  -0.039  -2.236  1.00  0.00     0.047 C 
BRANCH   6   7
ATOM      7  C   UNL     1       6.782   0.290  -0.887  1.00  0.00    -0.047 A 
ATOM      8  C   UNL     1       5.768   1.176  -0.616  1.00  0.00     0.004 A 
ATOM      9  C   UNL     1       7.396  -0.312   0.184  1.00  0.00     0.004 A 
ATOM     10  C   UNL     1       5.354   1.475   0.660  1.00  0.00     0.000 A 
ATOM     11  C   UNL     1       7.007  -0.035   1.474  1.00  0.00     0.000 A 
ATOM     12  C   UNL     1       5.975   0.867   1.729  1.00  0.00     0.000 A 
ENDBRANCH   6   7
ENDBRANCH   1   6
TORSDOF 4
ENDMDL
MODEL 2
REMARK VINA RESULT:      -7.2      0.135      1.429
REMARK SMILES O=C(O)CCc1ccccc1
REMARK SMILES IDX 4 1 2 2 1 3 3 4 5 6 6 7 7 8 11 9 8 10 10 11 9 12
REMARK H PARENT 3 5
REMARK Flexibility Score: inf
ROOT
ATOM      1  C   UNL     1       8.660  -0.603  -2.217  1.00  0.00     0.127 C 
ENDROOT
BRANCH   1   2
ATOM      2  C   UNL     1       8.673  -1.884  -2.969  1.00  0.00     0.303 C 
ATOM      3  O   UNL     1       9.720  -2.518  -3.257  1.00  0.00    -0.252 OA
BRANCH   2   4
ATOM      4  O   UNL     1       7.468  -2.429  -3.386  1.00  0.00    -0.481 OA
ATOM      5  H   UNL     1       7.511  -3.038  -4.207  1.00  0.00     0.296 HD
ENDBRANCH   2   4
ENDBRANCH   1   2
BRANCH   1   6
ATOM      6  C   UNL     1       7.257  -0.073  -2.157  1.00  0.00     0.047 C 
BRANCH   6   7
ATOM      7  C   UNL     1       6.798   0.270  -0.813  1.00  0.00    -0.047 A 
ATOM      8  C   UNL     1       7.323  -0.271   0.335  1.00  0.00     0.004 A 
ATOM      9  C   UNL     1       5.783   1.184  -0.672  1.00  0.00     0.004 A 
ATOM     10  C   UNL     1       6.879   0.063   1.593  1.00  0.00     0.000 A 
ATOM     11  C   UNL     1       5.314   1.540   0.571  1.00  0.00     0.000 A 
ATOM     12  C   UNL     1       5.860   0.981   1.725  1.00  0.00     0.000 A 
ENDBRANCH   6   7
ENDBRANCH   1   6
TORSDOF 4
ENDMDL
MODEL 3
REMARK VINA RESULT:      -7.0      0.309      1.005
REMARK SMILES O=C(O)CCc1ccccc1
REMARK SMILES IDX 4 1 2 2 1 3 3 4 5 6 6 7 7 8 11 9 8 10 10 11 9 12
REMARK H PARENT 3 5
REMARK Flexibility Score: inf
ROOT
ATOM      1  C   UNL     1       8.517  -0.841  -1.936  1.00  0.00     0.127 C 
ENDROOT
BRANCH   1   2
ATOM      2  C   UNL     1       8.423  -2.008  -2.852  1.00  0.00     0.303 C 
ATOM      3  O   UNL     1       7.338  -2.480  -3.276  1.00  0.00    -0.252 OA
BRANCH   2   4
ATOM      4  O   UNL     1       9.591  -2.625  -3.274  1.00  0.00    -0.481 OA
ATOM      5  H   UNL     1       9.970  -2.304  -4.168  1.00  0.00     0.296 HD
ENDBRANCH   2   4
ENDBRANCH   1   2
BRANCH   1   6
ATOM      6  C   UNL     1       7.275  -0.008  -2.059  1.00  0.00     0.047 C 
BRANCH   6   7
ATOM      7  C   UNL     1       6.707   0.420  -0.783  1.00  0.00    -0.047 A 
ATOM      8  C   UNL     1       5.694   1.340  -0.668  1.00  0.00     0.004 A 
ATOM      9  C   UNL     1       7.204  -0.119   0.378  1.00  0.00     0.004 A 
ATOM     10  C   UNL     1       5.170   1.732   0.541  1.00  0.00     0.000 A 
ATOM     11  C   UNL     1       6.704   0.251   1.605  1.00  0.00     0.000 A 
ATOM     12  C   UNL     1       5.675   1.186   1.702  1.00  0.00     0.000 A 
ENDBRANCH   6   7
ENDBRANCH   1   6
TORSDOF 4
ENDMDL
MODEL 4
REMARK VINA RESULT:      -7.0      3.349      5.154
REMARK SMILES O=C(O)CCc1ccccc1
REMARK SMILES IDX 4 1 2 2 1 3 3 4 5 6 6 7 7 8 11 9 8 10 10 11 9 12
REMARK H PARENT 3 5
REMARK Flexibility Score: inf
ROOT
ATOM      1  C   UNL     1       4.982   1.809   0.689  1.00  0.00     0.127 C 
ENDROOT
BRANCH   1   2
ATOM      2  C   UNL     1       4.502   1.134   1.923  1.00  0.00     0.303 C 
ATOM      3  O   UNL     1       3.380   1.349   2.448  1.00  0.00    -0.252 OA
BRANCH   2   4
ATOM      4  O   UNL     1       5.325   0.207   2.544  1.00  0.00    -0.481 OA
ATOM      5  H   UNL     1       6.326   0.415   2.527  1.00  0.00     0.296 HD
ENDBRANCH   2   4
ENDBRANCH   1   2
BRANCH   1   6
ATOM      6  C   UNL     1       6.481   1.881   0.711  1.00  0.00     0.047 C 
BRANCH   6   7
ATOM      7  C   UNL     1       7.138   1.115  -0.346  1.00  0.00    -0.047 A 
ATOM      8  C   UNL     1       8.474   1.217  -0.647  1.00  0.00     0.004 A 
ATOM      9  C   UNL     1       6.389   0.238  -1.091  1.00  0.00     0.004 A 
ATOM     10  C   UNL     1       9.076   0.489  -1.645  1.00  0.00     0.000 A 
ATOM     11  C   UNL     1       6.959  -0.506  -2.098  1.00  0.00     0.000 A 
ATOM     12  C   UNL     1       8.317  -0.389  -2.389  1.00  0.00     0.000 A 
ENDBRANCH   6   7
ENDBRANCH   1   6
TORSDOF 4
ENDMDL
MODEL 5
REMARK VINA RESULT:      -6.7      3.394      5.035
REMARK SMILES O=C(O)CCc1ccccc1
REMARK SMILES IDX 4 1 2 2 1 3 3 4 5 6 6 7 7 8 11 9 8 10 10 11 9 12
REMARK H PARENT 3 5
REMARK Flexibility Score: inf
ROOT
ATOM      1  C   UNL     1       5.001   1.834   0.711  1.00  0.00     0.127 C 
ENDROOT
BRANCH   1   2
ATOM      2  C   UNL     1       4.536   1.168   1.955  1.00  0.00     0.303 C 
ATOM      3  O   UNL     1       5.227   0.347   2.611  1.00  0.00    -0.252 OA
BRANCH   2   4
ATOM      4  O   UNL     1       3.269   1.457   2.437  1.00  0.00    -0.481 OA
ATOM      5  H   UNL     1       2.518   1.470   1.744  1.00  0.00     0.296 HD
ENDBRANCH   2   4
ENDBRANCH   1   2
BRANCH   1   6
ATOM      6  C   UNL     1       6.501   1.853   0.684  1.00  0.00     0.047 C 
BRANCH   6   7
ATOM      7  C   UNL     1       7.097   1.024  -0.362  1.00  0.00    -0.047 A 
ATOM      8  C   UNL     1       6.428   0.017  -1.012  1.00  0.00     0.004 A 
ATOM      9  C   UNL     1       8.400   1.254  -0.726  1.00  0.00     0.004 A 
ATOM     10  C   UNL     1       7.004  -0.753  -1.994  1.00  0.00     0.000 A 
ATOM     11  C   UNL     1       9.008   0.501  -1.704  1.00  0.00     0.000 A 
ATOM     12  C   UNL     1       8.313  -0.517  -2.354  1.00  0.00     0.000 A 
ENDBRANCH   6   7
ENDBRANCH   1   6
TORSDOF 4
ENDMDL
