@<TRIPOS>MOLECULE
/home/cewinharhar/GITHUB/reincatalyze/data/processed/docking_pred/2023-Apr-25-2140_maxeplen10_maxtrainstep200_exh16_gamma099_lrac3e-4_lrcr1e-3/12e5788d749ca0b681d4f032b25b6d257325d045_ligand_2.pdbqt
 12 12 0 0 0
SMALL
GASTEIGER

@<TRIPOS>ATOM
      1  C          4.9820    1.8090    0.6890 C.3     1  UNL1        0.1270
      2  C          4.5020    1.1340    1.9230 C.2     1  UNL1        0.3030
      3  O          3.3800    1.3490    2.4480 O.2     1  UNL1       -0.2520
      4  O          5.3250    0.2070    2.5440 O.3     1  UNL1       -0.4810
      5  H          6.3260    0.4150    2.5270 H       1  UNL1        0.2960
      6  C          6.4810    1.8810    0.7110 C.3     1  UNL1        0.0470
      7  C          7.1380    1.1150   -0.3460 C.2     1  UNL1       -0.0470
      8  C          8.4740    1.2170   -0.6470 C.2     1  UNL1        0.0040
      9  C          6.3890    0.2380   -1.0910 C.2     1  UNL1        0.0040
     10  C          9.0760    0.4890   -1.6450 C.2     1  UNL1        0.0000
     11  C          6.9590   -0.5060   -2.0980 C.2     1  UNL1        0.0000
     12  C          8.3170   -0.3890   -2.3890 C.2     1  UNL1        0.0000
@<TRIPOS>BOND
     1    12    11    2
     2    12    10    1
     3    11     9    1
     4    10     8    2
     5     9     7    2
     6     8     7    1
     7     7     6    1
     8     1     6    1
     9     1     2    1
    10     2     3    2
    11     2     4    1
    12     5     4    1
