@<TRIPOS>MOLECULE
/home/cewinharhar/GITHUB/reincatalyze/data/processed/docking_pred/2023-Apr-25-2140_maxeplen10_maxtrainstep200_exh16_gamma099_lrac3e-4_lrcr1e-3/141be626e2cd6ba8f6b8a46d6dbef4dd02701a2b_ligand_2.pdbqt
 12 12 0 0 0
SMALL
GASTEIGER

@<TRIPOS>ATOM
      1  C          8.0890    0.2760   -2.0250 C.3     1  UNL1        0.1270
      2  C          9.2780    0.3130   -1.1350 C.2     1  UNL1        0.3030
      3  O          9.4310   -0.4380   -0.1380 O.2     1  UNL1       -0.2520
      4  O         10.2900    1.2220   -1.4040 O.3     1  UNL1       -0.4810
      5  H         10.0150    2.0570   -1.9260 H       1  UNL1        0.2960
      6  C          7.0130   -0.5530   -1.3880 C.3     1  UNL1        0.0470
      7  C          6.2950    0.1180   -0.3070 C.2     1  UNL1       -0.0470
      8  C          6.1110   -0.4250    0.9410 C.2     1  UNL1        0.0040
      9  C          5.7650    1.3630   -0.5360 C.2     1  UNL1        0.0040
     10  C          5.4330    0.2200    1.9470 C.2     1  UNL1        0.0000
     11  C          5.0790    2.0370    0.4480 C.2     1  UNL1        0.0000
     12  C          4.9040    1.4700    1.7090 C.2     1  UNL1        0.0000
@<TRIPOS>BOND
     1     1     6    1
     2     1     2    1
     3     5     4    1
     4     4     2    1
     5     6     7    1
     6     2     3    2
     7     9     7    2
     8     9    11    1
     9     7     8    1
    10    11    12    2
    11     8    10    2
    12    12    10    1
