@<TRIPOS>MOLECULE
/home/cewinharhar/GITHUB/reincatalyze/data/processed/docking_pred/2023-Apr-25-2140_maxeplen10_maxtrainstep200_exh16_gamma099_lrac3e-4_lrcr1e-3/141be626e2cd6ba8f6b8a46d6dbef4dd02701a2b_ligand_2.pdbqt
 12 12 0 0 0
SMALL
GASTEIGER

@<TRIPOS>ATOM
      1  C          8.2030   -1.1660    0.2010 C.3     1  UNL1        0.1270
      2  C          8.0690   -2.5160    0.8090 C.2     1  UNL1        0.3030
      3  O          8.9330   -3.4230    0.7020 O.2     1  UNL1       -0.2520
      4  O          6.9300   -2.8100    1.5440 O.3     1  UNL1       -0.4810
      5  H          6.4310   -3.6610    1.2750 H       1  UNL1        0.2960
      6  C          6.9600   -0.8410   -0.5730 C.3     1  UNL1        0.0470
      7  C          6.1770    0.2630   -0.0220 C.2     1  UNL1       -0.0470
      8  C          5.7370    0.3140    1.2770 C.2     1  UNL1        0.0040
      9  C          5.8540    1.3170   -0.8390 C.2     1  UNL1        0.0040
     10  C          5.0010    1.3600    1.7790 C.2     1  UNL1        0.0000
     11  C          5.1180    2.3810   -0.3710 C.2     1  UNL1        0.0000
     12  C          4.6800    2.4160    0.9530 C.2     1  UNL1        0.0000
@<TRIPOS>BOND
     1     9    11    1
     2     9     7    2
     3     6     7    1
     4     6     1    1
     5    11    12    2
     6     7     8    1
     7     1     2    1
     8     3     2    2
     9     2     4    1
    10    12    10    1
    11     5     4    1
    12     8    10    2
