@<TRIPOS>MOLECULE
/home/cewinharhar/GITHUB/reincatalyze/data/processed/docking_pred/2023-Apr-25-2140_maxeplen10_maxtrainstep200_exh16_gamma099_lrac3e-4_lrcr1e-3/141be626e2cd6ba8f6b8a46d6dbef4dd02701a2b_ligand_2.pdbqt
 12 12 0 0 0
SMALL
GASTEIGER

@<TRIPOS>ATOM
      1  C          5.0320    1.8440    0.7130 C.3     1  UNL1        0.1270
      2  C          4.5930    1.1720    1.9630 C.2     1  UNL1        0.3030
      3  O          5.2000    0.2050    2.4900 O.2     1  UNL1       -0.2520
      4  O          3.4480    1.6250    2.6020 O.3     1  UNL1       -0.4810
      5  H          3.5820    2.3740    3.2840 H       1  UNL1        0.2960
      6  C          6.5310    1.8860    0.6680 C.3     1  UNL1        0.0470
      7  C          7.1280    1.0590   -0.3780 C.2     1  UNL1       -0.0470
      8  C          6.4340    0.1140   -1.0940 C.2     1  UNL1        0.0040
      9  C          8.4590    1.2220   -0.6730 C.2     1  UNL1        0.0040
     10  C          7.0120   -0.6560   -2.0750 C.2     1  UNL1        0.0000
     11  C          9.0690    0.4670   -1.6480 C.2     1  UNL1        0.0000
     12  C          8.3480   -0.4860   -2.3650 C.2     1  UNL1        0.0000
@<TRIPOS>BOND
     1    12    10    2
     2    12    11    1
     3    10     8    1
     4    11     9    2
     5     8     7    2
     6     9     7    1
     7     7     6    1
     8     6     1    1
     9     1     2    1
    10     2     3    2
    11     2     4    1
    12     4     5    1
