@<TRIPOS>MOLECULE
/home/cewinharhar/GITHUB/reincatalyze/data/processed/docking_pred/2023-Apr-25-2140_maxeplen10_maxtrainstep200_exh16_gamma099_lrac3e-4_lrcr1e-3/141be626e2cd6ba8f6b8a46d6dbef4dd02701a2b_ligand_2.pdbqt
 12 12 0 0 0
SMALL
GASTEIGER

@<TRIPOS>ATOM
      1  C          7.1660   -1.1810   -2.0550 C.3     1  UNL1        0.1270
      2  C          8.6230   -1.2610   -2.3380 C.2     1  UNL1        0.3030
      3  O          9.4540   -0.3840   -1.9900 O.2     1  UNL1       -0.2520
      4  O          9.1130   -2.3610   -3.0250 O.3     1  UNL1       -0.4810
      5  H          9.1150   -2.2880   -4.0450 H       1  UNL1        0.2960
      6  C          6.7690    0.2560   -1.8830 C.3     1  UNL1        0.0470
      7  C          6.1660    0.5650   -0.5880 C.2     1  UNL1       -0.0470
      8  C          5.4690    1.7190   -0.3250 C.2     1  UNL1        0.0040
      9  C          6.2940   -0.3410    0.4350 C.2     1  UNL1        0.0040
     10  C          4.9080    1.9930    0.8990 C.2     1  UNL1        0.0000
     11  C          5.7460   -0.0980    1.6740 C.2     1  UNL1        0.0000
     12  C          5.0410    1.0790    1.9220 C.2     1  UNL1        0.0000
@<TRIPOS>BOND
     1     5     4    1
     2     4     2    1
     3     2     1    1
     4     2     3    2
     5     1     6    1
     6     6     7    1
     7     7     8    2
     8     7     9    1
     9     8    10    1
    10     9    11    2
    11    10    12    2
    12    11    12    1
