@<TRIPOS>MOLECULE
/home/cewinharhar/GITHUB/reincatalyze/data/processed/docking_pred/2023-Apr-25-2140_maxeplen10_maxtrainstep200_exh16_gamma099_lrac3e-4_lrcr1e-3/141be626e2cd6ba8f6b8a46d6dbef4dd02701a2b_ligand_2.pdbqt
 12 12 0 0 0
SMALL
GASTEIGER

@<TRIPOS>ATOM
      1  C          7.2030   -1.1700   -2.0740 C.3     1  UNL1        0.1270
      2  C          8.6550   -1.2340   -2.3860 C.2     1  UNL1        0.3030
      3  O          9.1910   -2.1640   -3.0410 O.2     1  UNL1       -0.2520
      4  O          9.4830   -0.2150   -1.9380 O.3     1  UNL1       -0.4810
      5  H         10.2000    0.1010   -2.5940 H       1  UNL1        0.2960
      6  C          6.8010    0.2600   -1.8590 C.3     1  UNL1        0.0470
      7  C          6.2010    0.5290   -0.5550 C.2     1  UNL1       -0.0470
      8  C          6.2820   -0.3280    0.5150 C.2     1  UNL1        0.0040
      9  C          5.5110    1.7020   -0.3720 C.2     1  UNL1        0.0040
     10  C          5.7110   -0.0590    1.7360 C.2     1  UNL1        0.0000
     11  C          4.9260    2.0030    0.8360 C.2     1  UNL1        0.0000
     12  C          5.0200    1.1210    1.9120 C.2     1  UNL1        0.0000
@<TRIPOS>BOND
     1     3     2    2
     2     5     4    1
     3     2     1    1
     4     2     4    1
     5     1     6    1
     6     6     7    1
     7     7     9    2
     8     7     8    1
     9     9    11    1
    10     8    10    2
    11    11    12    2
    12    10    12    1
