MODEL 1
REMARK VINA RESULT:      -6.9      0.000      0.000
REMARK SMILES O=C(O)CCc1ccccc1
REMARK SMILES IDX 4 1 2 2 1 3 3 4 5 6 6 7 7 8 11 9 8 10 10 11 9 12
REMARK H PARENT 3 5
REMARK Flexibility Score: inf
ROOT
ATOM      1  C   UNL     1       7.203  -1.170  -2.074  1.00  0.00     0.127 C 
ENDROOT
BRANCH   1   2
ATOM      2  C   UNL     1       8.655  -1.234  -2.386  1.00  0.00     0.303 C 
ATOM      3  O   UNL     1       9.191  -2.164  -3.041  1.00  0.00    -0.252 OA
BRANCH   2   4
ATOM      4  O   UNL     1       9.483  -0.215  -1.938  1.00  0.00    -0.481 OA
ATOM      5  H   UNL     1      10.200   0.101  -2.594  1.00  0.00     0.296 HD
ENDBRANCH   2   4
ENDBRANCH   1   2
BRANCH   1   6
ATOM      6  C   UNL     1       6.801   0.260  -1.859  1.00  0.00     0.047 C 
BRANCH   6   7
ATOM      7  C   UNL     1       6.201   0.529  -0.555  1.00  0.00    -0.047 A 
ATOM      8  C   UNL     1       6.282  -0.328   0.515  1.00  0.00     0.004 A 
ATOM      9  C   UNL     1       5.511   1.702  -0.372  1.00  0.00     0.004 A 
ATOM     10  C   UNL     1       5.711  -0.059   1.736  1.00  0.00     0.000 A 
ATOM     11  C   UNL     1       4.926   2.003   0.836  1.00  0.00     0.000 A 
ATOM     12  C   UNL     1       5.020   1.121   1.912  1.00  0.00     0.000 A 
ENDBRANCH   6   7
ENDBRANCH   1   6
TORSDOF 4
ENDMDL
MODEL 2
REMARK VINA RESULT:      -6.9      3.195      4.969
REMARK SMILES O=C(O)CCc1ccccc1
REMARK SMILES IDX 4 1 2 2 1 3 3 4 5 6 6 7 7 8 11 9 8 10 10 11 9 12
REMARK H PARENT 3 5
REMARK Flexibility Score: inf
ROOT
ATOM      1  C   UNL     1       5.032   1.844   0.713  1.00  0.00     0.127 C 
ENDROOT
BRANCH   1   2
ATOM      2  C   UNL     1       4.593   1.172   1.963  1.00  0.00     0.303 C 
ATOM      3  O   UNL     1       5.200   0.205   2.490  1.00  0.00    -0.252 OA
BRANCH   2   4
ATOM      4  O   UNL     1       3.448   1.625   2.602  1.00  0.00    -0.481 OA
ATOM      5  H   UNL     1       3.582   2.374   3.284  1.00  0.00     0.296 HD
ENDBRANCH   2   4
ENDBRANCH   1   2
BRANCH   1   6
ATOM      6  C   UNL     1       6.531   1.886   0.668  1.00  0.00     0.047 C 
BRANCH   6   7
ATOM      7  C   UNL     1       7.128   1.059  -0.378  1.00  0.00    -0.047 A 
ATOM      8  C   UNL     1       6.434   0.114  -1.094  1.00  0.00     0.004 A 
ATOM      9  C   UNL     1       8.459   1.222  -0.673  1.00  0.00     0.004 A 
ATOM     10  C   UNL     1       7.012  -0.656  -2.075  1.00  0.00     0.000 A 
ATOM     11  C   UNL     1       9.069   0.467  -1.648  1.00  0.00     0.000 A 
ATOM     12  C   UNL     1       8.348  -0.486  -2.365  1.00  0.00     0.000 A 
ENDBRANCH   6   7
ENDBRANCH   1   6
TORSDOF 4
ENDMDL
MODEL 3
REMARK VINA RESULT:      -6.8      0.101      1.722
REMARK SMILES O=C(O)CCc1ccccc1
REMARK SMILES IDX 4 1 2 2 1 3 3 4 5 6 6 7 7 8 11 9 8 10 10 11 9 12
REMARK H PARENT 3 5
REMARK Flexibility Score: inf
ROOT
ATOM      1  C   UNL     1       7.166  -1.181  -2.055  1.00  0.00     0.127 C 
ENDROOT
BRANCH   1   2
ATOM      2  C   UNL     1       8.623  -1.261  -2.338  1.00  0.00     0.303 C 
ATOM      3  O   UNL     1       9.454  -0.384  -1.990  1.00  0.00    -0.252 OA
BRANCH   2   4
ATOM      4  O   UNL     1       9.113  -2.361  -3.025  1.00  0.00    -0.481 OA
ATOM      5  H   UNL     1       9.115  -2.288  -4.045  1.00  0.00     0.296 HD
ENDBRANCH   2   4
ENDBRANCH   1   2
BRANCH   1   6
ATOM      6  C   UNL     1       6.769   0.256  -1.883  1.00  0.00     0.047 C 
BRANCH   6   7
ATOM      7  C   UNL     1       6.166   0.565  -0.588  1.00  0.00    -0.047 A 
ATOM      8  C   UNL     1       5.469   1.719  -0.325  1.00  0.00     0.004 A 
ATOM      9  C   UNL     1       6.294  -0.341   0.435  1.00  0.00     0.004 A 
ATOM     10  C   UNL     1       4.908   1.993   0.899  1.00  0.00     0.000 A 
ATOM     11  C   UNL     1       5.746  -0.098   1.674  1.00  0.00     0.000 A 
ATOM     12  C   UNL     1       5.041   1.079   1.922  1.00  0.00     0.000 A 
ENDBRANCH   6   7
ENDBRANCH   1   6
TORSDOF 4
ENDMDL
MODEL 4
REMARK VINA RESULT:      -6.8      1.356      1.472
REMARK SMILES O=C(O)CCc1ccccc1
REMARK SMILES IDX 4 1 2 2 1 3 3 4 5 6 6 7 7 8 11 9 8 10 10 11 9 12
REMARK H PARENT 3 5
REMARK Flexibility Score: inf
ROOT
ATOM      1  C   UNL     1       8.089   0.276  -2.025  1.00  0.00     0.127 C 
ENDROOT
BRANCH   1   2
ATOM      2  C   UNL     1       9.278   0.313  -1.135  1.00  0.00     0.303 C 
ATOM      3  O   UNL     1       9.431  -0.438  -0.138  1.00  0.00    -0.252 OA
BRANCH   2   4
ATOM      4  O   UNL     1      10.290   1.222  -1.404  1.00  0.00    -0.481 OA
ATOM      5  H   UNL     1      10.015   2.057  -1.926  1.00  0.00     0.296 HD
ENDBRANCH   2   4
ENDBRANCH   1   2
BRANCH   1   6
ATOM      6  C   UNL     1       7.013  -0.553  -1.388  1.00  0.00     0.047 C 
BRANCH   6   7
ATOM      7  C   UNL     1       6.295   0.118  -0.307  1.00  0.00    -0.047 A 
ATOM      8  C   UNL     1       6.111  -0.425   0.941  1.00  0.00     0.004 A 
ATOM      9  C   UNL     1       5.765   1.363  -0.536  1.00  0.00     0.004 A 
ATOM     10  C   UNL     1       5.433   0.220   1.947  1.00  0.00     0.000 A 
ATOM     11  C   UNL     1       5.079   2.037   0.448  1.00  0.00     0.000 A 
ATOM     12  C   UNL     1       4.904   1.470   1.709  1.00  0.00     0.000 A 
ENDBRANCH   6   7
ENDBRANCH   1   6
TORSDOF 4
ENDMDL
MODEL 5
REMARK VINA RESULT:      -6.6      2.289      2.546
REMARK SMILES O=C(O)CCc1ccccc1
REMARK SMILES IDX 4 1 2 2 1 3 3 4 5 6 6 7 7 8 11 9 8 10 10 11 9 12
REMARK H PARENT 3 5
REMARK Flexibility Score: inf
ROOT
ATOM      1  C   UNL     1       8.203  -1.166   0.201  1.00  0.00     0.127 C 
ENDROOT
BRANCH   1   2
ATOM      2  C   UNL     1       8.069  -2.516   0.809  1.00  0.00     0.303 C 
ATOM      3  O   UNL     1       8.933  -3.423   0.702  1.00  0.00    -0.252 OA
BRANCH   2   4
ATOM      4  O   UNL     1       6.930  -2.810   1.544  1.00  0.00    -0.481 OA
ATOM      5  H   UNL     1       6.431  -3.661   1.275  1.00  0.00     0.296 HD
ENDBRANCH   2   4
ENDBRANCH   1   2
BRANCH   1   6
ATOM      6  C   UNL     1       6.960  -0.841  -0.573  1.00  0.00     0.047 C 
BRANCH   6   7
ATOM      7  C   UNL     1       6.177   0.263  -0.022  1.00  0.00    -0.047 A 
ATOM      8  C   UNL     1       5.737   0.314   1.277  1.00  0.00     0.004 A 
ATOM      9  C   UNL     1       5.854   1.317  -0.839  1.00  0.00     0.004 A 
ATOM     10  C   UNL     1       5.001   1.360   1.779  1.00  0.00     0.000 A 
ATOM     11  C   UNL     1       5.118   2.381  -0.371  1.00  0.00     0.000 A 
ATOM     12  C   UNL     1       4.680   2.416   0.953  1.00  0.00     0.000 A 
ENDBRANCH   6   7
ENDBRANCH   1   6
TORSDOF 4
ENDMDL
