@<TRIPOS>MOLECULE
/home/cewinharhar/GITHUB/reincatalyze/data/processed/docking_pred/2023-Apr-25-2140_maxeplen10_maxtrainstep200_exh16_gamma099_lrac3e-4_lrcr1e-3/1444e75be78da7e2931ed2b5f85ad252461f0798_ligand_2.pdbqt
 12 12 0 0 0
SMALL
GASTEIGER

@<TRIPOS>ATOM
      1  C          4.9500    1.7730    0.6640 C.3     1  UNL1        0.1270
      2  C          4.4810    1.0830    1.8940 C.2     1  UNL1        0.3030
      3  O          5.1230    0.1700    2.4740 O.2     1  UNL1       -0.2520
      4  O          3.2670    1.4560    2.4500 O.3     1  UNL1       -0.4810
      5  H          2.8980    2.3630    2.1550 H       1  UNL1        0.2960
      6  C          6.4480    1.8690    0.6850 C.3     1  UNL1        0.0470
      7  C          7.1180    1.0820   -0.3470 C.2     1  UNL1       -0.0470
      8  C          8.4500    1.2040   -0.6570 C.2     1  UNL1        0.0040
      9  C          6.3870    0.1640   -1.0600 C.2     1  UNL1        0.0040
     10  C          9.0650    0.4550   -1.6320 C.2     1  UNL1        0.0000
     11  C          6.9690   -0.6020   -2.0430 C.2     1  UNL1        0.0000
     12  C          8.3240   -0.4640   -2.3430 C.2     1  UNL1        0.0000
@<TRIPOS>BOND
     1    12    11    2
     2    12    10    1
     3    11     9    1
     4    10     8    2
     5     9     7    2
     6     8     7    1
     7     7     6    1
     8     1     6    1
     9     1     2    1
    10     2     4    1
    11     2     3    2
    12     5     4    1
