@<TRIPOS>MOLECULE
/home/cewinharhar/GITHUB/reincatalyze/data/processed/docking_pred/2023-Apr-25-2140_maxeplen10_maxtrainstep200_exh16_gamma099_lrac3e-4_lrcr1e-3/1444e75be78da7e2931ed2b5f85ad252461f0798_ligand_2.pdbqt
 12 12 0 0 0
SMALL
GASTEIGER

@<TRIPOS>ATOM
      1  C          8.4700   -0.6110   -2.1510 C.3     1  UNL1        0.1270
      2  C          8.5210   -1.8980   -2.8910 C.2     1  UNL1        0.3030
      3  O          9.5720   -2.5650   -3.0670 O.2     1  UNL1       -0.2520
      4  O          7.3490   -2.4110   -3.4260 O.3     1  UNL1       -0.4810
      5  H          7.4190   -2.8000   -4.3690 H       1  UNL1        0.2960
      6  C          7.0580   -0.1010   -2.1320 C.3     1  UNL1        0.0470
      7  C          6.4760    0.0150   -0.7980 C.2     1  UNL1       -0.0470
      8  C          6.5280   -0.9800    0.1480 C.2     1  UNL1        0.0040
      9  C          5.8340    1.1790   -0.4540 C.2     1  UNL1        0.0040
     10  C          5.9740   -0.8540    1.4000 C.2     1  UNL1        0.0000
     11  C          5.2670    1.3380    0.7900 C.2     1  UNL1        0.0000
     12  C          5.3310    0.3170    1.7370 C.2     1  UNL1        0.0000
@<TRIPOS>BOND
     1     5     4    1
     2     4     2    1
     3     3     2    2
     4     2     1    1
     5     1     6    1
     6     6     7    1
     7     7     9    2
     8     7     8    1
     9     9    11    1
    10     8    10    2
    11    11    12    2
    12    10    12    1
