@<TRIPOS>MOLECULE
/home/cewinharhar/GITHUB/reincatalyze/data/processed/docking_pred/2023-Apr-25-2140_maxeplen10_maxtrainstep200_exh16_gamma099_lrac3e-4_lrcr1e-3/1444e75be78da7e2931ed2b5f85ad252461f0798_ligand_2.pdbqt
 12 12 0 0 0
SMALL
GASTEIGER

@<TRIPOS>ATOM
      1  C          8.1950    0.2780   -2.1490 C.3     1  UNL1        0.1270
      2  C          9.3440    0.3530   -1.2110 C.2     1  UNL1        0.3030
      3  O          9.4720   -0.3800   -0.1970 O.2     1  UNL1       -0.2520
      4  O         10.3470    1.2810   -1.4520 O.3     1  UNL1       -0.4810
      5  H         11.0820    0.9880   -2.1000 H       1  UNL1        0.2960
      6  C          7.1020   -0.5480   -1.5360 C.3     1  UNL1        0.0470
      7  C          6.3200    0.1470   -0.5160 C.2     1  UNL1       -0.0470
      8  C          5.7740    1.3950   -0.6910 C.2     1  UNL1        0.0040
      9  C          6.1100   -0.4690    0.6920 C.2     1  UNL1        0.0040
     10  C          5.0400    2.0350    0.2790 C.2     1  UNL1        0.0000
     11  C          5.3810    0.1430    1.6860 C.2     1  UNL1        0.0000
     12  C          4.8340    1.4100    1.4900 C.2     1  UNL1        0.0000
@<TRIPOS>BOND
     1     1     6    1
     2     1     2    1
     3     5     4    1
     4     6     7    1
     5     4     2    1
     6     2     3    2
     7     8     7    2
     8     8    10    1
     9     7     9    1
    10    10    12    2
    11     9    11    2
    12    12    11    1
