@<TRIPOS>MOLECULE
/home/cewinharhar/GITHUB/reincatalyze/data/processed/docking_pred/2023-Apr-25-2140_maxeplen10_maxtrainstep200_exh16_gamma099_lrac3e-4_lrcr1e-3/1444e75be78da7e2931ed2b5f85ad252461f0798_ligand_2.pdbqt
 12 12 0 0 0
SMALL
GASTEIGER

@<TRIPOS>ATOM
      1  C          8.0250   -2.2930    0.7850 C.3     1  UNL1        0.1270
      2  C          8.8120   -3.4420    0.2660 C.2     1  UNL1        0.3030
      3  O          8.7440   -3.8620   -0.9170 O.2     1  UNL1       -0.2520
      4  O          9.6800   -4.1020    1.1230 O.3     1  UNL1       -0.4810
      5  H          9.2510   -4.5580    1.9320 H       1  UNL1        0.2960
      6  C          7.3510   -1.5930   -0.3580 C.3     1  UNL1        0.0470
      7  C          6.5240   -0.4540    0.0350 C.2     1  UNL1       -0.0470
      8  C          6.3020    0.6410   -0.7630 C.2     1  UNL1        0.0040
      9  C          5.9270   -0.4650    1.2710 C.2     1  UNL1        0.0040
     10  C          5.5210    1.7040   -0.3770 C.2     1  UNL1        0.0000
     11  C          5.1390    0.5830    1.6900 C.2     1  UNL1        0.0000
     12  C          4.9250    1.6860    0.8660 C.2     1  UNL1        0.0000
@<TRIPOS>BOND
     1     3     2    2
     2     8    10    1
     3     8     7    2
     4    10    12    2
     5     6     7    1
     6     6     1    1
     7     7     9    1
     8     2     1    1
     9     2     4    1
    10    12    11    1
    11     4     5    1
    12     9    11    2
