MODEL 1
REMARK VINA RESULT:      -7.3      0.000      0.000
REMARK SMILES O=C(O)CCc1ccccc1
REMARK SMILES IDX 4 1 2 2 1 3 3 4 5 6 6 7 7 8 11 9 8 10 10 11 9 12
REMARK H PARENT 3 5
REMARK Flexibility Score: inf
ROOT
ATOM      1  C   UNL     1       8.470  -0.611  -2.151  1.00  0.00     0.127 C 
ENDROOT
BRANCH   1   2
ATOM      2  C   UNL     1       8.521  -1.898  -2.891  1.00  0.00     0.303 C 
ATOM      3  O   UNL     1       9.572  -2.565  -3.067  1.00  0.00    -0.252 OA
BRANCH   2   4
ATOM      4  O   UNL     1       7.349  -2.411  -3.426  1.00  0.00    -0.481 OA
ATOM      5  H   UNL     1       7.419  -2.800  -4.369  1.00  0.00     0.296 HD
ENDBRANCH   2   4
ENDBRANCH   1   2
BRANCH   1   6
ATOM      6  C   UNL     1       7.058  -0.101  -2.132  1.00  0.00     0.047 C 
BRANCH   6   7
ATOM      7  C   UNL     1       6.476   0.015  -0.798  1.00  0.00    -0.047 A 
ATOM      8  C   UNL     1       6.528  -0.980   0.148  1.00  0.00     0.004 A 
ATOM      9  C   UNL     1       5.834   1.179  -0.454  1.00  0.00     0.004 A 
ATOM     10  C   UNL     1       5.974  -0.854   1.400  1.00  0.00     0.000 A 
ATOM     11  C   UNL     1       5.267   1.338   0.790  1.00  0.00     0.000 A 
ATOM     12  C   UNL     1       5.331   0.317   1.737  1.00  0.00     0.000 A 
ENDBRANCH   6   7
ENDBRANCH   1   6
TORSDOF 4
ENDMDL
MODEL 2
REMARK VINA RESULT:      -7.3      0.070      1.426
REMARK SMILES O=C(O)CCc1ccccc1
REMARK SMILES IDX 4 1 2 2 1 3 3 4 5 6 6 7 7 8 11 9 8 10 10 11 9 12
REMARK H PARENT 3 5
REMARK Flexibility Score: inf
ROOT
ATOM      1  C   UNL     1       8.472  -0.624  -2.118  1.00  0.00     0.127 C 
ENDROOT
BRANCH   1   2
ATOM      2  C   UNL     1       8.525  -1.900  -2.879  1.00  0.00     0.303 C 
ATOM      3  O   UNL     1       9.583  -2.543  -3.096  1.00  0.00    -0.252 OA
BRANCH   2   4
ATOM      4  O   UNL     1       7.347  -2.427  -3.387  1.00  0.00    -0.481 OA
ATOM      5  H   UNL     1       7.251  -2.410  -4.405  1.00  0.00     0.296 HD
ENDBRANCH   2   4
ENDBRANCH   1   2
BRANCH   1   6
ATOM      6  C   UNL     1       7.066  -0.099  -2.122  1.00  0.00     0.047 C 
BRANCH   6   7
ATOM      7  C   UNL     1       6.469   0.039  -0.796  1.00  0.00    -0.047 A 
ATOM      8  C   UNL     1       5.803   1.162  -0.370  1.00  0.00     0.004 A 
ATOM      9  C   UNL     1       6.573  -1.006   0.089  1.00  0.00     0.004 A 
ATOM     10  C   UNL     1       5.247   1.274   0.882  1.00  0.00     0.000 A 
ATOM     11  C   UNL     1       6.029  -0.927   1.350  1.00  0.00     0.000 A 
ATOM     12  C   UNL     1       5.355   0.221   1.764  1.00  0.00     0.000 A 
ENDBRANCH   6   7
ENDBRANCH   1   6
TORSDOF 4
ENDMDL
MODEL 3
REMARK VINA RESULT:      -6.9      3.372      5.084
REMARK SMILES O=C(O)CCc1ccccc1
REMARK SMILES IDX 4 1 2 2 1 3 3 4 5 6 6 7 7 8 11 9 8 10 10 11 9 12
REMARK H PARENT 3 5
REMARK Flexibility Score: inf
ROOT
ATOM      1  C   UNL     1       4.950   1.773   0.664  1.00  0.00     0.127 C 
ENDROOT
BRANCH   1   2
ATOM      2  C   UNL     1       4.481   1.083   1.894  1.00  0.00     0.303 C 
ATOM      3  O   UNL     1       5.123   0.170   2.474  1.00  0.00    -0.252 OA
BRANCH   2   4
ATOM      4  O   UNL     1       3.267   1.456   2.450  1.00  0.00    -0.481 OA
ATOM      5  H   UNL     1       2.898   2.363   2.155  1.00  0.00     0.296 HD
ENDBRANCH   2   4
ENDBRANCH   1   2
BRANCH   1   6
ATOM      6  C   UNL     1       6.448   1.869   0.685  1.00  0.00     0.047 C 
BRANCH   6   7
ATOM      7  C   UNL     1       7.118   1.082  -0.347  1.00  0.00    -0.047 A 
ATOM      8  C   UNL     1       8.450   1.204  -0.657  1.00  0.00     0.004 A 
ATOM      9  C   UNL     1       6.387   0.164  -1.060  1.00  0.00     0.004 A 
ATOM     10  C   UNL     1       9.065   0.455  -1.632  1.00  0.00     0.000 A 
ATOM     11  C   UNL     1       6.969  -0.602  -2.043  1.00  0.00     0.000 A 
ATOM     12  C   UNL     1       8.324  -0.464  -2.343  1.00  0.00     0.000 A 
ENDBRANCH   6   7
ENDBRANCH   1   6
TORSDOF 4
ENDMDL
MODEL 4
REMARK VINA RESULT:      -6.6      1.936      2.609
REMARK SMILES O=C(O)CCc1ccccc1
REMARK SMILES IDX 4 1 2 2 1 3 3 4 5 6 6 7 7 8 11 9 8 10 10 11 9 12
REMARK H PARENT 3 5
REMARK Flexibility Score: inf
ROOT
ATOM      1  C   UNL     1       8.195   0.278  -2.149  1.00  0.00     0.127 C 
ENDROOT
BRANCH   1   2
ATOM      2  C   UNL     1       9.344   0.353  -1.211  1.00  0.00     0.303 C 
ATOM      3  O   UNL     1       9.472  -0.380  -0.197  1.00  0.00    -0.252 OA
BRANCH   2   4
ATOM      4  O   UNL     1      10.347   1.281  -1.452  1.00  0.00    -0.481 OA
ATOM      5  H   UNL     1      11.082   0.988  -2.100  1.00  0.00     0.296 HD
ENDBRANCH   2   4
ENDBRANCH   1   2
BRANCH   1   6
ATOM      6  C   UNL     1       7.102  -0.548  -1.536  1.00  0.00     0.047 C 
BRANCH   6   7
ATOM      7  C   UNL     1       6.320   0.147  -0.516  1.00  0.00    -0.047 A 
ATOM      8  C   UNL     1       5.774   1.395  -0.691  1.00  0.00     0.004 A 
ATOM      9  C   UNL     1       6.110  -0.469   0.692  1.00  0.00     0.004 A 
ATOM     10  C   UNL     1       5.040   2.035   0.279  1.00  0.00     0.000 A 
ATOM     11  C   UNL     1       5.381   0.143   1.686  1.00  0.00     0.000 A 
ATOM     12  C   UNL     1       4.834   1.410   1.490  1.00  0.00     0.000 A 
ENDBRANCH   6   7
ENDBRANCH   1   6
TORSDOF 4
ENDMDL
MODEL 5
REMARK VINA RESULT:      -6.4      2.034      2.856
REMARK SMILES O=C(O)CCc1ccccc1
REMARK SMILES IDX 4 1 2 2 1 3 3 4 5 6 6 7 7 8 11 9 8 10 10 11 9 12
REMARK H PARENT 3 5
REMARK Flexibility Score: inf
ROOT
ATOM      1  C   UNL     1       8.025  -2.293   0.785  1.00  0.00     0.127 C 
ENDROOT
BRANCH   1   2
ATOM      2  C   UNL     1       8.812  -3.442   0.266  1.00  0.00     0.303 C 
ATOM      3  O   UNL     1       8.744  -3.862  -0.917  1.00  0.00    -0.252 OA
BRANCH   2   4
ATOM      4  O   UNL     1       9.680  -4.102   1.123  1.00  0.00    -0.481 OA
ATOM      5  H   UNL     1       9.251  -4.558   1.932  1.00  0.00     0.296 HD
ENDBRANCH   2   4
ENDBRANCH   1   2
BRANCH   1   6
ATOM      6  C   UNL     1       7.351  -1.593  -0.358  1.00  0.00     0.047 C 
BRANCH   6   7
ATOM      7  C   UNL     1       6.524  -0.454   0.035  1.00  0.00    -0.047 A 
ATOM      8  C   UNL     1       6.302   0.641  -0.763  1.00  0.00     0.004 A 
ATOM      9  C   UNL     1       5.927  -0.465   1.271  1.00  0.00     0.004 A 
ATOM     10  C   UNL     1       5.521   1.704  -0.377  1.00  0.00     0.000 A 
ATOM     11  C   UNL     1       5.139   0.583   1.690  1.00  0.00     0.000 A 
ATOM     12  C   UNL     1       4.925   1.686   0.866  1.00  0.00     0.000 A 
ENDBRANCH   6   7
ENDBRANCH   1   6
TORSDOF 4
ENDMDL
