@<TRIPOS>MOLECULE
/home/cewinharhar/GITHUB/reincatalyze/data/processed/docking_pred/2023-Apr-25-2140_maxeplen10_maxtrainstep200_exh16_gamma099_lrac3e-4_lrcr1e-3/1444e75be78da7e2931ed2b5f85ad252461f0798_ligand_2.pdbqt
 12 12 0 0 0
SMALL
GASTEIGER

@<TRIPOS>ATOM
      1  C          8.4720   -0.6240   -2.1180 C.3     1  UNL1        0.1270
      2  C          8.5250   -1.9000   -2.8790 C.2     1  UNL1        0.3030
      3  O          9.5830   -2.5430   -3.0960 O.2     1  UNL1       -0.2520
      4  O          7.3470   -2.4270   -3.3870 O.3     1  UNL1       -0.4810
      5  H          7.2510   -2.4100   -4.4050 H       1  UNL1        0.2960
      6  C          7.0660   -0.0990   -2.1220 C.3     1  UNL1        0.0470
      7  C          6.4690    0.0390   -0.7960 C.2     1  UNL1       -0.0470
      8  C          5.8030    1.1620   -0.3700 C.2     1  UNL1        0.0040
      9  C          6.5730   -1.0060    0.0890 C.2     1  UNL1        0.0040
     10  C          5.2470    1.2740    0.8820 C.2     1  UNL1        0.0000
     11  C          6.0290   -0.9270    1.3500 C.2     1  UNL1        0.0000
     12  C          5.3550    0.2210    1.7640 C.2     1  UNL1        0.0000
@<TRIPOS>BOND
     1     5     4    1
     2     4     2    1
     3     3     2    2
     4     2     1    1
     5     6     1    1
     6     6     7    1
     7     7     8    2
     8     7     9    1
     9     8    10    1
    10     9    11    2
    11    10    12    2
    12    11    12    1
