MODEL 1
REMARK VINA RESULT:      -7.3      0.000      0.000
REMARK SMILES O=C(O)CCc1ccccc1
REMARK SMILES IDX 4 1 2 2 1 3 3 4 5 6 6 7 7 8 11 9 8 10 10 11 9 12
REMARK H PARENT 3 5
REMARK Flexibility Score: inf
ROOT
ATOM      1  C   UNL     1       8.472  -0.595  -2.174  1.00  0.00     0.127 C 
ENDROOT
BRANCH   1   2
ATOM      2  C   UNL     1       8.524  -1.892  -2.897  1.00  0.00     0.303 C 
ATOM      3  O   UNL     1       9.581  -2.546  -3.090  1.00  0.00    -0.252 OA
BRANCH   2   4
ATOM      4  O   UNL     1       7.347  -2.431  -3.394  1.00  0.00    -0.481 OA
ATOM      5  H   UNL     1       6.819  -3.025  -2.752  1.00  0.00     0.296 HD
ENDBRANCH   2   4
ENDBRANCH   1   2
BRANCH   1   6
ATOM      6  C   UNL     1       7.054  -0.106  -2.127  1.00  0.00     0.047 C 
BRANCH   6   7
ATOM      7  C   UNL     1       6.505   0.027  -0.780  1.00  0.00    -0.047 A 
ATOM      8  C   UNL     1       6.579  -0.956   0.176  1.00  0.00     0.004 A 
ATOM      9  C   UNL     1       5.874   1.196  -0.434  1.00  0.00     0.004 A 
ATOM     10  C   UNL     1       6.057  -0.815   1.440  1.00  0.00     0.000 A 
ATOM     11  C   UNL     1       5.339   1.372   0.822  1.00  0.00     0.000 A 
ATOM     12  C   UNL     1       5.425   0.362   1.779  1.00  0.00     0.000 A 
ENDBRANCH   6   7
ENDBRANCH   1   6
TORSDOF 4
ENDMDL
MODEL 2
REMARK VINA RESULT:      -7.2      0.134      1.722
REMARK SMILES O=C(O)CCc1ccccc1
REMARK SMILES IDX 4 1 2 2 1 3 3 4 5 6 6 7 7 8 11 9 8 10 10 11 9 12
REMARK H PARENT 3 5
REMARK Flexibility Score: inf
ROOT
ATOM      1  C   UNL     1       8.436  -0.647  -2.087  1.00  0.00     0.127 C 
ENDROOT
BRANCH   1   2
ATOM      2  C   UNL     1       8.367  -1.894  -2.893  1.00  0.00     0.303 C 
ATOM      3  O   UNL     1       7.293  -2.431  -3.264  1.00  0.00    -0.252 OA
BRANCH   2   4
ATOM      4  O   UNL     1       9.549  -2.516  -3.267  1.00  0.00    -0.481 OA
ATOM      5  H   UNL     1      10.279  -1.905  -3.640  1.00  0.00     0.296 HD
ENDBRANCH   2   4
ENDBRANCH   1   2
BRANCH   1   6
ATOM      6  C   UNL     1       7.094   0.025  -2.093  1.00  0.00     0.047 C 
BRANCH   6   7
ATOM      7  C   UNL     1       6.490   0.179  -0.772  1.00  0.00    -0.047 A 
ATOM      8  C   UNL     1       5.791   1.292  -0.375  1.00  0.00     0.004 A 
ATOM      9  C   UNL     1       6.621  -0.841   0.139  1.00  0.00     0.004 A 
ATOM     10  C   UNL     1       5.228   1.420   0.872  1.00  0.00     0.000 A 
ATOM     11  C   UNL     1       6.072  -0.746   1.397  1.00  0.00     0.000 A 
ATOM     12  C   UNL     1       5.364   0.392   1.781  1.00  0.00     0.000 A 
ENDBRANCH   6   7
ENDBRANCH   1   6
TORSDOF 4
ENDMDL
MODEL 3
REMARK VINA RESULT:      -6.8      3.370      5.086
REMARK SMILES O=C(O)CCc1ccccc1
REMARK SMILES IDX 4 1 2 2 1 3 3 4 5 6 6 7 7 8 11 9 8 10 10 11 9 12
REMARK H PARENT 3 5
REMARK Flexibility Score: inf
ROOT
ATOM      1  C   UNL     1       4.985   1.825   0.697  1.00  0.00     0.127 C 
ENDROOT
BRANCH   1   2
ATOM      2  C   UNL     1       4.504   1.112   1.909  1.00  0.00     0.303 C 
ATOM      3  O   UNL     1       5.148   0.201   2.488  1.00  0.00    -0.252 OA
BRANCH   2   4
ATOM      4  O   UNL     1       3.275   1.460   2.448  1.00  0.00    -0.481 OA
ATOM      5  H   UNL     1       2.648   0.684   2.673  1.00  0.00     0.296 HD
ENDBRANCH   2   4
ENDBRANCH   1   2
BRANCH   1   6
ATOM      6  C   UNL     1       6.484   1.898   0.722  1.00  0.00     0.047 C 
BRANCH   6   7
ATOM      7  C   UNL     1       7.143   1.138  -0.338  1.00  0.00    -0.047 A 
ATOM      8  C   UNL     1       8.488   1.208  -0.605  1.00  0.00     0.004 A 
ATOM      9  C   UNL     1       6.387   0.302  -1.121  1.00  0.00     0.004 A 
ATOM     10  C   UNL     1       9.092   0.486  -1.606  1.00  0.00     0.000 A 
ATOM     11  C   UNL     1       6.959  -0.435  -2.133  1.00  0.00     0.000 A 
ATOM     12  C   UNL     1       8.326  -0.351  -2.389  1.00  0.00     0.000 A 
ENDBRANCH   6   7
ENDBRANCH   1   6
TORSDOF 4
ENDMDL
MODEL 4
REMARK VINA RESULT:      -6.8      3.359      5.054
REMARK SMILES O=C(O)CCc1ccccc1
REMARK SMILES IDX 4 1 2 2 1 3 3 4 5 6 6 7 7 8 11 9 8 10 10 11 9 12
REMARK H PARENT 3 5
REMARK Flexibility Score: inf
ROOT
ATOM      1  C   UNL     1       5.050   1.801   0.726  1.00  0.00     0.127 C 
ENDROOT
BRANCH   1   2
ATOM      2  C   UNL     1       4.513   1.092   1.916  1.00  0.00     0.303 C 
ATOM      3  O   UNL     1       5.113   0.156   2.504  1.00  0.00    -0.252 OA
BRANCH   2   4
ATOM      4  O   UNL     1       3.280   1.471   2.424  1.00  0.00    -0.481 OA
ATOM      5  H   UNL     1       3.128   2.477   2.527  1.00  0.00     0.296 HD
ENDBRANCH   2   4
ENDBRANCH   1   2
BRANCH   1   6
ATOM      6  C   UNL     1       6.549   1.740   0.741  1.00  0.00     0.047 C 
BRANCH   6   7
ATOM      7  C   UNL     1       7.132   0.952  -0.342  1.00  0.00    -0.047 A 
ATOM      8  C   UNL     1       6.458  -0.035  -1.018  1.00  0.00     0.004 A 
ATOM      9  C   UNL     1       8.429   1.200  -0.718  1.00  0.00     0.004 A 
ATOM     10  C   UNL     1       7.022  -0.768  -2.035  1.00  0.00     0.000 A 
ATOM     11  C   UNL     1       9.025   0.485  -1.731  1.00  0.00     0.000 A 
ATOM     12  C   UNL     1       8.324  -0.513  -2.406  1.00  0.00     0.000 A 
ENDBRANCH   6   7
ENDBRANCH   1   6
TORSDOF 4
ENDMDL
MODEL 5
REMARK VINA RESULT:      -6.6      2.070      2.345
REMARK SMILES O=C(O)CCc1ccccc1
REMARK SMILES IDX 4 1 2 2 1 3 3 4 5 6 6 7 7 8 11 9 8 10 10 11 9 12
REMARK H PARENT 3 5
REMARK Flexibility Score: inf
ROOT
ATOM      1  C   UNL     1       8.498   0.669  -1.710  1.00  0.00     0.127 C 
ENDROOT
BRANCH   1   2
ATOM      2  C   UNL     1       9.623   0.271  -0.824  1.00  0.00     0.303 C 
ATOM      3  O   UNL     1       9.505  -0.516   0.149  1.00  0.00    -0.252 OA
BRANCH   2   4
ATOM      4  O   UNL     1      10.886   0.788  -1.071  1.00  0.00    -0.481 OA
ATOM      5  H   UNL     1      10.990   1.797  -0.946  1.00  0.00     0.296 HD
ENDBRANCH   2   4
ENDBRANCH   1   2
BRANCH   1   6
ATOM      6  C   UNL     1       7.306  -0.197  -1.423  1.00  0.00     0.047 C 
BRANCH   6   7
ATOM      7  C   UNL     1       6.432   0.310  -0.368  1.00  0.00    -0.047 A 
ATOM      8  C   UNL     1       6.183  -0.359   0.805  1.00  0.00     0.004 A 
ATOM      9  C   UNL     1       5.816   1.524  -0.545  1.00  0.00     0.004 A 
ATOM     10  C   UNL     1       5.357   0.133   1.788  1.00  0.00     0.000 A 
ATOM     11  C   UNL     1       4.982   2.046   0.417  1.00  0.00     0.000 A 
ATOM     12  C   UNL     1       4.742   1.352   1.602  1.00  0.00     0.000 A 
ENDBRANCH   6   7
ENDBRANCH   1   6
TORSDOF 4
ENDMDL
