@<TRIPOS>MOLECULE
/home/cewinharhar/GITHUB/reincatalyze/data/processed/docking_pred/2023-Apr-25-2140_maxeplen10_maxtrainstep200_exh16_gamma099_lrac3e-4_lrcr1e-3/1a0a4210c7fbec369f44508687af2363e72d8760_ligand_2.pdbqt
 12 12 0 0 0
SMALL
GASTEIGER

@<TRIPOS>ATOM
      1  C          8.4720   -0.5950   -2.1740 C.3     1  UNL1        0.1270
      2  C          8.5240   -1.8920   -2.8970 C.2     1  UNL1        0.3030
      3  O          9.5810   -2.5460   -3.0900 O.2     1  UNL1       -0.2520
      4  O          7.3470   -2.4310   -3.3940 O.3     1  UNL1       -0.4810
      5  H          6.8190   -3.0250   -2.7520 H       1  UNL1        0.2960
      6  C          7.0540   -0.1060   -2.1270 C.3     1  UNL1        0.0470
      7  C          6.5050    0.0270   -0.7800 C.2     1  UNL1       -0.0470
      8  C          6.5790   -0.9560    0.1760 C.2     1  UNL1        0.0040
      9  C          5.8740    1.1960   -0.4340 C.2     1  UNL1        0.0040
     10  C          6.0570   -0.8150    1.4400 C.2     1  UNL1        0.0000
     11  C          5.3390    1.3720    0.8220 C.2     1  UNL1        0.0000
     12  C          5.4250    0.3620    1.7790 C.2     1  UNL1        0.0000
@<TRIPOS>BOND
     1     4     2    1
     2     4     5    1
     3     3     2    2
     4     2     1    1
     5     1     6    1
     6     6     7    1
     7     7     9    2
     8     7     8    1
     9     9    11    1
    10     8    10    2
    11    11    12    2
    12    10    12    1
