@<TRIPOS>MOLECULE
/home/cewinharhar/GITHUB/reincatalyze/data/processed/docking_pred/2023-Apr-25-2140_maxeplen10_maxtrainstep200_exh16_gamma099_lrac3e-4_lrcr1e-3/1a0a4210c7fbec369f44508687af2363e72d8760_ligand_2.pdbqt
 12 12 0 0 0
SMALL
GASTEIGER

@<TRIPOS>ATOM
      1  C          5.0500    1.8010    0.7260 C.3     1  UNL1        0.1270
      2  C          4.5130    1.0920    1.9160 C.2     1  UNL1        0.3030
      3  O          5.1130    0.1560    2.5040 O.2     1  UNL1       -0.2520
      4  O          3.2800    1.4710    2.4240 O.3     1  UNL1       -0.4810
      5  H          3.1280    2.4770    2.5270 H       1  UNL1        0.2960
      6  C          6.5490    1.7400    0.7410 C.3     1  UNL1        0.0470
      7  C          7.1320    0.9520   -0.3420 C.2     1  UNL1       -0.0470
      8  C          6.4580   -0.0350   -1.0180 C.2     1  UNL1        0.0040
      9  C          8.4290    1.2000   -0.7180 C.2     1  UNL1        0.0040
     10  C          7.0220   -0.7680   -2.0350 C.2     1  UNL1        0.0000
     11  C          9.0250    0.4850   -1.7310 C.2     1  UNL1        0.0000
     12  C          8.3240   -0.5130   -2.4060 C.2     1  UNL1        0.0000
@<TRIPOS>BOND
     1    12    10    2
     2    12    11    1
     3    10     8    1
     4    11     9    2
     5     8     7    2
     6     9     7    1
     7     7     6    1
     8     1     6    1
     9     1     2    1
    10     2     4    1
    11     2     3    2
    12     4     5    1
