@<TRIPOS>MOLECULE
/home/cewinharhar/GITHUB/reincatalyze/data/processed/docking_pred/2023-Apr-25-2140_maxeplen10_maxtrainstep200_exh16_gamma099_lrac3e-4_lrcr1e-3/1a0a4210c7fbec369f44508687af2363e72d8760_ligand_2.pdbqt
 12 12 0 0 0
SMALL
GASTEIGER

@<TRIPOS>ATOM
      1  C          8.4980    0.6690   -1.7100 C.3     1  UNL1        0.1270
      2  C          9.6230    0.2710   -0.8240 C.2     1  UNL1        0.3030
      3  O          9.5050   -0.5160    0.1490 O.2     1  UNL1       -0.2520
      4  O         10.8860    0.7880   -1.0710 O.3     1  UNL1       -0.4810
      5  H         10.9900    1.7970   -0.9460 H       1  UNL1        0.2960
      6  C          7.3060   -0.1970   -1.4230 C.3     1  UNL1        0.0470
      7  C          6.4320    0.3100   -0.3680 C.2     1  UNL1       -0.0470
      8  C          6.1830   -0.3590    0.8050 C.2     1  UNL1        0.0040
      9  C          5.8160    1.5240   -0.5450 C.2     1  UNL1        0.0040
     10  C          5.3570    0.1330    1.7880 C.2     1  UNL1        0.0000
     11  C          4.9820    2.0460    0.4170 C.2     1  UNL1        0.0000
     12  C          4.7420    1.3520    1.6020 C.2     1  UNL1        0.0000
@<TRIPOS>BOND
     1     1     6    1
     2     1     2    1
     3     6     7    1
     4     4     5    1
     5     4     2    1
     6     2     3    2
     7     9     7    2
     8     9    11    1
     9     7     8    1
    10    11    12    2
    11     8    10    2
    12    12    10    1
