@<TRIPOS>MOLECULE
/home/cewinharhar/GITHUB/reincatalyze/data/processed/docking_pred/2023-Apr-25-2140_maxeplen10_maxtrainstep200_exh16_gamma099_lrac3e-4_lrcr1e-3/1a0a4210c7fbec369f44508687af2363e72d8760_ligand_2.pdbqt
 12 12 0 0 0
SMALL
GASTEIGER

@<TRIPOS>ATOM
      1  C          8.4360   -0.6470   -2.0870 C.3     1  UNL1        0.1270
      2  C          8.3670   -1.8940   -2.8930 C.2     1  UNL1        0.3030
      3  O          7.2930   -2.4310   -3.2640 O.2     1  UNL1       -0.2520
      4  O          9.5490   -2.5160   -3.2670 O.3     1  UNL1       -0.4810
      5  H         10.2790   -1.9050   -3.6400 H       1  UNL1        0.2960
      6  C          7.0940    0.0250   -2.0930 C.3     1  UNL1        0.0470
      7  C          6.4900    0.1790   -0.7720 C.2     1  UNL1       -0.0470
      8  C          5.7910    1.2920   -0.3750 C.2     1  UNL1        0.0040
      9  C          6.6210   -0.8410    0.1390 C.2     1  UNL1        0.0040
     10  C          5.2280    1.4200    0.8720 C.2     1  UNL1        0.0000
     11  C          6.0720   -0.7460    1.3970 C.2     1  UNL1        0.0000
     12  C          5.3640    0.3920    1.7810 C.2     1  UNL1        0.0000
@<TRIPOS>BOND
     1     5     4    1
     2     4     2    1
     3     3     2    2
     4     2     1    1
     5     6     1    1
     6     6     7    1
     7     7     8    2
     8     7     9    1
     9     8    10    1
    10     9    11    2
    11    10    12    2
    12    11    12    1
