@<TRIPOS>MOLECULE
/home/cewinharhar/GITHUB/reincatalyze/data/processed/docking_pred/2023-Apr-25-2140_maxeplen10_maxtrainstep200_exh16_gamma099_lrac3e-4_lrcr1e-3/1a0a4210c7fbec369f44508687af2363e72d8760_ligand_2.pdbqt
 12 12 0 0 0
SMALL
GASTEIGER

@<TRIPOS>ATOM
      1  C          4.9850    1.8250    0.6970 C.3     1  UNL1        0.1270
      2  C          4.5040    1.1120    1.9090 C.2     1  UNL1        0.3030
      3  O          5.1480    0.2010    2.4880 O.2     1  UNL1       -0.2520
      4  O          3.2750    1.4600    2.4480 O.3     1  UNL1       -0.4810
      5  H          2.6480    0.6840    2.6730 H       1  UNL1        0.2960
      6  C          6.4840    1.8980    0.7220 C.3     1  UNL1        0.0470
      7  C          7.1430    1.1380   -0.3380 C.2     1  UNL1       -0.0470
      8  C          8.4880    1.2080   -0.6050 C.2     1  UNL1        0.0040
      9  C          6.3870    0.3020   -1.1210 C.2     1  UNL1        0.0040
     10  C          9.0920    0.4860   -1.6060 C.2     1  UNL1        0.0000
     11  C          6.9590   -0.4350   -2.1330 C.2     1  UNL1        0.0000
     12  C          8.3260   -0.3510   -2.3890 C.2     1  UNL1        0.0000
@<TRIPOS>BOND
     1    12    11    2
     2    12    10    1
     3    11     9    1
     4    10     8    2
     5     9     7    2
     6     8     7    1
     7     7     6    1
     8     1     6    1
     9     1     2    1
    10     2     4    1
    11     2     3    2
    12     4     5    1
