@<TRIPOS>MOLECULE
/home/cewinharhar/GITHUB/reincatalyze/data/processed/docking_pred/2023-Apr-25-2140_maxeplen10_maxtrainstep200_exh16_gamma099_lrac3e-4_lrcr1e-3/1b5ae47dc41e9fd81b532b383f57e012b2e09fc7_ligand_2.pdbqt
 12 12 0 0 0
SMALL
GASTEIGER

@<TRIPOS>ATOM
      1  C          8.4420   -0.5580   -2.2350 C.3     1  UNL1        0.1270
      2  C          8.5190   -1.8750   -2.9180 C.2     1  UNL1        0.3030
      3  O          9.5850   -2.5200   -3.0780 O.2     1  UNL1       -0.2520
      4  O          7.3540   -2.4420   -3.4130 O.3     1  UNL1       -0.4810
      5  H          7.4750   -3.2520   -4.0260 H       1  UNL1        0.2960
      6  C          7.0090   -0.1190   -2.1560 C.3     1  UNL1        0.0470
      7  C          6.4900    0.0060   -0.7960 C.2     1  UNL1       -0.0470
      8  C          6.5950   -0.9780    0.1560 C.2     1  UNL1        0.0040
      9  C          5.8560    1.1690   -0.4330 C.2     1  UNL1        0.0040
     10  C          6.1010   -0.8440    1.4310 C.2     1  UNL1        0.0000
     11  C          5.3480    1.3370    0.8350 C.2     1  UNL1        0.0000
     12  C          5.4660    0.3260    1.7880 C.2     1  UNL1        0.0000
@<TRIPOS>BOND
     1     5     4    1
     2     4     2    1
     3     3     2    2
     4     2     1    1
     5     1     6    1
     6     6     7    1
     7     7     9    2
     8     7     8    1
     9     9    11    1
    10     8    10    2
    11    11    12    2
    12    10    12    1
