@<TRIPOS>MOLECULE
/home/cewinharhar/GITHUB/reincatalyze/data/processed/docking_pred/2023-Apr-25-2140_maxeplen10_maxtrainstep200_exh16_gamma099_lrac3e-4_lrcr1e-3/1b5ae47dc41e9fd81b532b383f57e012b2e09fc7_ligand_2.pdbqt
 12 12 0 0 0
SMALL
GASTEIGER

@<TRIPOS>ATOM
      1  C          5.3090    2.9200    0.0590 C.3     1  UNL1        0.1270
      2  C          6.1860    3.8720    0.7890 C.2     1  UNL1        0.3030
      3  O          6.8770    4.7610    0.2280 O.2     1  UNL1       -0.2520
      4  O          6.2610    3.7910    2.1710 O.3     1  UNL1       -0.4810
      5  H          5.8750    4.5840    2.6880 H       1  UNL1        0.2960
      6  C          5.2390    1.6260    0.8150 C.3     1  UNL1        0.0470
      7  C          6.0200    0.5400    0.2260 C.2     1  UNL1       -0.0470
      8  C          6.4720   -0.5470    0.9320 C.2     1  UNL1        0.0040
      9  C          6.3290    0.5970   -1.1110 C.2     1  UNL1        0.0040
     10  C          7.2060   -1.5600    0.3620 C.2     1  UNL1        0.0000
     11  C          7.0630   -0.3990   -1.7140 C.2     1  UNL1        0.0000
     12  C          7.5120   -1.4960   -0.9800 C.2     1  UNL1        0.0000
@<TRIPOS>BOND
     1    11     9    1
     2    11    12    2
     3     9     7    2
     4    12    10    1
     5     1     2    1
     6     1     6    1
     7     7     6    1
     8     7     8    1
     9     3     2    2
    10    10     8    2
    11     2     4    1
    12     4     5    1
