MODEL 1
REMARK VINA RESULT:      -7.4      0.000      0.000
REMARK SMILES O=C(O)CCc1ccccc1
REMARK SMILES IDX 4 1 2 2 1 3 3 4 5 6 6 7 7 8 11 9 8 10 10 11 9 12
REMARK H PARENT 3 5
REMARK Flexibility Score: inf
ROOT
ATOM      1  C   UNL     1       8.450  -0.613  -2.158  1.00  0.00     0.127 C 
ENDROOT
BRANCH   1   2
ATOM      2  C   UNL     1       8.516  -1.895  -2.906  1.00  0.00     0.303 C 
ATOM      3  O   UNL     1       9.576  -2.544  -3.094  1.00  0.00    -0.252 OA
BRANCH   2   4
ATOM      4  O   UNL     1       7.348  -2.424  -3.434  1.00  0.00    -0.481 OA
ATOM      5  H   UNL     1       7.462  -3.212  -4.076  1.00  0.00     0.296 HD
ENDBRANCH   2   4
ENDBRANCH   1   2
BRANCH   1   6
ATOM      6  C   UNL     1       7.035  -0.115  -2.144  1.00  0.00     0.047 C 
BRANCH   6   7
ATOM      7  C   UNL     1       6.479   0.085  -0.808  1.00  0.00    -0.047 A 
ATOM      8  C   UNL     1       5.827   1.228  -0.414  1.00  0.00     0.004 A 
ATOM      9  C   UNL     1       6.607  -0.919   0.120  1.00  0.00     0.004 A 
ATOM     10  C   UNL     1       5.309   1.399   0.848  1.00  0.00     0.000 A 
ATOM     11  C   UNL     1       6.102  -0.781   1.392  1.00  0.00     0.000 A 
ATOM     12  C   UNL     1       5.443   0.387   1.773  1.00  0.00     0.000 A 
ENDBRANCH   6   7
ENDBRANCH   1   6
TORSDOF 4
ENDMDL
MODEL 2
REMARK VINA RESULT:      -7.3      0.063      1.427
REMARK SMILES O=C(O)CCc1ccccc1
REMARK SMILES IDX 4 1 2 2 1 3 3 4 5 6 6 7 7 8 11 9 8 10 10 11 9 12
REMARK H PARENT 3 5
REMARK Flexibility Score: inf
ROOT
ATOM      1  C   UNL     1       8.442  -0.558  -2.235  1.00  0.00     0.127 C 
ENDROOT
BRANCH   1   2
ATOM      2  C   UNL     1       8.519  -1.875  -2.918  1.00  0.00     0.303 C 
ATOM      3  O   UNL     1       9.585  -2.520  -3.078  1.00  0.00    -0.252 OA
BRANCH   2   4
ATOM      4  O   UNL     1       7.354  -2.442  -3.413  1.00  0.00    -0.481 OA
ATOM      5  H   UNL     1       7.475  -3.252  -4.026  1.00  0.00     0.296 HD
ENDBRANCH   2   4
ENDBRANCH   1   2
BRANCH   1   6
ATOM      6  C   UNL     1       7.009  -0.119  -2.156  1.00  0.00     0.047 C 
BRANCH   6   7
ATOM      7  C   UNL     1       6.490   0.006  -0.796  1.00  0.00    -0.047 A 
ATOM      8  C   UNL     1       6.595  -0.978   0.156  1.00  0.00     0.004 A 
ATOM      9  C   UNL     1       5.856   1.169  -0.433  1.00  0.00     0.004 A 
ATOM     10  C   UNL     1       6.101  -0.844   1.431  1.00  0.00     0.000 A 
ATOM     11  C   UNL     1       5.348   1.337   0.835  1.00  0.00     0.000 A 
ATOM     12  C   UNL     1       5.466   0.326   1.788  1.00  0.00     0.000 A 
ENDBRANCH   6   7
ENDBRANCH   1   6
TORSDOF 4
ENDMDL
MODEL 3
REMARK VINA RESULT:      -6.8      3.383      5.079
REMARK SMILES O=C(O)CCc1ccccc1
REMARK SMILES IDX 4 1 2 2 1 3 3 4 5 6 6 7 7 8 11 9 8 10 10 11 9 12
REMARK H PARENT 3 5
REMARK Flexibility Score: inf
ROOT
ATOM      1  C   UNL     1       4.990   1.810   0.692  1.00  0.00     0.127 C 
ENDROOT
BRANCH   1   2
ATOM      2  C   UNL     1       4.499   1.109   1.907  1.00  0.00     0.303 C 
ATOM      3  O   UNL     1       5.134   0.197   2.495  1.00  0.00    -0.252 OA
BRANCH   2   4
ATOM      4  O   UNL     1       3.270   1.469   2.439  1.00  0.00    -0.481 OA
ATOM      5  H   UNL     1       2.531   1.672   1.762  1.00  0.00     0.296 HD
ENDBRANCH   2   4
ENDBRANCH   1   2
BRANCH   1   6
ATOM      6  C   UNL     1       6.489   1.873   0.722  1.00  0.00     0.047 C 
BRANCH   6   7
ATOM      7  C   UNL     1       7.147   1.113  -0.338  1.00  0.00    -0.047 A 
ATOM      8  C   UNL     1       8.483   1.219  -0.638  1.00  0.00     0.004 A 
ATOM      9  C   UNL     1       6.400   0.239  -1.088  1.00  0.00     0.004 A 
ATOM     10  C   UNL     1       9.086   0.496  -1.640  1.00  0.00     0.000 A 
ATOM     11  C   UNL     1       6.970  -0.499  -2.099  1.00  0.00     0.000 A 
ATOM     12  C   UNL     1       8.329  -0.379  -2.388  1.00  0.00     0.000 A 
ENDBRANCH   6   7
ENDBRANCH   1   6
TORSDOF 4
ENDMDL
MODEL 4
REMARK VINA RESULT:      -6.7      1.944      2.622
REMARK SMILES O=C(O)CCc1ccccc1
REMARK SMILES IDX 4 1 2 2 1 3 3 4 5 6 6 7 7 8 11 9 8 10 10 11 9 12
REMARK H PARENT 3 5
REMARK Flexibility Score: inf
ROOT
ATOM      1  C   UNL     1       8.233   0.272  -2.164  1.00  0.00     0.127 C 
ENDROOT
BRANCH   1   2
ATOM      2  C   UNL     1       9.371   0.368  -1.212  1.00  0.00     0.303 C 
ATOM      3  O   UNL     1       9.501  -0.364  -0.199  1.00  0.00    -0.252 OA
BRANCH   2   4
ATOM      4  O   UNL     1      10.357   1.316  -1.440  1.00  0.00    -0.481 OA
ATOM      5  H   UNL     1      10.167   1.992  -2.184  1.00  0.00     0.296 HD
ENDBRANCH   2   4
ENDBRANCH   1   2
BRANCH   1   6
ATOM      6  C   UNL     1       7.133  -0.540  -1.547  1.00  0.00     0.047 C 
BRANCH   6   7
ATOM      7  C   UNL     1       6.367   0.162  -0.519  1.00  0.00    -0.047 A 
ATOM      8  C   UNL     1       6.157  -0.329   0.746  1.00  0.00     0.004 A 
ATOM      9  C   UNL     1       5.820   1.384  -0.820  1.00  0.00     0.004 A 
ATOM     10  C   UNL     1       5.434   0.345   1.701  1.00  0.00     0.000 A 
ATOM     11  C   UNL     1       5.090   2.086   0.111  1.00  0.00     0.000 A 
ATOM     12  C   UNL     1       4.887   1.572   1.391  1.00  0.00     0.000 A 
ENDBRANCH   6   7
ENDBRANCH   1   6
TORSDOF 4
ENDMDL
MODEL 5
REMARK VINA RESULT:      -6.6      3.711      5.108
REMARK SMILES O=C(O)CCc1ccccc1
REMARK SMILES IDX 4 1 2 2 1 3 3 4 5 6 6 7 7 8 11 9 8 10 10 11 9 12
REMARK H PARENT 3 5
REMARK Flexibility Score: inf
ROOT
ATOM      1  C   UNL     1       5.309   2.920   0.059  1.00  0.00     0.127 C 
ENDROOT
BRANCH   1   2
ATOM      2  C   UNL     1       6.186   3.872   0.789  1.00  0.00     0.303 C 
ATOM      3  O   UNL     1       6.877   4.761   0.228  1.00  0.00    -0.252 OA
BRANCH   2   4
ATOM      4  O   UNL     1       6.261   3.791   2.171  1.00  0.00    -0.481 OA
ATOM      5  H   UNL     1       5.875   4.584   2.688  1.00  0.00     0.296 HD
ENDBRANCH   2   4
ENDBRANCH   1   2
BRANCH   1   6
ATOM      6  C   UNL     1       5.239   1.626   0.815  1.00  0.00     0.047 C 
BRANCH   6   7
ATOM      7  C   UNL     1       6.020   0.540   0.226  1.00  0.00    -0.047 A 
ATOM      8  C   UNL     1       6.472  -0.547   0.932  1.00  0.00     0.004 A 
ATOM      9  C   UNL     1       6.329   0.597  -1.111  1.00  0.00     0.004 A 
ATOM     10  C   UNL     1       7.206  -1.560   0.362  1.00  0.00     0.000 A 
ATOM     11  C   UNL     1       7.063  -0.399  -1.714  1.00  0.00     0.000 A 
ATOM     12  C   UNL     1       7.512  -1.496  -0.980  1.00  0.00     0.000 A 
ENDBRANCH   6   7
ENDBRANCH   1   6
TORSDOF 4
ENDMDL
