@<TRIPOS>MOLECULE
/home/cewinharhar/GITHUB/reincatalyze/data/processed/docking_pred/2023-Apr-25-2140_maxeplen10_maxtrainstep200_exh16_gamma099_lrac3e-4_lrcr1e-3/1b5ae47dc41e9fd81b532b383f57e012b2e09fc7_ligand_2.pdbqt
 12 12 0 0 0
SMALL
GASTEIGER

@<TRIPOS>ATOM
      1  C          4.9900    1.8100    0.6920 C.3     1  UNL1        0.1270
      2  C          4.4990    1.1090    1.9070 C.2     1  UNL1        0.3030
      3  O          5.1340    0.1970    2.4950 O.2     1  UNL1       -0.2520
      4  O          3.2700    1.4690    2.4390 O.3     1  UNL1       -0.4810
      5  H          2.5310    1.6720    1.7620 H       1  UNL1        0.2960
      6  C          6.4890    1.8730    0.7220 C.3     1  UNL1        0.0470
      7  C          7.1470    1.1130   -0.3380 C.2     1  UNL1       -0.0470
      8  C          8.4830    1.2190   -0.6380 C.2     1  UNL1        0.0040
      9  C          6.4000    0.2390   -1.0880 C.2     1  UNL1        0.0040
     10  C          9.0860    0.4960   -1.6400 C.2     1  UNL1        0.0000
     11  C          6.9700   -0.4990   -2.0990 C.2     1  UNL1        0.0000
     12  C          8.3290   -0.3790   -2.3880 C.2     1  UNL1        0.0000
@<TRIPOS>BOND
     1    12    11    2
     2    12    10    1
     3    11     9    1
     4    10     8    2
     5     9     7    2
     6     8     7    1
     7     7     6    1
     8     1     6    1
     9     1     2    1
    10     5     4    1
    11     2     4    1
    12     2     3    2
