@<TRIPOS>MOLECULE
/home/cewinharhar/GITHUB/reincatalyze/data/processed/docking_pred/2023-Apr-25-2140_maxeplen10_maxtrainstep200_exh16_gamma099_lrac3e-4_lrcr1e-3/1b5ae47dc41e9fd81b532b383f57e012b2e09fc7_ligand_2.pdbqt
 12 12 0 0 0
SMALL
GASTEIGER

@<TRIPOS>ATOM
      1  C          8.2330    0.2720   -2.1640 C.3     1  UNL1        0.1270
      2  C          9.3710    0.3680   -1.2120 C.2     1  UNL1        0.3030
      3  O          9.5010   -0.3640   -0.1990 O.2     1  UNL1       -0.2520
      4  O         10.3570    1.3160   -1.4400 O.3     1  UNL1       -0.4810
      5  H         10.1670    1.9920   -2.1840 H       1  UNL1        0.2960
      6  C          7.1330   -0.5400   -1.5470 C.3     1  UNL1        0.0470
      7  C          6.3670    0.1620   -0.5190 C.2     1  UNL1       -0.0470
      8  C          6.1570   -0.3290    0.7460 C.2     1  UNL1        0.0040
      9  C          5.8200    1.3840   -0.8200 C.2     1  UNL1        0.0040
     10  C          5.4340    0.3450    1.7010 C.2     1  UNL1        0.0000
     11  C          5.0900    2.0860    0.1110 C.2     1  UNL1        0.0000
     12  C          4.8870    1.5720    1.3910 C.2     1  UNL1        0.0000
@<TRIPOS>BOND
     1     5     4    1
     2     1     6    1
     3     1     2    1
     4     6     7    1
     5     4     2    1
     6     2     3    2
     7     9     7    2
     8     9    11    1
     9     7     8    1
    10    11    12    2
    11     8    10    2
    12    12    10    1
