@<TRIPOS>MOLECULE
/home/cewinharhar/GITHUB/reincatalyze/data/processed/docking_pred/2023-Apr-25-2140_maxeplen10_maxtrainstep200_exh16_gamma099_lrac3e-4_lrcr1e-3/1c86ade130d2cc9f902dffb19ba95248752a952e_ligand_2.pdbqt
 12 12 0 0 0
SMALL
GASTEIGER

@<TRIPOS>ATOM
      1  C          5.0140    1.7160    0.7020 C.3     1  UNL1        0.1270
      2  C          4.5790    1.0070    1.9340 C.2     1  UNL1        0.3030
      3  O          5.2630    0.1260    2.5140 O.2     1  UNL1       -0.2520
      4  O          3.3500    1.3240    2.4910 O.3     1  UNL1       -0.4810
      5  H          2.5350    0.8810    2.0610 H       1  UNL1        0.2960
      6  C          6.5100    1.8290    0.6920 C.3     1  UNL1        0.0470
      7  C          7.1670    1.0610   -0.3630 C.2     1  UNL1       -0.0470
      8  C          8.4970    1.1840   -0.6830 C.2     1  UNL1        0.0040
      9  C          6.4260    0.1600   -1.0860 C.2     1  UNL1        0.0040
     10  C          9.0990    0.4540   -1.6790 C.2     1  UNL1        0.0000
     11  C          6.9960   -0.5870   -2.0910 C.2     1  UNL1        0.0000
     12  C          8.3480   -0.4490   -2.4010 C.2     1  UNL1        0.0000
@<TRIPOS>BOND
     1    12    11    2
     2    12    10    1
     3    11     9    1
     4    10     8    2
     5     9     7    2
     6     8     7    1
     7     7     6    1
     8     6     1    1
     9     1     2    1
    10     2     4    1
    11     2     3    2
    12     5     4    1
