@<TRIPOS>MOLECULE
/home/cewinharhar/GITHUB/reincatalyze/data/processed/docking_pred/2023-Apr-25-2140_maxeplen10_maxtrainstep200_exh16_gamma099_lrac3e-4_lrcr1e-3/1c86ade130d2cc9f902dffb19ba95248752a952e_ligand_2.pdbqt
 12 12 0 0 0
SMALL
GASTEIGER

@<TRIPOS>ATOM
      1  C          8.1870    0.3440   -2.0940 C.3     1  UNL1        0.1270
      2  C          9.3580    0.3720   -1.1800 C.2     1  UNL1        0.3030
      3  O          9.4890   -0.3840   -0.1840 O.2     1  UNL1       -0.2520
      4  O         10.3780    1.2800   -1.4240 O.3     1  UNL1       -0.4810
      5  H         11.3220    0.8900   -1.4780 H       1  UNL1        0.2960
      6  C          7.1120   -0.5190   -1.5020 C.3     1  UNL1        0.0470
      7  C          6.3510    0.1160   -0.4280 C.2     1  UNL1       -0.0470
      8  C          6.1470   -0.4540    0.8040 C.2     1  UNL1        0.0040
      9  C          5.8010    1.3550   -0.6490 C.2     1  UNL1        0.0040
     10  C          5.4290    0.1580    1.8040 C.2     1  UNL1        0.0000
     11  C          5.0760    1.9960    0.3290 C.2     1  UNL1        0.0000
     12  C          4.8800    1.4010    1.5740 C.2     1  UNL1        0.0000
@<TRIPOS>BOND
     1     1     6    1
     2     1     2    1
     3     6     7    1
     4     5     4    1
     5     4     2    1
     6     2     3    2
     7     9     7    2
     8     9    11    1
     9     7     8    1
    10    11    12    2
    11     8    10    2
    12    12    10    1
