MODEL 1
REMARK VINA RESULT:      -7.4      0.000      0.000
REMARK SMILES O=C(O)CCc1ccccc1
REMARK SMILES IDX 4 1 2 2 1 3 3 4 5 6 6 7 7 8 11 9 8 10 10 11 9 12
REMARK H PARENT 3 5
REMARK Flexibility Score: inf
ROOT
ATOM      1  C   UNL     1       8.477  -0.625  -2.164  1.00  0.00     0.127 C 
ENDROOT
BRANCH   1   2
ATOM      2  C   UNL     1       8.535  -1.912  -2.905  1.00  0.00     0.303 C 
ATOM      3  O   UNL     1       9.593  -2.564  -3.097  1.00  0.00    -0.252 OA
BRANCH   2   4
ATOM      4  O   UNL     1       7.362  -2.440  -3.423  1.00  0.00    -0.481 OA
ATOM      5  H   UNL     1       6.498  -2.152  -2.960  1.00  0.00     0.296 HD
ENDBRANCH   2   4
ENDBRANCH   1   2
BRANCH   1   6
ATOM      6  C   UNL     1       7.061  -0.131  -2.130  1.00  0.00     0.047 C 
BRANCH   6   7
ATOM      7  C   UNL     1       6.504   0.015  -0.787  1.00  0.00    -0.047 A 
ATOM      8  C   UNL     1       6.596  -0.948   0.187  1.00  0.00     0.004 A 
ATOM      9  C   UNL     1       5.848   1.177  -0.465  1.00  0.00     0.004 A 
ATOM     10  C   UNL     1       6.067  -0.794   1.446  1.00  0.00     0.000 A 
ATOM     11  C   UNL     1       5.305   1.365   0.785  1.00  0.00     0.000 A 
ATOM     12  C   UNL     1       5.409   0.376   1.761  1.00  0.00     0.000 A 
ENDBRANCH   6   7
ENDBRANCH   1   6
TORSDOF 4
ENDMDL
MODEL 2
REMARK VINA RESULT:      -7.3      0.082      1.426
REMARK SMILES O=C(O)CCc1ccccc1
REMARK SMILES IDX 4 1 2 2 1 3 3 4 5 6 6 7 7 8 11 9 8 10 10 11 9 12
REMARK H PARENT 3 5
REMARK Flexibility Score: inf
ROOT
ATOM      1  C   UNL     1       8.431  -0.560  -2.197  1.00  0.00     0.127 C 
ENDROOT
BRANCH   1   2
ATOM      2  C   UNL     1       8.502  -1.864  -2.907  1.00  0.00     0.303 C 
ATOM      3  O   UNL     1       9.568  -2.503  -3.094  1.00  0.00    -0.252 OA
BRANCH   2   4
ATOM      4  O   UNL     1       7.333  -2.425  -3.398  1.00  0.00    -0.481 OA
ATOM      5  H   UNL     1       6.611  -2.636  -2.704  1.00  0.00     0.296 HD
ENDBRANCH   2   4
ENDBRANCH   1   2
BRANCH   1   6
ATOM      6  C   UNL     1       7.006  -0.091  -2.156  1.00  0.00     0.047 C 
BRANCH   6   7
ATOM      7  C   UNL     1       6.468   0.085  -0.809  1.00  0.00    -0.047 A 
ATOM      8  C   UNL     1       5.841   1.229  -0.380  1.00  0.00     0.004 A 
ATOM      9  C   UNL     1       6.588  -0.943   0.092  1.00  0.00     0.004 A 
ATOM     10  C   UNL     1       5.340   1.379   0.891  1.00  0.00     0.000 A 
ATOM     11  C   UNL     1       6.099  -0.828   1.373  1.00  0.00     0.000 A 
ATOM     12  C   UNL     1       5.465   0.342   1.790  1.00  0.00     0.000 A 
ENDBRANCH   6   7
ENDBRANCH   1   6
TORSDOF 4
ENDMDL
MODEL 3
REMARK VINA RESULT:      -7.1      0.639      1.870
REMARK SMILES O=C(O)CCc1ccccc1
REMARK SMILES IDX 4 1 2 2 1 3 3 4 5 6 6 7 7 8 11 9 8 10 10 11 9 12
REMARK H PARENT 3 5
REMARK Flexibility Score: inf
ROOT
ATOM      1  C   UNL     1       8.323  -0.861  -1.896  1.00  0.00     0.127 C 
ENDROOT
BRANCH   1   2
ATOM      2  C   UNL     1       8.320  -1.984  -2.869  1.00  0.00     0.303 C 
ATOM      3  O   UNL     1       7.277  -2.470  -3.376  1.00  0.00    -0.252 OA
BRANCH   2   4
ATOM      4  O   UNL     1       9.530  -2.543  -3.254  1.00  0.00    -0.481 OA
ATOM      5  H   UNL     1      10.138  -1.947  -3.820  1.00  0.00     0.296 HD
ENDBRANCH   2   4
ENDBRANCH   1   2
BRANCH   1   6
ATOM      6  C   UNL     1       7.593  -1.276  -0.652  1.00  0.00     0.047 C 
BRANCH   6   7
ATOM      7  C   UNL     1       6.686  -0.263  -0.118  1.00  0.00    -0.047 A 
ATOM      8  C   UNL     1       6.289   0.851  -0.815  1.00  0.00     0.004 A 
ATOM      9  C   UNL     1       6.194  -0.419   1.154  1.00  0.00     0.004 A 
ATOM     10  C   UNL     1       5.435   1.795  -0.297  1.00  0.00     0.000 A 
ATOM     11  C   UNL     1       5.338   0.507   1.705  1.00  0.00     0.000 A 
ATOM     12  C   UNL     1       4.945   1.631   0.981  1.00  0.00     0.000 A 
ENDBRANCH   6   7
ENDBRANCH   1   6
TORSDOF 4
ENDMDL
MODEL 4
REMARK VINA RESULT:      -6.8      3.354      5.068
REMARK SMILES O=C(O)CCc1ccccc1
REMARK SMILES IDX 4 1 2 2 1 3 3 4 5 6 6 7 7 8 11 9 8 10 10 11 9 12
REMARK H PARENT 3 5
REMARK Flexibility Score: inf
ROOT
ATOM      1  C   UNL     1       5.014   1.716   0.702  1.00  0.00     0.127 C 
ENDROOT
BRANCH   1   2
ATOM      2  C   UNL     1       4.579   1.007   1.934  1.00  0.00     0.303 C 
ATOM      3  O   UNL     1       5.263   0.126   2.514  1.00  0.00    -0.252 OA
BRANCH   2   4
ATOM      4  O   UNL     1       3.350   1.324   2.491  1.00  0.00    -0.481 OA
ATOM      5  H   UNL     1       2.535   0.881   2.061  1.00  0.00     0.296 HD
ENDBRANCH   2   4
ENDBRANCH   1   2
BRANCH   1   6
ATOM      6  C   UNL     1       6.510   1.829   0.692  1.00  0.00     0.047 C 
BRANCH   6   7
ATOM      7  C   UNL     1       7.167   1.061  -0.363  1.00  0.00    -0.047 A 
ATOM      8  C   UNL     1       8.497   1.184  -0.683  1.00  0.00     0.004 A 
ATOM      9  C   UNL     1       6.426   0.160  -1.086  1.00  0.00     0.004 A 
ATOM     10  C   UNL     1       9.099   0.454  -1.679  1.00  0.00     0.000 A 
ATOM     11  C   UNL     1       6.996  -0.587  -2.091  1.00  0.00     0.000 A 
ATOM     12  C   UNL     1       8.348  -0.449  -2.401  1.00  0.00     0.000 A 
ENDBRANCH   6   7
ENDBRANCH   1   6
TORSDOF 4
ENDMDL
MODEL 5
REMARK VINA RESULT:      -6.7      1.959      2.239
REMARK SMILES O=C(O)CCc1ccccc1
REMARK SMILES IDX 4 1 2 2 1 3 3 4 5 6 6 7 7 8 11 9 8 10 10 11 9 12
REMARK H PARENT 3 5
REMARK Flexibility Score: inf
ROOT
ATOM      1  C   UNL     1       8.187   0.344  -2.094  1.00  0.00     0.127 C 
ENDROOT
BRANCH   1   2
ATOM      2  C   UNL     1       9.358   0.372  -1.180  1.00  0.00     0.303 C 
ATOM      3  O   UNL     1       9.489  -0.384  -0.184  1.00  0.00    -0.252 OA
BRANCH   2   4
ATOM      4  O   UNL     1      10.378   1.280  -1.424  1.00  0.00    -0.481 OA
ATOM      5  H   UNL     1      11.322   0.890  -1.478  1.00  0.00     0.296 HD
ENDBRANCH   2   4
ENDBRANCH   1   2
BRANCH   1   6
ATOM      6  C   UNL     1       7.112  -0.519  -1.502  1.00  0.00     0.047 C 
BRANCH   6   7
ATOM      7  C   UNL     1       6.351   0.116  -0.428  1.00  0.00    -0.047 A 
ATOM      8  C   UNL     1       6.147  -0.454   0.804  1.00  0.00     0.004 A 
ATOM      9  C   UNL     1       5.801   1.355  -0.649  1.00  0.00     0.004 A 
ATOM     10  C   UNL     1       5.429   0.158   1.804  1.00  0.00     0.000 A 
ATOM     11  C   UNL     1       5.076   1.996   0.329  1.00  0.00     0.000 A 
ATOM     12  C   UNL     1       4.880   1.401   1.574  1.00  0.00     0.000 A 
ENDBRANCH   6   7
ENDBRANCH   1   6
TORSDOF 4
ENDMDL
