@<TRIPOS>MOLECULE
/home/cewinharhar/GITHUB/reincatalyze/data/processed/docking_pred/2023-Apr-25-2140_maxeplen10_maxtrainstep200_exh16_gamma099_lrac3e-4_lrcr1e-3/1c86ade130d2cc9f902dffb19ba95248752a952e_ligand_2.pdbqt
 12 12 0 0 0
SMALL
GASTEIGER

@<TRIPOS>ATOM
      1  C          8.3230   -0.8610   -1.8960 C.3     1  UNL1        0.1270
      2  C          8.3200   -1.9840   -2.8690 C.2     1  UNL1        0.3030
      3  O          7.2770   -2.4700   -3.3760 O.2     1  UNL1       -0.2520
      4  O          9.5300   -2.5430   -3.2540 O.3     1  UNL1       -0.4810
      5  H         10.1380   -1.9470   -3.8200 H       1  UNL1        0.2960
      6  C          7.5930   -1.2760   -0.6520 C.3     1  UNL1        0.0470
      7  C          6.6860   -0.2630   -0.1180 C.2     1  UNL1       -0.0470
      8  C          6.2890    0.8510   -0.8150 C.2     1  UNL1        0.0040
      9  C          6.1940   -0.4190    1.1540 C.2     1  UNL1        0.0040
     10  C          5.4350    1.7950   -0.2970 C.2     1  UNL1        0.0000
     11  C          5.3380    0.5070    1.7050 C.2     1  UNL1        0.0000
     12  C          4.9450    1.6310    0.9810 C.2     1  UNL1        0.0000
@<TRIPOS>BOND
     1     5     4    1
     2     3     2    2
     3     4     2    1
     4     2     1    1
     5     1     6    1
     6     8    10    1
     7     8     7    2
     8     6     7    1
     9    10    12    2
    10     7     9    1
    11    12    11    1
    12     9    11    2
