@<TRIPOS>MOLECULE
/home/cewinharhar/GITHUB/reincatalyze/data/processed/docking_pred/2023-Apr-25-2140_maxeplen10_maxtrainstep200_exh16_gamma099_lrac3e-4_lrcr1e-3/1c86ade130d2cc9f902dffb19ba95248752a952e_ligand_2.pdbqt
 12 12 0 0 0
SMALL
GASTEIGER

@<TRIPOS>ATOM
      1  C          8.4770   -0.6250   -2.1640 C.3     1  UNL1        0.1270
      2  C          8.5350   -1.9120   -2.9050 C.2     1  UNL1        0.3030
      3  O          9.5930   -2.5640   -3.0970 O.2     1  UNL1       -0.2520
      4  O          7.3620   -2.4400   -3.4230 O.3     1  UNL1       -0.4810
      5  H          6.4980   -2.1520   -2.9600 H       1  UNL1        0.2960
      6  C          7.0610   -0.1310   -2.1300 C.3     1  UNL1        0.0470
      7  C          6.5040    0.0150   -0.7870 C.2     1  UNL1       -0.0470
      8  C          6.5960   -0.9480    0.1870 C.2     1  UNL1        0.0040
      9  C          5.8480    1.1770   -0.4650 C.2     1  UNL1        0.0040
     10  C          6.0670   -0.7940    1.4460 C.2     1  UNL1        0.0000
     11  C          5.3050    1.3650    0.7850 C.2     1  UNL1        0.0000
     12  C          5.4090    0.3760    1.7610 C.2     1  UNL1        0.0000
@<TRIPOS>BOND
     1     4     5    1
     2     4     2    1
     3     3     2    2
     4     2     1    1
     5     1     6    1
     6     6     7    1
     7     7     9    2
     8     7     8    1
     9     9    11    1
    10     8    10    2
    11    11    12    2
    12    10    12    1
