@<TRIPOS>MOLECULE
/home/cewinharhar/GITHUB/reincatalyze/data/processed/docking_pred/2023-Apr-25-2140_maxeplen10_maxtrainstep200_exh16_gamma099_lrac3e-4_lrcr1e-3/1e16add1d5649bf0b13dd0d86c7d3fc630d89625_ligand_2.pdbqt
 12 12 0 0 0
SMALL
GASTEIGER

@<TRIPOS>ATOM
      1  C          8.3950   -0.3940   -2.2140 C.3     1  UNL1        0.1270
      2  C          8.4860   -1.7350   -2.8470 C.2     1  UNL1        0.3030
      3  O          9.5580   -2.3800   -2.9730 O.2     1  UNL1       -0.2520
      4  O          7.3300   -2.3280   -3.3320 O.3     1  UNL1       -0.4810
      5  H          6.4580   -2.0500   -2.8750 H       1  UNL1        0.2960
      6  C          6.9540    0.0170   -2.1190 C.3     1  UNL1        0.0470
      7  C          6.4400    0.1000   -0.7540 C.2     1  UNL1       -0.0470
      8  C          6.5660   -0.9050    0.1740 C.2     1  UNL1        0.0040
      9  C          5.7900    1.2440   -0.3600 C.2     1  UNL1        0.0040
     10  C          6.0750   -0.8090    1.4540 C.2     1  UNL1        0.0000
     11  C          5.2850    1.3730    0.9140 C.2     1  UNL1        0.0000
     12  C          5.4240    0.3420    1.8420 C.2     1  UNL1        0.0000
@<TRIPOS>BOND
     1     4     5    1
     2     4     2    1
     3     3     2    2
     4     2     1    1
     5     1     6    1
     6     6     7    1
     7     7     9    2
     8     7     8    1
     9     9    11    1
    10     8    10    2
    11    11    12    2
    12    10    12    1
