@<TRIPOS>MOLECULE
/home/cewinharhar/GITHUB/reincatalyze/data/processed/docking_pred/2023-Apr-25-2140_maxeplen10_maxtrainstep200_exh16_gamma099_lrac3e-4_lrcr1e-3/1e16add1d5649bf0b13dd0d86c7d3fc630d89625_ligand_2.pdbqt
 12 12 0 0 0
SMALL
GASTEIGER

@<TRIPOS>ATOM
      1  C          8.3030    0.2530   -2.3650 C.3     1  UNL1        0.1270
      2  C          8.2660   -1.2140   -2.5970 C.2     1  UNL1        0.3030
      3  O          9.2850   -1.9160   -2.8160 O.2     1  UNL1       -0.2520
      4  O          7.0410   -1.8660   -2.5730 O.3     1  UNL1       -0.4810
      5  H          6.7330   -2.2740   -3.4580 H       1  UNL1        0.2960
      6  C          8.6400    0.5230   -0.9280 C.3     1  UNL1        0.0470
      7  C          7.4910    0.5080   -0.0260 C.2     1  UNL1       -0.0470
      8  C          6.4090    1.3440   -0.1520 C.2     1  UNL1        0.0040
      9  C          7.4770   -0.3880    1.0140 C.2     1  UNL1        0.0040
     10  C          5.3350    1.3160    0.7060 C.2     1  UNL1        0.0000
     11  C          6.4200   -0.4430    1.8930 C.2     1  UNL1        0.0000
     12  C          5.3290    0.4140    1.7480 C.2     1  UNL1        0.0000
@<TRIPOS>BOND
     1     5     4    1
     2     3     2    2
     3     2     4    1
     4     2     1    1
     5     1     6    1
     6     6     7    1
     7     8     7    2
     8     8    10    1
     9     7     9    1
    10    10    12    2
    11     9    11    2
    12    12    11    1
