@<TRIPOS>MOLECULE
/home/cewinharhar/GITHUB/reincatalyze/data/processed/docking_pred/2023-Apr-25-2140_maxeplen10_maxtrainstep200_exh16_gamma099_lrac3e-4_lrcr1e-3/1e16add1d5649bf0b13dd0d86c7d3fc630d89625_ligand_2.pdbqt
 12 12 0 0 0
SMALL
GASTEIGER

@<TRIPOS>ATOM
      1  C          5.0080    1.8290    0.7200 C.3     1  UNL1        0.1270
      2  C          4.5030    1.1060    1.9160 C.2     1  UNL1        0.3030
      3  O          5.1280    0.1800    2.4920 O.2     1  UNL1       -0.2520
      4  O          3.2710    1.4610    2.4430 O.3     1  UNL1       -0.4810
      5  H          2.9410    0.8990    3.2320 H       1  UNL1        0.2960
      6  C          6.5080    1.8600    0.7510 C.3     1  UNL1        0.0470
      7  C          7.1500    1.1080   -0.3240 C.2     1  UNL1       -0.0470
      8  C          8.4850    1.2060   -0.6340 C.2     1  UNL1        0.0040
      9  C          6.3890    0.2500   -1.0780 C.2     1  UNL1        0.0040
     10  C          9.0730    0.4910   -1.6490 C.2     1  UNL1        0.0000
     11  C          6.9450   -0.4810   -2.1030 C.2     1  UNL1        0.0000
     12  C          8.3020   -0.3680   -2.4020 C.2     1  UNL1        0.0000
@<TRIPOS>BOND
     1    12    11    2
     2    12    10    1
     3    11     9    1
     4    10     8    2
     5     9     7    2
     6     8     7    1
     7     7     6    1
     8     1     6    1
     9     1     2    1
    10     2     4    1
    11     2     3    2
    12     4     5    1
