MODEL 1
REMARK VINA RESULT:      -6.8      0.000      0.000
REMARK SMILES O=C(O)CCc1ccccc1
REMARK SMILES IDX 4 1 2 2 1 3 3 4 5 6 6 7 7 8 11 9 8 10 10 11 9 12
REMARK H PARENT 3 5
REMARK Flexibility Score: inf
ROOT
ATOM      1  C   UNL     1       5.008   1.829   0.720  1.00  0.00     0.127 C 
ENDROOT
BRANCH   1   2
ATOM      2  C   UNL     1       4.503   1.106   1.916  1.00  0.00     0.303 C 
ATOM      3  O   UNL     1       5.128   0.180   2.492  1.00  0.00    -0.252 OA
BRANCH   2   4
ATOM      4  O   UNL     1       3.271   1.461   2.443  1.00  0.00    -0.481 OA
ATOM      5  H   UNL     1       2.941   0.899   3.232  1.00  0.00     0.296 HD
ENDBRANCH   2   4
ENDBRANCH   1   2
BRANCH   1   6
ATOM      6  C   UNL     1       6.508   1.860   0.751  1.00  0.00     0.047 C 
BRANCH   6   7
ATOM      7  C   UNL     1       7.150   1.108  -0.324  1.00  0.00    -0.047 A 
ATOM      8  C   UNL     1       8.485   1.206  -0.634  1.00  0.00     0.004 A 
ATOM      9  C   UNL     1       6.389   0.250  -1.078  1.00  0.00     0.004 A 
ATOM     10  C   UNL     1       9.073   0.491  -1.649  1.00  0.00     0.000 A 
ATOM     11  C   UNL     1       6.945  -0.481  -2.103  1.00  0.00     0.000 A 
ATOM     12  C   UNL     1       8.302  -0.368  -2.402  1.00  0.00     0.000 A 
ENDBRANCH   6   7
ENDBRANCH   1   6
TORSDOF 4
ENDMDL
MODEL 2
REMARK VINA RESULT:      -6.7      3.324      5.031
REMARK SMILES O=C(O)CCc1ccccc1
REMARK SMILES IDX 4 1 2 2 1 3 3 4 5 6 6 7 7 8 11 9 8 10 10 11 9 12
REMARK H PARENT 3 5
REMARK Flexibility Score: inf
ROOT
ATOM      1  C   UNL     1       8.395  -0.394  -2.214  1.00  0.00     0.127 C 
ENDROOT
BRANCH   1   2
ATOM      2  C   UNL     1       8.486  -1.735  -2.847  1.00  0.00     0.303 C 
ATOM      3  O   UNL     1       9.558  -2.380  -2.973  1.00  0.00    -0.252 OA
BRANCH   2   4
ATOM      4  O   UNL     1       7.330  -2.328  -3.332  1.00  0.00    -0.481 OA
ATOM      5  H   UNL     1       6.458  -2.050  -2.875  1.00  0.00     0.296 HD
ENDBRANCH   2   4
ENDBRANCH   1   2
BRANCH   1   6
ATOM      6  C   UNL     1       6.954   0.017  -2.119  1.00  0.00     0.047 C 
BRANCH   6   7
ATOM      7  C   UNL     1       6.440   0.100  -0.754  1.00  0.00    -0.047 A 
ATOM      8  C   UNL     1       6.566  -0.905   0.174  1.00  0.00     0.004 A 
ATOM      9  C   UNL     1       5.790   1.244  -0.360  1.00  0.00     0.004 A 
ATOM     10  C   UNL     1       6.075  -0.809   1.454  1.00  0.00     0.000 A 
ATOM     11  C   UNL     1       5.285   1.373   0.914  1.00  0.00     0.000 A 
ATOM     12  C   UNL     1       5.424   0.342   1.842  1.00  0.00     0.000 A 
ENDBRANCH   6   7
ENDBRANCH   1   6
TORSDOF 4
ENDMDL
MODEL 3
REMARK VINA RESULT:      -6.7      0.146      1.431
REMARK SMILES O=C(O)CCc1ccccc1
REMARK SMILES IDX 4 1 2 2 1 3 3 4 5 6 6 7 7 8 11 9 8 10 10 11 9 12
REMARK H PARENT 3 5
REMARK Flexibility Score: inf
ROOT
ATOM      1  C   UNL     1       5.042   1.755   0.711  1.00  0.00     0.127 C 
ENDROOT
BRANCH   1   2
ATOM      2  C   UNL     1       4.612   1.021   1.930  1.00  0.00     0.303 C 
ATOM      3  O   UNL     1       5.306   0.142   2.500  1.00  0.00    -0.252 OA
BRANCH   2   4
ATOM      4  O   UNL     1       3.375   1.311   2.485  1.00  0.00    -0.481 OA
ATOM      5  H   UNL     1       2.871   2.099   2.071  1.00  0.00     0.296 HD
ENDBRANCH   2   4
ENDBRANCH   1   2
BRANCH   1   6
ATOM      6  C   UNL     1       6.541   1.815   0.666  1.00  0.00     0.047 C 
BRANCH   6   7
ATOM      7  C   UNL     1       7.146   1.010  -0.391  1.00  0.00    -0.047 A 
ATOM      8  C   UNL     1       6.462   0.071  -1.124  1.00  0.00     0.004 A 
ATOM      9  C   UNL     1       8.476   1.188  -0.680  1.00  0.00     0.004 A 
ATOM     10  C   UNL     1       7.048  -0.678  -2.117  1.00  0.00     0.000 A 
ATOM     11  C   UNL     1       9.095   0.455  -1.666  1.00  0.00     0.000 A 
ATOM     12  C   UNL     1       8.384  -0.493  -2.401  1.00  0.00     0.000 A 
ENDBRANCH   6   7
ENDBRANCH   1   6
TORSDOF 4
ENDMDL
MODEL 4
REMARK VINA RESULT:      -6.7      2.985      4.733
REMARK SMILES O=C(O)CCc1ccccc1
REMARK SMILES IDX 4 1 2 2 1 3 3 4 5 6 6 7 7 8 11 9 8 10 10 11 9 12
REMARK H PARENT 3 5
REMARK Flexibility Score: inf
ROOT
ATOM      1  C   UNL     1       8.303   0.253  -2.365  1.00  0.00     0.127 C 
ENDROOT
BRANCH   1   2
ATOM      2  C   UNL     1       8.266  -1.214  -2.597  1.00  0.00     0.303 C 
ATOM      3  O   UNL     1       9.285  -1.916  -2.816  1.00  0.00    -0.252 OA
BRANCH   2   4
ATOM      4  O   UNL     1       7.041  -1.866  -2.573  1.00  0.00    -0.481 OA
ATOM      5  H   UNL     1       6.733  -2.274  -3.458  1.00  0.00     0.296 HD
ENDBRANCH   2   4
ENDBRANCH   1   2
BRANCH   1   6
ATOM      6  C   UNL     1       8.640   0.523  -0.928  1.00  0.00     0.047 C 
BRANCH   6   7
ATOM      7  C   UNL     1       7.491   0.508  -0.026  1.00  0.00    -0.047 A 
ATOM      8  C   UNL     1       6.409   1.344  -0.152  1.00  0.00     0.004 A 
ATOM      9  C   UNL     1       7.477  -0.388   1.014  1.00  0.00     0.004 A 
ATOM     10  C   UNL     1       5.335   1.316   0.706  1.00  0.00     0.000 A 
ATOM     11  C   UNL     1       6.420  -0.443   1.893  1.00  0.00     0.000 A 
ATOM     12  C   UNL     1       5.329   0.414   1.748  1.00  0.00     0.000 A 
ENDBRANCH   6   7
ENDBRANCH   1   6
TORSDOF 4
ENDMDL
MODEL 5
REMARK VINA RESULT:      -6.6      2.765      4.659
REMARK SMILES O=C(O)CCc1ccccc1
REMARK SMILES IDX 4 1 2 2 1 3 3 4 5 6 6 7 7 8 11 9 8 10 10 11 9 12
REMARK H PARENT 3 5
REMARK Flexibility Score: inf
ROOT
ATOM      1  C   UNL     1       8.238   0.251  -2.258  1.00  0.00     0.127 C 
ENDROOT
BRANCH   1   2
ATOM      2  C   UNL     1       9.336   0.350  -1.261  1.00  0.00     0.303 C 
ATOM      3  O   UNL     1       9.447  -0.406  -0.263  1.00  0.00    -0.252 OA
BRANCH   2   4
ATOM      4  O   UNL     1      10.305   1.328  -1.427  1.00  0.00    -0.481 OA
ATOM      5  H   UNL     1      11.059   1.106  -2.080  1.00  0.00     0.296 HD
ENDBRANCH   2   4
ENDBRANCH   1   2
BRANCH   1   6
ATOM      6  C   UNL     1       7.075  -0.477  -1.650  1.00  0.00     0.047 C 
BRANCH   6   7
ATOM      7  C   UNL     1       6.328   0.298  -0.662  1.00  0.00    -0.047 A 
ATOM      8  C   UNL     1       6.105  -0.119   0.627  1.00  0.00     0.004 A 
ATOM      9  C   UNL     1       5.811   1.515  -1.029  1.00  0.00     0.004 A 
ATOM     10  C   UNL     1       5.399   0.623   1.544  1.00  0.00     0.000 A 
ATOM     11  C   UNL     1       5.098   2.284  -0.138  1.00  0.00     0.000 A 
ATOM     12  C   UNL     1       4.883   1.844   1.167  1.00  0.00     0.000 A 
ENDBRANCH   6   7
ENDBRANCH   1   6
TORSDOF 4
ENDMDL
