@<TRIPOS>MOLECULE
/home/cewinharhar/GITHUB/reincatalyze/data/processed/docking_pred/2023-Apr-25-2140_maxeplen10_maxtrainstep200_exh16_gamma099_lrac3e-4_lrcr1e-3/1e16add1d5649bf0b13dd0d86c7d3fc630d89625_ligand_2.pdbqt
 12 12 0 0 0
SMALL
GASTEIGER

@<TRIPOS>ATOM
      1  C          5.0420    1.7550    0.7110 C.3     1  UNL1        0.1270
      2  C          4.6120    1.0210    1.9300 C.2     1  UNL1        0.3030
      3  O          5.3060    0.1420    2.5000 O.2     1  UNL1       -0.2520
      4  O          3.3750    1.3110    2.4850 O.3     1  UNL1       -0.4810
      5  H          2.8710    2.0990    2.0710 H       1  UNL1        0.2960
      6  C          6.5410    1.8150    0.6660 C.3     1  UNL1        0.0470
      7  C          7.1460    1.0100   -0.3910 C.2     1  UNL1       -0.0470
      8  C          6.4620    0.0710   -1.1240 C.2     1  UNL1        0.0040
      9  C          8.4760    1.1880   -0.6800 C.2     1  UNL1        0.0040
     10  C          7.0480   -0.6780   -2.1170 C.2     1  UNL1        0.0000
     11  C          9.0950    0.4550   -1.6660 C.2     1  UNL1        0.0000
     12  C          8.3840   -0.4930   -2.4010 C.2     1  UNL1        0.0000
@<TRIPOS>BOND
     1    12    10    2
     2    12    11    1
     3    10     8    1
     4    11     9    2
     5     8     7    2
     6     9     7    1
     7     7     6    1
     8     6     1    1
     9     1     2    1
    10     2     4    1
    11     2     3    2
    12     5     4    1
