MODEL 1
REMARK VINA RESULT:      -5.5      0.000      0.000
REMARK SMILES O=C(O)CCc1ccccc1
REMARK SMILES IDX 4 1 2 2 1 3 3 4 5 6 6 7 7 8 11 9 8 10 10 11 9 12
REMARK H PARENT 3 5
REMARK Flexibility Score: inf
ROOT
ATOM      1  C   UNL     1       6.505  -0.562   2.746  1.00  0.00     0.127 C 
ENDROOT
BRANCH   1   2
ATOM      2  C   UNL     1       7.212  -1.540   1.878  1.00  0.00     0.303 C 
ATOM      3  O   UNL     1       8.373  -1.367   1.428  1.00  0.00    -0.252 OA
BRANCH   2   4
ATOM      4  O   UNL     1       6.568  -2.719   1.534  1.00  0.00    -0.481 OA
ATOM      5  H   UNL     1       5.935  -3.106   2.238  1.00  0.00     0.296 HD
ENDBRANCH   2   4
ENDBRANCH   1   2
BRANCH   1   6
ATOM      6  C   UNL     1       5.340   0.018   2.000  1.00  0.00     0.047 C 
BRANCH   6   7
ATOM      7  C   UNL     1       5.600   1.321   1.391  1.00  0.00    -0.047 A 
ATOM      8  C   UNL     1       6.560   2.195   1.839  1.00  0.00     0.004 A 
ATOM      9  C   UNL     1       4.850   1.708   0.309  1.00  0.00     0.004 A 
ATOM     10  C   UNL     1       6.792   3.418   1.255  1.00  0.00     0.000 A 
ATOM     11  C   UNL     1       5.055   2.925  -0.300  1.00  0.00     0.000 A 
ATOM     12  C   UNL     1       6.034   3.799   0.169  1.00  0.00     0.000 A 
ENDBRANCH   6   7
ENDBRANCH   1   6
TORSDOF 4
ENDMDL
MODEL 2
REMARK VINA RESULT:      -5.5      0.062      1.426
REMARK SMILES O=C(O)CCc1ccccc1
REMARK SMILES IDX 4 1 2 2 1 3 3 4 5 6 6 7 7 8 11 9 8 10 10 11 9 12
REMARK H PARENT 3 5
REMARK Flexibility Score: inf
ROOT
ATOM      1  C   UNL     1       6.523  -0.569   2.740  1.00  0.00     0.127 C 
ENDROOT
BRANCH   1   2
ATOM      2  C   UNL     1       7.223  -1.557   1.878  1.00  0.00     0.303 C 
ATOM      3  O   UNL     1       8.388  -1.398   1.434  1.00  0.00    -0.252 OA
BRANCH   2   4
ATOM      4  O   UNL     1       6.567  -2.729   1.533  1.00  0.00    -0.481 OA
ATOM      5  H   UNL     1       7.096  -3.594   1.668  1.00  0.00     0.296 HD
ENDBRANCH   2   4
ENDBRANCH   1   2
BRANCH   1   6
ATOM      6  C   UNL     1       5.325  -0.032   2.013  1.00  0.00     0.047 C 
BRANCH   6   7
ATOM      7  C   UNL     1       5.539   1.261   1.368  1.00  0.00    -0.047 A 
ATOM      8  C   UNL     1       4.821   1.702   0.284  1.00  0.00     0.004 A 
ATOM      9  C   UNL     1       6.512   2.094   1.862  1.00  0.00     0.004 A 
ATOM     10  C   UNL     1       5.036   2.922  -0.311  1.00  0.00     0.000 A 
ATOM     11  C   UNL     1       6.754   3.322   1.290  1.00  0.00     0.000 A 
ATOM     12  C   UNL     1       6.014   3.753   0.190  1.00  0.00     0.000 A 
ENDBRANCH   6   7
ENDBRANCH   1   6
TORSDOF 4
ENDMDL
MODEL 3
REMARK VINA RESULT:      -3.7     11.803     14.383
REMARK SMILES O=C(O)CCc1ccccc1
REMARK SMILES IDX 4 1 2 2 1 3 3 4 5 6 6 7 7 8 11 9 8 10 10 11 9 12
REMARK H PARENT 3 5
REMARK Flexibility Score: inf
ROOT
ATOM      1  C   UNL     1       7.952  -6.555  11.091  1.00  0.00     0.127 C 
ENDROOT
BRANCH   1   2
ATOM      2  C   UNL     1       8.388  -5.134  11.089  1.00  0.00     0.303 C 
ATOM      3  O   UNL     1       9.364  -4.699  11.751  1.00  0.00    -0.252 OA
BRANCH   2   4
ATOM      4  O   UNL     1       7.688  -4.219  10.317  1.00  0.00    -0.481 OA
ATOM      5  H   UNL     1       7.649  -4.415   9.314  1.00  0.00     0.296 HD
ENDBRANCH   2   4
ENDBRANCH   1   2
BRANCH   1   6
ATOM      6  C   UNL     1       8.627  -7.282  12.216  1.00  0.00     0.047 C 
BRANCH   6   7
ATOM      7  C   UNL     1       9.458  -8.408  11.796  1.00  0.00    -0.047 A 
ATOM      8  C   UNL     1      10.374  -8.341  10.775  1.00  0.00     0.004 A 
ATOM      9  C   UNL     1       9.327  -9.608  12.449  1.00  0.00     0.004 A 
ATOM     10  C   UNL     1      11.149  -9.410  10.392  1.00  0.00     0.000 A 
ATOM     11  C   UNL     1      10.086 -10.699  12.091  1.00  0.00     0.000 A 
ATOM     12  C   UNL     1      11.011 -10.612  11.052  1.00  0.00     0.000 A 
ENDBRANCH   6   7
ENDBRANCH   1   6
TORSDOF 4
ENDMDL
MODEL 4
REMARK VINA RESULT:      -3.7     11.442     13.186
REMARK SMILES O=C(O)CCc1ccccc1
REMARK SMILES IDX 4 1 2 2 1 3 3 4 5 6 6 7 7 8 11 9 8 10 10 11 9 12
REMARK H PARENT 3 5
REMARK Flexibility Score: inf
ROOT
ATOM      1  C   UNL     1       7.964  -5.435  11.951  1.00  0.00     0.127 C 
ENDROOT
BRANCH   1   2
ATOM      2  C   UNL     1       7.481  -4.112  11.475  1.00  0.00     0.303 C 
ATOM      3  O   UNL     1       6.967  -3.243  12.224  1.00  0.00    -0.252 OA
BRANCH   2   4
ATOM      4  O   UNL     1       7.597  -3.801  10.129  1.00  0.00    -0.481 OA
ATOM      5  H   UNL     1       7.238  -4.500   9.475  1.00  0.00     0.296 HD
ENDBRANCH   2   4
ENDBRANCH   1   2
BRANCH   1   6
ATOM      6  C   UNL     1       8.395  -6.262  10.775  1.00  0.00     0.047 C 
BRANCH   6   7
ATOM      7  C   UNL     1       9.779  -6.725  10.837  1.00  0.00    -0.047 A 
ATOM      8  C   UNL     1      10.181  -7.983  10.462  1.00  0.00     0.004 A 
ATOM      9  C   UNL     1      10.745  -5.864  11.295  1.00  0.00     0.004 A 
ATOM     10  C   UNL     1      11.488  -8.403  10.527  1.00  0.00     0.000 A 
ATOM     11  C   UNL     1      12.063  -6.251  11.374  1.00  0.00     0.000 A 
ATOM     12  C   UNL     1      12.453  -7.533  10.988  1.00  0.00     0.000 A 
ENDBRANCH   6   7
ENDBRANCH   1   6
TORSDOF 4
ENDMDL
MODEL 5
REMARK VINA RESULT:      -3.6     11.600     13.614
REMARK SMILES O=C(O)CCc1ccccc1
REMARK SMILES IDX 4 1 2 2 1 3 3 4 5 6 6 7 7 8 11 9 8 10 10 11 9 12
REMARK H PARENT 3 5
REMARK Flexibility Score: inf
ROOT
ATOM      1  C   UNL     1       8.405  -6.149  10.322  1.00  0.00     0.127 C 
ENDROOT
BRANCH   1   2
ATOM      2  C   UNL     1       7.968  -4.934  11.059  1.00  0.00     0.303 C 
ATOM      3  O   UNL     1       7.618  -3.864  10.500  1.00  0.00    -0.252 OA
BRANCH   2   4
ATOM      4  O   UNL     1       7.939  -4.965  12.445  1.00  0.00    -0.481 OA
ATOM      5  H   UNL     1       7.025  -5.137  12.870  1.00  0.00     0.296 HD
ENDBRANCH   2   4
ENDBRANCH   1   2
BRANCH   1   6
ATOM      6  C   UNL     1       8.983  -7.139  11.290  1.00  0.00     0.047 C 
BRANCH   6   7
ATOM      7  C   UNL     1      10.281  -7.681  10.897  1.00  0.00    -0.047 A 
ATOM      8  C   UNL     1      11.370  -6.906  10.584  1.00  0.00     0.004 A 
ATOM      9  C   UNL     1      10.437  -9.044  10.831  1.00  0.00     0.004 A 
ATOM     10  C   UNL     1      12.585  -7.433  10.215  1.00  0.00     0.000 A 
ATOM     11  C   UNL     1      11.639  -9.605  10.464  1.00  0.00     0.000 A 
ATOM     12  C   UNL     1      12.734  -8.802  10.151  1.00  0.00     0.000 A 
ENDBRANCH   6   7
ENDBRANCH   1   6
TORSDOF 4
ENDMDL
