@<TRIPOS>MOLECULE
/home/cewinharhar/GITHUB/reincatalyze/data/processed/docking_pred/2023-Apr-25-2140_maxeplen10_maxtrainstep200_exh16_gamma099_lrac3e-4_lrcr1e-3/1e8ffecbec14ce573bf52adb8829230239be76a8_ligand_2.pdbqt
 12 12 0 0 0
SMALL
GASTEIGER

@<TRIPOS>ATOM
      1  C          6.5050   -0.5620    2.7460 C.3     1  UNL1        0.1270
      2  C          7.2120   -1.5400    1.8780 C.2     1  UNL1        0.3030
      3  O          8.3730   -1.3670    1.4280 O.2     1  UNL1       -0.2520
      4  O          6.5680   -2.7190    1.5340 O.3     1  UNL1       -0.4810
      5  H          5.9350   -3.1060    2.2380 H       1  UNL1        0.2960
      6  C          5.3400    0.0180    2.0000 C.3     1  UNL1        0.0470
      7  C          5.6000    1.3210    1.3910 C.2     1  UNL1       -0.0470
      8  C          6.5600    2.1950    1.8390 C.2     1  UNL1        0.0040
      9  C          4.8500    1.7080    0.3090 C.2     1  UNL1        0.0040
     10  C          6.7920    3.4180    1.2550 C.2     1  UNL1        0.0000
     11  C          5.0550    2.9250   -0.3000 C.2     1  UNL1        0.0000
     12  C          6.0340    3.7990    0.1690 C.2     1  UNL1        0.0000
@<TRIPOS>BOND
     1    11    12    2
     2    11     9    1
     3    12    10    1
     4     9     7    2
     5    10     8    2
     6     7     8    1
     7     7     6    1
     8     3     2    2
     9     4     2    1
    10     4     5    1
    11     2     1    1
    12     6     1    1
