@<TRIPOS>MOLECULE
/home/cewinharhar/GITHUB/reincatalyze/data/processed/docking_pred/2023-Apr-25-2140_maxeplen10_maxtrainstep200_exh16_gamma099_lrac3e-4_lrcr1e-3/1e8ffecbec14ce573bf52adb8829230239be76a8_ligand_2.pdbqt
 12 12 0 0 0
SMALL
GASTEIGER

@<TRIPOS>ATOM
      1  C          8.4050   -6.1490   10.3220 C.3     1  UNL1        0.1270
      2  C          7.9680   -4.9340   11.0590 C.2     1  UNL1        0.3030
      3  O          7.6180   -3.8640   10.5000 O.2     1  UNL1       -0.2520
      4  O          7.9390   -4.9650   12.4450 O.3     1  UNL1       -0.4810
      5  H          7.0250   -5.1370   12.8700 H       1  UNL1        0.2960
      6  C          8.9830   -7.1390   11.2900 C.3     1  UNL1        0.0470
      7  C         10.2810   -7.6810   10.8970 C.2     1  UNL1       -0.0470
      8  C         11.3700   -6.9060   10.5840 C.2     1  UNL1        0.0040
      9  C         10.4370   -9.0440   10.8310 C.2     1  UNL1        0.0040
     10  C         12.5850   -7.4330   10.2150 C.2     1  UNL1        0.0000
     11  C         11.6390   -9.6050   10.4640 C.2     1  UNL1        0.0000
     12  C         12.7340   -8.8020   10.1510 C.2     1  UNL1        0.0000
@<TRIPOS>BOND
     1    12    10    2
     2    12    11    1
     3    10     8    1
     4     1     2    1
     5     1     6    1
     6    11     9    2
     7     3     2    2
     8     8     7    2
     9     9     7    1
    10     7     6    1
    11     2     4    1
    12     4     5    1
