@<TRIPOS>MOLECULE
/home/cewinharhar/GITHUB/reincatalyze/data/processed/docking_pred/2023-Apr-25-2140_maxeplen10_maxtrainstep200_exh16_gamma099_lrac3e-4_lrcr1e-3/1e8ffecbec14ce573bf52adb8829230239be76a8_ligand_2.pdbqt
 12 12 0 0 0
SMALL
GASTEIGER

@<TRIPOS>ATOM
      1  C          7.9520   -6.5550   11.0910 C.3     1  UNL1        0.1270
      2  C          8.3880   -5.1340   11.0890 C.2     1  UNL1        0.3030
      3  O          9.3640   -4.6990   11.7510 O.2     1  UNL1       -0.2520
      4  O          7.6880   -4.2190   10.3170 O.3     1  UNL1       -0.4810
      5  H          7.6490   -4.4150    9.3140 H       1  UNL1        0.2960
      6  C          8.6270   -7.2820   12.2160 C.3     1  UNL1        0.0470
      7  C          9.4580   -8.4080   11.7960 C.2     1  UNL1       -0.0470
      8  C         10.3740   -8.3410   10.7750 C.2     1  UNL1        0.0040
      9  C          9.3270   -9.6080   12.4490 C.2     1  UNL1        0.0040
     10  C         11.1490   -9.4100   10.3920 C.2     1  UNL1        0.0000
     11  C         10.0860  -10.6990   12.0910 C.2     1  UNL1        0.0000
     12  C         11.0110  -10.6120   11.0520 C.2     1  UNL1        0.0000
@<TRIPOS>BOND
     1     5     4    1
     2     4     2    1
     3    10     8    1
     4    10    12    2
     5     8     7    2
     6    12    11    1
     7     2     1    1
     8     2     3    2
     9     1     6    1
    10     7     6    1
    11     7     9    1
    12    11     9    2
