@<TRIPOS>MOLECULE
/home/cewinharhar/GITHUB/reincatalyze/data/processed/docking_pred/2023-Apr-25-2140_maxeplen10_maxtrainstep200_exh16_gamma099_lrac3e-4_lrcr1e-3/1e8ffecbec14ce573bf52adb8829230239be76a8_ligand_2.pdbqt
 12 12 0 0 0
SMALL
GASTEIGER

@<TRIPOS>ATOM
      1  C          6.5230   -0.5690    2.7400 C.3     1  UNL1        0.1270
      2  C          7.2230   -1.5570    1.8780 C.2     1  UNL1        0.3030
      3  O          8.3880   -1.3980    1.4340 O.2     1  UNL1       -0.2520
      4  O          6.5670   -2.7290    1.5330 O.3     1  UNL1       -0.4810
      5  H          7.0960   -3.5940    1.6680 H       1  UNL1        0.2960
      6  C          5.3250   -0.0320    2.0130 C.3     1  UNL1        0.0470
      7  C          5.5390    1.2610    1.3680 C.2     1  UNL1       -0.0470
      8  C          4.8210    1.7020    0.2840 C.2     1  UNL1        0.0040
      9  C          6.5120    2.0940    1.8620 C.2     1  UNL1        0.0040
     10  C          5.0360    2.9220   -0.3110 C.2     1  UNL1        0.0000
     11  C          6.7540    3.3220    1.2900 C.2     1  UNL1        0.0000
     12  C          6.0140    3.7530    0.1900 C.2     1  UNL1        0.0000
@<TRIPOS>BOND
     1    10    12    2
     2    10     8    1
     3    12    11    1
     4     8     7    2
     5    11     9    2
     6     7     9    1
     7     7     6    1
     8     3     2    2
     9     4     5    1
    10     4     2    1
    11     2     1    1
    12     6     1    1
