@<TRIPOS>MOLECULE
/home/cewinharhar/GITHUB/reincatalyze/data/processed/docking_pred/2023-Apr-25-2140_maxeplen10_maxtrainstep200_exh16_gamma099_lrac3e-4_lrcr1e-3/1e8ffecbec14ce573bf52adb8829230239be76a8_ligand_2.pdbqt
 12 12 0 0 0
SMALL
GASTEIGER

@<TRIPOS>ATOM
      1  C          7.9640   -5.4350   11.9510 C.3     1  UNL1        0.1270
      2  C          7.4810   -4.1120   11.4750 C.2     1  UNL1        0.3030
      3  O          6.9670   -3.2430   12.2240 O.2     1  UNL1       -0.2520
      4  O          7.5970   -3.8010   10.1290 O.3     1  UNL1       -0.4810
      5  H          7.2380   -4.5000    9.4750 H       1  UNL1        0.2960
      6  C          8.3950   -6.2620   10.7750 C.3     1  UNL1        0.0470
      7  C          9.7790   -6.7250   10.8370 C.2     1  UNL1       -0.0470
      8  C         10.1810   -7.9830   10.4620 C.2     1  UNL1        0.0040
      9  C         10.7450   -5.8640   11.2950 C.2     1  UNL1        0.0040
     10  C         11.4880   -8.4030   10.5270 C.2     1  UNL1        0.0000
     11  C         12.0630   -6.2510   11.3740 C.2     1  UNL1        0.0000
     12  C         12.4530   -7.5330   10.9880 C.2     1  UNL1        0.0000
@<TRIPOS>BOND
     1     5     4    1
     2     4     2    1
     3     8    10    1
     4     8     7    2
     5    10    12    2
     6     6     7    1
     7     6     1    1
     8     7     9    1
     9    12    11    1
    10     9    11    2
    11     2     1    1
    12     2     3    2
