@<TRIPOS>MOLECULE
/home/cewinharhar/GITHUB/reincatalyze/data/processed/docking_pred/2023-Apr-25-2140_maxeplen10_maxtrainstep200_exh16_gamma099_lrac3e-4_lrcr1e-3/1f53ccdef65850680f3a99c865464637782ca6a5_ligand_2.pdbqt
 12 12 0 0 0
SMALL
GASTEIGER

@<TRIPOS>ATOM
      1  C          8.4230   -0.5470   -2.2260 C.3     1  UNL1        0.1270
      2  C          8.5020   -1.8620   -2.9140 C.2     1  UNL1        0.3030
      3  O          9.5730   -2.4950   -3.0970 O.2     1  UNL1       -0.2520
      4  O          7.3350   -2.4420   -3.3890 O.3     1  UNL1       -0.4810
      5  H          7.4410   -3.3450   -3.8560 H       1  UNL1        0.2960
      6  C          6.9890   -0.1160   -2.1370 C.3     1  UNL1        0.0470
      7  C          6.4760   -0.0030   -0.7730 C.2     1  UNL1       -0.0470
      8  C          6.5860   -0.9960    0.1690 C.2     1  UNL1        0.0040
      9  C          5.8440    1.1560   -0.3970 C.2     1  UNL1        0.0040
     10  C          6.0980   -0.8730    1.4480 C.2     1  UNL1        0.0000
     11  C          5.3420    1.3120    0.8750 C.2     1  UNL1        0.0000
     12  C          5.4640    0.2940    1.8180 C.2     1  UNL1        0.0000
@<TRIPOS>BOND
     1     5     4    1
     2     4     2    1
     3     3     2    2
     4     2     1    1
     5     1     6    1
     6     6     7    1
     7     7     9    2
     8     7     8    1
     9     9    11    1
    10     8    10    2
    11    11    12    2
    12    10    12    1
