@<TRIPOS>MOLECULE
/home/cewinharhar/GITHUB/reincatalyze/data/processed/docking_pred/2023-Apr-25-2140_maxeplen10_maxtrainstep200_exh16_gamma099_lrac3e-4_lrcr1e-3/1f53ccdef65850680f3a99c865464637782ca6a5_ligand_2.pdbqt
 12 12 0 0 0
SMALL
GASTEIGER

@<TRIPOS>ATOM
      1  C          8.2940    0.1250   -2.2030 C.3     1  UNL1        0.1270
      2  C          9.3970    0.3130   -1.2240 C.2     1  UNL1        0.3030
      3  O          9.5210   -0.3600   -0.1700 O.2     1  UNL1       -0.2520
      4  O         10.3550    1.2850   -1.4720 O.3     1  UNL1       -0.4810
      5  H         11.3060    0.9460   -1.6330 H       1  UNL1        0.2960
      6  C          7.1710   -0.6270   -1.5510 C.3     1  UNL1        0.0470
      7  C          6.3980    0.1560   -0.5890 C.2     1  UNL1       -0.0470
      8  C          6.1660   -0.2380    0.7050 C.2     1  UNL1        0.0040
      9  C          5.8670    1.3570   -0.9880 C.2     1  UNL1        0.0040
     10  C          5.4360    0.5110    1.5980 C.2     1  UNL1        0.0000
     11  C          5.1310    2.1320   -0.1220 C.2     1  UNL1        0.0000
     12  C          4.9060    1.7160    1.1900 C.2     1  UNL1        0.0000
@<TRIPOS>BOND
     1     1     6    1
     2     1     2    1
     3     5     4    1
     4     6     7    1
     5     4     2    1
     6     2     3    2
     7     9     7    2
     8     9    11    1
     9     7     8    1
    10    11    12    2
    11     8    10    2
    12    12    10    1
