@<TRIPOS>MOLECULE
/home/cewinharhar/GITHUB/reincatalyze/data/processed/docking_pred/2023-Apr-25-2140_maxeplen10_maxtrainstep200_exh16_gamma099_lrac3e-4_lrcr1e-3/1f53ccdef65850680f3a99c865464637782ca6a5_ligand_2.pdbqt
 12 12 0 0 0
SMALL
GASTEIGER

@<TRIPOS>ATOM
      1  C          8.1670   -1.6320    1.2030 C.3     1  UNL1        0.1270
      2  C          8.5060   -2.8260    0.3850 C.2     1  UNL1        0.3030
      3  O          9.1860   -3.7950    0.8070 O.2     1  UNL1       -0.2520
      4  O          8.0540   -2.8920   -0.9240 O.3     1  UNL1       -0.4810
      5  H          7.8100   -3.8230   -1.2680 H       1  UNL1        0.2960
      6  C          6.6750   -1.4850    1.2770 C.3     1  UNL1        0.0470
      7  C          6.1660   -0.2250    0.7410 C.2     1  UNL1       -0.0470
      8  C          6.3820    0.2010   -0.5470 C.2     1  UNL1        0.0040
      9  C          5.4260    0.5920    1.5590 C.2     1  UNL1        0.0040
     10  C          5.8950    1.3900   -1.0350 C.2     1  UNL1        0.0000
     11  C          4.9240    1.7890    1.1040 C.2     1  UNL1        0.0000
     12  C          5.1540    2.2050   -0.2070 C.2     1  UNL1        0.0000
@<TRIPOS>BOND
     1     5     4    1
     2    10     8    1
     3    10    12    2
     4     4     2    1
     5     8     7    2
     6    12    11    1
     7     2     3    2
     8     2     1    1
     9     7     6    1
    10     7     9    1
    11    11     9    2
    12     1     6    1
