@<TRIPOS>MOLECULE
/home/cewinharhar/GITHUB/reincatalyze/data/processed/docking_pred/2023-Apr-25-2140_maxeplen10_maxtrainstep200_exh16_gamma099_lrac3e-4_lrcr1e-3/1f53ccdef65850680f3a99c865464637782ca6a5_ligand_2.pdbqt
 12 12 0 0 0
SMALL
GASTEIGER

@<TRIPOS>ATOM
      1  C          5.0060    1.7950    0.7140 C.3     1  UNL1        0.1270
      2  C          4.4970    1.0940    1.9210 C.2     1  UNL1        0.3030
      3  O          5.1180    0.1740    2.5120 O.2     1  UNL1       -0.2520
      4  O          3.2670    1.4650    2.4430 O.3     1  UNL1       -0.4810
      5  H          3.2850    1.9000    3.3680 H       1  UNL1        0.2960
      6  C          6.5060    1.8290    0.7500 C.3     1  UNL1        0.0470
      7  C          7.1530    1.0720   -0.3180 C.2     1  UNL1       -0.0470
      8  C          8.4740    1.2180   -0.6660 C.2     1  UNL1        0.0040
      9  C          6.4120    0.1590   -1.0270 C.2     1  UNL1        0.0040
     10  C          9.0670    0.4970   -1.6750 C.2     1  UNL1        0.0000
     11  C          6.9740   -0.5780   -2.0430 C.2     1  UNL1        0.0000
     12  C          8.3160   -0.4170   -2.3810 C.2     1  UNL1        0.0000
@<TRIPOS>BOND
     1    12    11    2
     2    12    10    1
     3    11     9    1
     4    10     8    2
     5     9     7    2
     6     8     7    1
     7     7     6    1
     8     1     6    1
     9     1     2    1
    10     2     4    1
    11     2     3    2
    12     4     5    1
