MODEL 1
REMARK VINA RESULT:      -7.3      0.000      0.000
REMARK SMILES O=C(O)CCc1ccccc1
REMARK SMILES IDX 4 1 2 2 1 3 3 4 5 6 6 7 7 8 11 9 8 10 10 11 9 12
REMARK H PARENT 3 5
REMARK Flexibility Score: inf
ROOT
ATOM      1  C   UNL     1       8.456  -0.630  -2.146  1.00  0.00     0.127 C 
ENDROOT
BRANCH   1   2
ATOM      2  C   UNL     1       8.519  -1.904  -2.909  1.00  0.00     0.303 C 
ATOM      3  O   UNL     1       9.579  -2.549  -3.110  1.00  0.00    -0.252 OA
BRANCH   2   4
ATOM      4  O   UNL     1       7.348  -2.427  -3.437  1.00  0.00    -0.481 OA
ATOM      5  H   UNL     1       6.654  -2.749  -2.759  1.00  0.00     0.296 HD
ENDBRANCH   2   4
ENDBRANCH   1   2
BRANCH   1   6
ATOM      6  C   UNL     1       7.045  -0.119  -2.142  1.00  0.00     0.047 C 
BRANCH   6   7
ATOM      7  C   UNL     1       6.479   0.082  -0.810  1.00  0.00    -0.047 A 
ATOM      8  C   UNL     1       5.830   1.228  -0.420  1.00  0.00     0.004 A 
ATOM      9  C   UNL     1       6.595  -0.923   0.118  1.00  0.00     0.004 A 
ATOM     10  C   UNL     1       5.303   1.400   0.838  1.00  0.00     0.000 A 
ATOM     11  C   UNL     1       6.081  -0.784   1.386  1.00  0.00     0.000 A 
ATOM     12  C   UNL     1       5.424   0.386   1.763  1.00  0.00     0.000 A 
ENDBRANCH   6   7
ENDBRANCH   1   6
TORSDOF 4
ENDMDL
MODEL 2
REMARK VINA RESULT:      -7.3      0.087      1.428
REMARK SMILES O=C(O)CCc1ccccc1
REMARK SMILES IDX 4 1 2 2 1 3 3 4 5 6 6 7 7 8 11 9 8 10 10 11 9 12
REMARK H PARENT 3 5
REMARK Flexibility Score: inf
ROOT
ATOM      1  C   UNL     1       8.423  -0.547  -2.226  1.00  0.00     0.127 C 
ENDROOT
BRANCH   1   2
ATOM      2  C   UNL     1       8.502  -1.862  -2.914  1.00  0.00     0.303 C 
ATOM      3  O   UNL     1       9.573  -2.495  -3.097  1.00  0.00    -0.252 OA
BRANCH   2   4
ATOM      4  O   UNL     1       7.335  -2.442  -3.389  1.00  0.00    -0.481 OA
ATOM      5  H   UNL     1       7.441  -3.345  -3.856  1.00  0.00     0.296 HD
ENDBRANCH   2   4
ENDBRANCH   1   2
BRANCH   1   6
ATOM      6  C   UNL     1       6.989  -0.116  -2.137  1.00  0.00     0.047 C 
BRANCH   6   7
ATOM      7  C   UNL     1       6.476  -0.003  -0.773  1.00  0.00    -0.047 A 
ATOM      8  C   UNL     1       6.586  -0.996   0.169  1.00  0.00     0.004 A 
ATOM      9  C   UNL     1       5.844   1.156  -0.397  1.00  0.00     0.004 A 
ATOM     10  C   UNL     1       6.098  -0.873   1.448  1.00  0.00     0.000 A 
ATOM     11  C   UNL     1       5.342   1.312   0.875  1.00  0.00     0.000 A 
ATOM     12  C   UNL     1       5.464   0.294   1.818  1.00  0.00     0.000 A 
ENDBRANCH   6   7
ENDBRANCH   1   6
TORSDOF 4
ENDMDL
MODEL 3
REMARK VINA RESULT:      -6.8      3.385      5.077
REMARK SMILES O=C(O)CCc1ccccc1
REMARK SMILES IDX 4 1 2 2 1 3 3 4 5 6 6 7 7 8 11 9 8 10 10 11 9 12
REMARK H PARENT 3 5
REMARK Flexibility Score: inf
ROOT
ATOM      1  C   UNL     1       5.006   1.795   0.714  1.00  0.00     0.127 C 
ENDROOT
BRANCH   1   2
ATOM      2  C   UNL     1       4.497   1.094   1.921  1.00  0.00     0.303 C 
ATOM      3  O   UNL     1       5.118   0.174   2.512  1.00  0.00    -0.252 OA
BRANCH   2   4
ATOM      4  O   UNL     1       3.267   1.465   2.443  1.00  0.00    -0.481 OA
ATOM      5  H   UNL     1       3.285   1.900   3.368  1.00  0.00     0.296 HD
ENDBRANCH   2   4
ENDBRANCH   1   2
BRANCH   1   6
ATOM      6  C   UNL     1       6.506   1.829   0.750  1.00  0.00     0.047 C 
BRANCH   6   7
ATOM      7  C   UNL     1       7.153   1.072  -0.318  1.00  0.00    -0.047 A 
ATOM      8  C   UNL     1       8.474   1.218  -0.666  1.00  0.00     0.004 A 
ATOM      9  C   UNL     1       6.412   0.159  -1.027  1.00  0.00     0.004 A 
ATOM     10  C   UNL     1       9.067   0.497  -1.675  1.00  0.00     0.000 A 
ATOM     11  C   UNL     1       6.974  -0.578  -2.043  1.00  0.00     0.000 A 
ATOM     12  C   UNL     1       8.316  -0.417  -2.381  1.00  0.00     0.000 A 
ENDBRANCH   6   7
ENDBRANCH   1   6
TORSDOF 4
ENDMDL
MODEL 4
REMARK VINA RESULT:      -6.6      1.944      2.626
REMARK SMILES O=C(O)CCc1ccccc1
REMARK SMILES IDX 4 1 2 2 1 3 3 4 5 6 6 7 7 8 11 9 8 10 10 11 9 12
REMARK H PARENT 3 5
REMARK Flexibility Score: inf
ROOT
ATOM      1  C   UNL     1       8.294   0.125  -2.203  1.00  0.00     0.127 C 
ENDROOT
BRANCH   1   2
ATOM      2  C   UNL     1       9.397   0.313  -1.224  1.00  0.00     0.303 C 
ATOM      3  O   UNL     1       9.521  -0.360  -0.170  1.00  0.00    -0.252 OA
BRANCH   2   4
ATOM      4  O   UNL     1      10.355   1.285  -1.472  1.00  0.00    -0.481 OA
ATOM      5  H   UNL     1      11.306   0.946  -1.633  1.00  0.00     0.296 HD
ENDBRANCH   2   4
ENDBRANCH   1   2
BRANCH   1   6
ATOM      6  C   UNL     1       7.171  -0.627  -1.551  1.00  0.00     0.047 C 
BRANCH   6   7
ATOM      7  C   UNL     1       6.398   0.156  -0.589  1.00  0.00    -0.047 A 
ATOM      8  C   UNL     1       6.166  -0.238   0.705  1.00  0.00     0.004 A 
ATOM      9  C   UNL     1       5.867   1.357  -0.988  1.00  0.00     0.004 A 
ATOM     10  C   UNL     1       5.436   0.511   1.598  1.00  0.00     0.000 A 
ATOM     11  C   UNL     1       5.131   2.132  -0.122  1.00  0.00     0.000 A 
ATOM     12  C   UNL     1       4.906   1.716   1.190  1.00  0.00     0.000 A 
ENDBRANCH   6   7
ENDBRANCH   1   6
TORSDOF 4
ENDMDL
MODEL 5
REMARK VINA RESULT:      -6.5      1.897      2.871
REMARK SMILES O=C(O)CCc1ccccc1
REMARK SMILES IDX 4 1 2 2 1 3 3 4 5 6 6 7 7 8 11 9 8 10 10 11 9 12
REMARK H PARENT 3 5
REMARK Flexibility Score: inf
ROOT
ATOM      1  C   UNL     1       8.167  -1.632   1.203  1.00  0.00     0.127 C 
ENDROOT
BRANCH   1   2
ATOM      2  C   UNL     1       8.506  -2.826   0.385  1.00  0.00     0.303 C 
ATOM      3  O   UNL     1       9.186  -3.795   0.807  1.00  0.00    -0.252 OA
BRANCH   2   4
ATOM      4  O   UNL     1       8.054  -2.892  -0.924  1.00  0.00    -0.481 OA
ATOM      5  H   UNL     1       7.810  -3.823  -1.268  1.00  0.00     0.296 HD
ENDBRANCH   2   4
ENDBRANCH   1   2
BRANCH   1   6
ATOM      6  C   UNL     1       6.675  -1.485   1.277  1.00  0.00     0.047 C 
BRANCH   6   7
ATOM      7  C   UNL     1       6.166  -0.225   0.741  1.00  0.00    -0.047 A 
ATOM      8  C   UNL     1       6.382   0.201  -0.547  1.00  0.00     0.004 A 
ATOM      9  C   UNL     1       5.426   0.592   1.559  1.00  0.00     0.004 A 
ATOM     10  C   UNL     1       5.895   1.390  -1.035  1.00  0.00     0.000 A 
ATOM     11  C   UNL     1       4.924   1.789   1.104  1.00  0.00     0.000 A 
ATOM     12  C   UNL     1       5.154   2.205  -0.207  1.00  0.00     0.000 A 
ENDBRANCH   6   7
ENDBRANCH   1   6
TORSDOF 4
ENDMDL
