@<TRIPOS>MOLECULE
/home/cewinharhar/GITHUB/reincatalyze/data/processed/docking_pred/2023-Apr-25-2140_maxeplen10_maxtrainstep200_exh16_gamma099_lrac3e-4_lrcr1e-3/1f53ccdef65850680f3a99c865464637782ca6a5_ligand_2.pdbqt
 12 12 0 0 0
SMALL
GASTEIGER

@<TRIPOS>ATOM
      1  C          8.4560   -0.6300   -2.1460 C.3     1  UNL1        0.1270
      2  C          8.5190   -1.9040   -2.9090 C.2     1  UNL1        0.3030
      3  O          9.5790   -2.5490   -3.1100 O.2     1  UNL1       -0.2520
      4  O          7.3480   -2.4270   -3.4370 O.3     1  UNL1       -0.4810
      5  H          6.6540   -2.7490   -2.7590 H       1  UNL1        0.2960
      6  C          7.0450   -0.1190   -2.1420 C.3     1  UNL1        0.0470
      7  C          6.4790    0.0820   -0.8100 C.2     1  UNL1       -0.0470
      8  C          5.8300    1.2280   -0.4200 C.2     1  UNL1        0.0040
      9  C          6.5950   -0.9230    0.1180 C.2     1  UNL1        0.0040
     10  C          5.3030    1.4000    0.8380 C.2     1  UNL1        0.0000
     11  C          6.0810   -0.7840    1.3860 C.2     1  UNL1        0.0000
     12  C          5.4240    0.3860    1.7630 C.2     1  UNL1        0.0000
@<TRIPOS>BOND
     1     4     2    1
     2     4     5    1
     3     3     2    2
     4     2     1    1
     5     1     6    1
     6     6     7    1
     7     7     8    2
     8     7     9    1
     9     8    10    1
    10     9    11    2
    11    10    12    2
    12    11    12    1
