@<TRIPOS>MOLECULE
/home/cewinharhar/GITHUB/reincatalyze/data/processed/docking_pred/2023-Apr-25-2140_maxeplen10_maxtrainstep200_exh16_gamma099_lrac3e-4_lrcr1e-3/1f774135605f6656ff2aa9e322f53f2a679c664c_ligand_2.pdbqt
 12 12 0 0 0
SMALL
GASTEIGER

@<TRIPOS>ATOM
      1  C          8.4130   -0.5520   -2.2400 C.3     1  UNL1        0.1270
      2  C          8.5010   -1.8710   -2.9180 C.2     1  UNL1        0.3030
      3  O          9.5750   -2.5010   -3.0900 O.2     1  UNL1       -0.2520
      4  O          7.3380   -2.4590   -3.3950 O.3     1  UNL1       -0.4810
      5  H          6.8250   -3.0420   -2.7300 H       1  UNL1        0.2960
      6  C          6.9790   -0.1160   -2.1800 C.3     1  UNL1        0.0470
      7  C          6.4600    0.0700   -0.8270 C.2     1  UNL1       -0.0470
      8  C          5.8440    1.2180   -0.3950 C.2     1  UNL1        0.0040
      9  C          6.5880   -0.9550    0.0780 C.2     1  UNL1        0.0040
     10  C          5.3610    1.3760    0.8820 C.2     1  UNL1        0.0000
     11  C          6.1170   -0.8320    1.3650 C.2     1  UNL1        0.0000
     12  C          5.4940    0.3420    1.7850 C.2     1  UNL1        0.0000
@<TRIPOS>BOND
     1     4     2    1
     2     4     5    1
     3     3     2    2
     4     2     1    1
     5     1     6    1
     6     6     7    1
     7     7     8    2
     8     7     9    1
     9     8    10    1
    10     9    11    2
    11    10    12    2
    12    11    12    1
