@<TRIPOS>MOLECULE
/home/cewinharhar/GITHUB/reincatalyze/data/processed/docking_pred/2023-Apr-25-2140_maxeplen10_maxtrainstep200_exh16_gamma099_lrac3e-4_lrcr1e-3/1f774135605f6656ff2aa9e322f53f2a679c664c_ligand_2.pdbqt
 12 12 0 0 0
SMALL
GASTEIGER

@<TRIPOS>ATOM
      1  C          5.0390    1.7030    0.7230 C.3     1  UNL1        0.1270
      2  C          4.6120    0.9300    1.9180 C.2     1  UNL1        0.3030
      3  O          5.2830   -0.0040    2.4260 O.2     1  UNL1       -0.2520
      4  O          3.4050    1.2440    2.5240 O.3     1  UNL1       -0.4810
      5  H          2.5630    1.0130    1.9920 H       1  UNL1        0.2960
      6  C          6.5340    1.8230    0.7130 C.3     1  UNL1        0.0470
      7  C          7.1930    1.0750   -0.3550 C.2     1  UNL1       -0.0470
      8  C          8.5320    1.1730   -0.6440 C.2     1  UNL1        0.0040
      9  C          6.4430    0.2200   -1.1250 C.2     1  UNL1        0.0040
     10  C          9.1350    0.4610   -1.6530 C.2     1  UNL1        0.0000
     11  C          7.0140   -0.5070   -2.1440 C.2     1  UNL1        0.0000
     12  C          8.3760   -0.3940   -2.4220 C.2     1  UNL1        0.0000
@<TRIPOS>BOND
     1    12    11    2
     2    12    10    1
     3    11     9    1
     4    10     8    2
     5     9     7    2
     6     8     7    1
     7     7     6    1
     8     6     1    1
     9     1     2    1
    10     2     3    2
    11     2     4    1
    12     5     4    1
