@<TRIPOS>MOLECULE
/home/cewinharhar/GITHUB/reincatalyze/data/processed/docking_pred/2023-Apr-25-2140_maxeplen10_maxtrainstep200_exh16_gamma099_lrac3e-4_lrcr1e-3/1f774135605f6656ff2aa9e322f53f2a679c664c_ligand_2.pdbqt
 12 12 0 0 0
SMALL
GASTEIGER

@<TRIPOS>ATOM
      1  C          8.4420   -0.5320   -2.2620 C.3     1  UNL1        0.1270
      2  C          8.5140   -1.8510   -2.9440 C.2     1  UNL1        0.3030
      3  O          9.5800   -2.4920   -3.1190 O.2     1  UNL1       -0.2520
      4  O          7.3440   -2.4230   -3.4230 O.3     1  UNL1       -0.4810
      5  H          6.7680   -2.9080   -2.7320 H       1  UNL1        0.2960
      6  C          7.0100   -0.0910   -2.1780 C.3     1  UNL1        0.0470
      7  C          6.4950    0.0320   -0.8160 C.2     1  UNL1       -0.0470
      8  C          6.6030   -0.9540    0.1340 C.2     1  UNL1        0.0040
      9  C          5.8630    1.1940   -0.4500 C.2     1  UNL1        0.0040
     10  C          6.1130   -0.8210    1.4110 C.2     1  UNL1        0.0000
     11  C          5.3600    1.3600    0.8200 C.2     1  UNL1        0.0000
     12  C          5.4790    0.3490    1.7710 C.2     1  UNL1        0.0000
@<TRIPOS>BOND
     1     4     2    1
     2     4     5    1
     3     3     2    2
     4     2     1    1
     5     1     6    1
     6     6     7    1
     7     7     9    2
     8     7     8    1
     9     9    11    1
    10     8    10    2
    11    11    12    2
    12    10    12    1
