MODEL 1
REMARK VINA RESULT:      -7.3      0.000      0.000
REMARK SMILES O=C(O)CCc1ccccc1
REMARK SMILES IDX 4 1 2 2 1 3 3 4 5 6 6 7 7 8 11 9 8 10 10 11 9 12
REMARK H PARENT 3 5
REMARK Flexibility Score: inf
ROOT
ATOM      1  C   UNL     1       8.442  -0.532  -2.262  1.00  0.00     0.127 C 
ENDROOT
BRANCH   1   2
ATOM      2  C   UNL     1       8.514  -1.851  -2.944  1.00  0.00     0.303 C 
ATOM      3  O   UNL     1       9.580  -2.492  -3.119  1.00  0.00    -0.252 OA
BRANCH   2   4
ATOM      4  O   UNL     1       7.344  -2.423  -3.423  1.00  0.00    -0.481 OA
ATOM      5  H   UNL     1       6.768  -2.908  -2.732  1.00  0.00     0.296 HD
ENDBRANCH   2   4
ENDBRANCH   1   2
BRANCH   1   6
ATOM      6  C   UNL     1       7.010  -0.091  -2.178  1.00  0.00     0.047 C 
BRANCH   6   7
ATOM      7  C   UNL     1       6.495   0.032  -0.816  1.00  0.00    -0.047 A 
ATOM      8  C   UNL     1       6.603  -0.954   0.134  1.00  0.00     0.004 A 
ATOM      9  C   UNL     1       5.863   1.194  -0.450  1.00  0.00     0.004 A 
ATOM     10  C   UNL     1       6.113  -0.821   1.411  1.00  0.00     0.000 A 
ATOM     11  C   UNL     1       5.360   1.360   0.820  1.00  0.00     0.000 A 
ATOM     12  C   UNL     1       5.479   0.349   1.771  1.00  0.00     0.000 A 
ENDBRANCH   6   7
ENDBRANCH   1   6
TORSDOF 4
ENDMDL
MODEL 2
REMARK VINA RESULT:      -7.3      0.047      1.426
REMARK SMILES O=C(O)CCc1ccccc1
REMARK SMILES IDX 4 1 2 2 1 3 3 4 5 6 6 7 7 8 11 9 8 10 10 11 9 12
REMARK H PARENT 3 5
REMARK Flexibility Score: inf
ROOT
ATOM      1  C   UNL     1       8.413  -0.552  -2.240  1.00  0.00     0.127 C 
ENDROOT
BRANCH   1   2
ATOM      2  C   UNL     1       8.501  -1.871  -2.918  1.00  0.00     0.303 C 
ATOM      3  O   UNL     1       9.575  -2.501  -3.090  1.00  0.00    -0.252 OA
BRANCH   2   4
ATOM      4  O   UNL     1       7.338  -2.459  -3.395  1.00  0.00    -0.481 OA
ATOM      5  H   UNL     1       6.825  -3.042  -2.730  1.00  0.00     0.296 HD
ENDBRANCH   2   4
ENDBRANCH   1   2
BRANCH   1   6
ATOM      6  C   UNL     1       6.979  -0.116  -2.180  1.00  0.00     0.047 C 
BRANCH   6   7
ATOM      7  C   UNL     1       6.460   0.070  -0.827  1.00  0.00    -0.047 A 
ATOM      8  C   UNL     1       5.844   1.218  -0.395  1.00  0.00     0.004 A 
ATOM      9  C   UNL     1       6.588  -0.955   0.078  1.00  0.00     0.004 A 
ATOM     10  C   UNL     1       5.361   1.376   0.882  1.00  0.00     0.000 A 
ATOM     11  C   UNL     1       6.117  -0.832   1.365  1.00  0.00     0.000 A 
ATOM     12  C   UNL     1       5.494   0.342   1.785  1.00  0.00     0.000 A 
ENDBRANCH   6   7
ENDBRANCH   1   6
TORSDOF 4
ENDMDL
MODEL 3
REMARK VINA RESULT:      -6.7      3.317      5.028
REMARK SMILES O=C(O)CCc1ccccc1
REMARK SMILES IDX 4 1 2 2 1 3 3 4 5 6 6 7 7 8 11 9 8 10 10 11 9 12
REMARK H PARENT 3 5
REMARK Flexibility Score: inf
ROOT
ATOM      1  C   UNL     1       5.039   1.703   0.723  1.00  0.00     0.127 C 
ENDROOT
BRANCH   1   2
ATOM      2  C   UNL     1       4.612   0.930   1.918  1.00  0.00     0.303 C 
ATOM      3  O   UNL     1       5.283  -0.004   2.426  1.00  0.00    -0.252 OA
BRANCH   2   4
ATOM      4  O   UNL     1       3.405   1.244   2.524  1.00  0.00    -0.481 OA
ATOM      5  H   UNL     1       2.563   1.013   1.992  1.00  0.00     0.296 HD
ENDBRANCH   2   4
ENDBRANCH   1   2
BRANCH   1   6
ATOM      6  C   UNL     1       6.534   1.823   0.713  1.00  0.00     0.047 C 
BRANCH   6   7
ATOM      7  C   UNL     1       7.193   1.075  -0.355  1.00  0.00    -0.047 A 
ATOM      8  C   UNL     1       8.532   1.173  -0.644  1.00  0.00     0.004 A 
ATOM      9  C   UNL     1       6.443   0.220  -1.125  1.00  0.00     0.004 A 
ATOM     10  C   UNL     1       9.135   0.461  -1.653  1.00  0.00     0.000 A 
ATOM     11  C   UNL     1       7.014  -0.507  -2.144  1.00  0.00     0.000 A 
ATOM     12  C   UNL     1       8.376  -0.394  -2.422  1.00  0.00     0.000 A 
ENDBRANCH   6   7
ENDBRANCH   1   6
TORSDOF 4
ENDMDL
MODEL 4
REMARK VINA RESULT:      -6.7      1.933      2.648
REMARK SMILES O=C(O)CCc1ccccc1
REMARK SMILES IDX 4 1 2 2 1 3 3 4 5 6 6 7 7 8 11 9 8 10 10 11 9 12
REMARK H PARENT 3 5
REMARK Flexibility Score: inf
ROOT
ATOM      1  C   UNL     1       8.272   0.176  -2.222  1.00  0.00     0.127 C 
ENDROOT
BRANCH   1   2
ATOM      2  C   UNL     1       9.365   0.340  -1.229  1.00  0.00     0.303 C 
ATOM      3  O   UNL     1       9.492  -0.374  -0.202  1.00  0.00    -0.252 OA
BRANCH   2   4
ATOM      4  O   UNL     1      10.310   1.335  -1.430  1.00  0.00    -0.481 OA
ATOM      5  H   UNL     1      10.782   1.328  -2.337  1.00  0.00     0.296 HD
ENDBRANCH   2   4
ENDBRANCH   1   2
BRANCH   1   6
ATOM      6  C   UNL     1       7.118  -0.538  -1.582  1.00  0.00     0.047 C 
BRANCH   6   7
ATOM      7  C   UNL     1       6.350   0.276  -0.643  1.00  0.00    -0.047 A 
ATOM      8  C   UNL     1       5.805   1.497  -0.957  1.00  0.00     0.004 A 
ATOM      9  C   UNL     1       6.154  -0.192   0.633  1.00  0.00     0.004 A 
ATOM     10  C   UNL     1       5.085   2.250  -0.061  1.00  0.00     0.000 A 
ATOM     11  C   UNL     1       5.439   0.536   1.556  1.00  0.00     0.000 A 
ATOM     12  C   UNL     1       4.893   1.774   1.218  1.00  0.00     0.000 A 
ENDBRANCH   6   7
ENDBRANCH   1   6
TORSDOF 4
ENDMDL
MODEL 5
REMARK VINA RESULT:      -6.6      2.040      2.797
REMARK SMILES O=C(O)CCc1ccccc1
REMARK SMILES IDX 4 1 2 2 1 3 3 4 5 6 6 7 7 8 11 9 8 10 10 11 9 12
REMARK H PARENT 3 5
REMARK Flexibility Score: inf
ROOT
ATOM      1  C   UNL     1       8.010  -2.266   0.855  1.00  0.00     0.127 C 
ENDROOT
BRANCH   1   2
ATOM      2  C   UNL     1       8.794  -3.426   0.357  1.00  0.00     0.303 C 
ATOM      3  O   UNL     1       9.688  -4.006   1.024  1.00  0.00    -0.252 OA
BRANCH   2   4
ATOM      4  O   UNL     1       8.538  -3.912  -0.916  1.00  0.00    -0.481 OA
ATOM      5  H   UNL     1       7.563  -4.139  -1.121  1.00  0.00     0.296 HD
ENDBRANCH   2   4
ENDBRANCH   1   2
BRANCH   1   6
ATOM      6  C   UNL     1       7.465  -1.494  -0.310  1.00  0.00     0.047 C 
BRANCH   6   7
ATOM      7  C   UNL     1       6.609  -0.369   0.058  1.00  0.00    -0.047 A 
ATOM      8  C   UNL     1       6.331   0.685  -0.778  1.00  0.00     0.004 A 
ATOM      9  C   UNL     1       6.043  -0.348   1.308  1.00  0.00     0.004 A 
ATOM     10  C   UNL     1       5.523   1.736  -0.415  1.00  0.00     0.000 A 
ATOM     11  C   UNL     1       5.230   0.688   1.704  1.00  0.00     0.000 A 
ATOM     12  C   UNL     1       4.959   1.750   0.842  1.00  0.00     0.000 A 
ENDBRANCH   6   7
ENDBRANCH   1   6
TORSDOF 4
ENDMDL
