@<TRIPOS>MOLECULE
/home/cewinharhar/GITHUB/reincatalyze/data/processed/docking_pred/2023-Apr-25-2140_maxeplen10_maxtrainstep200_exh16_gamma099_lrac3e-4_lrcr1e-3/1f774135605f6656ff2aa9e322f53f2a679c664c_ligand_2.pdbqt
 12 12 0 0 0
SMALL
GASTEIGER

@<TRIPOS>ATOM
      1  C          8.2720    0.1760   -2.2220 C.3     1  UNL1        0.1270
      2  C          9.3650    0.3400   -1.2290 C.2     1  UNL1        0.3030
      3  O          9.4920   -0.3740   -0.2020 O.2     1  UNL1       -0.2520
      4  O         10.3100    1.3350   -1.4300 O.3     1  UNL1       -0.4810
      5  H         10.7820    1.3280   -2.3370 H       1  UNL1        0.2960
      6  C          7.1180   -0.5380   -1.5820 C.3     1  UNL1        0.0470
      7  C          6.3500    0.2760   -0.6430 C.2     1  UNL1       -0.0470
      8  C          5.8050    1.4970   -0.9570 C.2     1  UNL1        0.0040
      9  C          6.1540   -0.1920    0.6330 C.2     1  UNL1        0.0040
     10  C          5.0850    2.2500   -0.0610 C.2     1  UNL1        0.0000
     11  C          5.4390    0.5360    1.5560 C.2     1  UNL1        0.0000
     12  C          4.8930    1.7740    1.2180 C.2     1  UNL1        0.0000
@<TRIPOS>BOND
     1     5     4    1
     2     1     6    1
     3     1     2    1
     4     6     7    1
     5     4     2    1
     6     2     3    2
     7     8     7    2
     8     8    10    1
     9     7     9    1
    10    10    12    2
    11     9    11    2
    12    12    11    1
