@<TRIPOS>MOLECULE
/home/cewinharhar/GITHUB/reincatalyze/data/processed/docking_pred/2023-Apr-25-2140_maxeplen10_maxtrainstep200_exh16_gamma099_lrac3e-4_lrcr1e-3/1f774135605f6656ff2aa9e322f53f2a679c664c_ligand_2.pdbqt
 12 12 0 0 0
SMALL
GASTEIGER

@<TRIPOS>ATOM
      1  C          8.0100   -2.2660    0.8550 C.3     1  UNL1        0.1270
      2  C          8.7940   -3.4260    0.3570 C.2     1  UNL1        0.3030
      3  O          9.6880   -4.0060    1.0240 O.2     1  UNL1       -0.2520
      4  O          8.5380   -3.9120   -0.9160 O.3     1  UNL1       -0.4810
      5  H          7.5630   -4.1390   -1.1210 H       1  UNL1        0.2960
      6  C          7.4650   -1.4940   -0.3100 C.3     1  UNL1        0.0470
      7  C          6.6090   -0.3690    0.0580 C.2     1  UNL1       -0.0470
      8  C          6.3310    0.6850   -0.7780 C.2     1  UNL1        0.0040
      9  C          6.0430   -0.3480    1.3080 C.2     1  UNL1        0.0040
     10  C          5.5230    1.7360   -0.4150 C.2     1  UNL1        0.0000
     11  C          5.2300    0.6880    1.7040 C.2     1  UNL1        0.0000
     12  C          4.9590    1.7500    0.8420 C.2     1  UNL1        0.0000
@<TRIPOS>BOND
     1     5     4    1
     2     4     2    1
     3     8    10    1
     4     8     7    2
     5    10    12    2
     6     6     7    1
     7     6     1    1
     8     7     9    1
     9     2     1    1
    10     2     3    2
    11    12    11    1
    12     9    11    2
