@<TRIPOS>MOLECULE
/home/cewinharhar/GITHUB/reincatalyze/data/processed/docking_pred/2023-Apr-25-2140_maxeplen10_maxtrainstep200_exh16_gamma099_lrac3e-4_lrcr1e-3/2037f81c995398ea407fbfc0a5ecaefc5001139a_ligand_2.pdbqt
 12 12 0 0 0
SMALL
GASTEIGER

@<TRIPOS>ATOM
      1  C          8.4490   -0.5680   -2.2160 C.3     1  UNL1        0.1270
      2  C          8.5190   -1.8750   -2.9180 C.2     1  UNL1        0.3030
      3  O          9.5840   -2.5180   -3.1000 O.2     1  UNL1       -0.2520
      4  O          7.3490   -2.4360   -3.4080 O.3     1  UNL1       -0.4810
      5  H          6.8450   -1.8840   -4.1060 H       1  UNL1        0.2960
      6  C          7.0290   -0.0840   -2.1990 C.3     1  UNL1        0.0470
      7  C          6.4770    0.1230   -0.8630 C.2     1  UNL1       -0.0470
      8  C          5.8180    1.2650   -0.4770 C.2     1  UNL1        0.0040
      9  C          6.6170   -0.8710    0.0730 C.2     1  UNL1        0.0040
     10  C          5.3040    1.4430    0.7860 C.2     1  UNL1        0.0000
     11  C          6.1160   -0.7250    1.3470 C.2     1  UNL1        0.0000
     12  C          5.4490    0.4400    1.7200 C.2     1  UNL1        0.0000
@<TRIPOS>BOND
     1     5     4    1
     2     4     2    1
     3     3     2    2
     4     2     1    1
     5     1     6    1
     6     6     7    1
     7     7     8    2
     8     7     9    1
     9     8    10    1
    10     9    11    2
    11    10    12    2
    12    11    12    1
