@<TRIPOS>MOLECULE
/home/cewinharhar/GITHUB/reincatalyze/data/processed/docking_pred/2023-Apr-25-2140_maxeplen10_maxtrainstep200_exh16_gamma099_lrac3e-4_lrcr1e-3/2037f81c995398ea407fbfc0a5ecaefc5001139a_ligand_2.pdbqt
 12 12 0 0 0
SMALL
GASTEIGER

@<TRIPOS>ATOM
      1  C          5.2980    2.9000    0.1180 C.3     1  UNL1        0.1270
      2  C          6.2020    3.8370    0.8350 C.2     1  UNL1        0.3030
      3  O          6.8580    4.7490    0.2700 O.2     1  UNL1       -0.2520
      4  O          6.3430    3.7130    2.2090 O.3     1  UNL1       -0.4810
      5  H          6.5340    4.5790    2.7190 H       1  UNL1        0.2960
      6  C          5.2910    1.5750    0.8230 C.3     1  UNL1        0.0470
      7  C          6.0600    0.5300    0.1520 C.2     1  UNL1       -0.0470
      8  C          6.3920    0.5610   -1.1810 C.2     1  UNL1        0.0040
      9  C          6.4820   -0.5540    0.8810 C.2     1  UNL1        0.0040
     10  C          7.1160   -0.4310   -1.7970 C.2     1  UNL1        0.0000
     11  C          7.2080   -1.5660    0.2960 C.2     1  UNL1        0.0000
     12  C          7.5360   -1.5160   -1.0570 C.2     1  UNL1        0.0000
@<TRIPOS>BOND
     1    10     8    1
     2    10    12    2
     3     8     7    2
     4    12    11    1
     5     1     6    1
     6     1     2    1
     7     7     6    1
     8     7     9    1
     9     3     2    2
    10    11     9    2
    11     2     4    1
    12     4     5    1
