@<TRIPOS>MOLECULE
/home/cewinharhar/GITHUB/reincatalyze/data/processed/docking_pred/2023-Apr-25-2140_maxeplen10_maxtrainstep200_exh16_gamma099_lrac3e-4_lrcr1e-3/2037f81c995398ea407fbfc0a5ecaefc5001139a_ligand_2.pdbqt
 12 12 0 0 0
SMALL
GASTEIGER

@<TRIPOS>ATOM
      1  C          8.4830   -0.5900   -2.1790 C.3     1  UNL1        0.1270
      2  C          8.5320   -1.8840   -2.9100 C.2     1  UNL1        0.3030
      3  O          9.5890   -2.5320   -3.1180 O.2     1  UNL1       -0.2520
      4  O          7.3510   -2.4230   -3.3970 O.3     1  UNL1       -0.4810
      5  H          6.8420   -3.0390   -2.7590 H       1  UNL1        0.2960
      6  C          7.0690   -0.0920   -2.1400 C.3     1  UNL1        0.0470
      7  C          6.5140    0.0470   -0.7950 C.2     1  UNL1       -0.0470
      8  C          6.6070   -0.9210    0.1730 C.2     1  UNL1        0.0040
      9  C          5.8580    1.2080   -0.4660 C.2     1  UNL1        0.0040
     10  C          6.0790   -0.7740    1.4340 C.2     1  UNL1        0.0000
     11  C          5.3170    1.3880    0.7860 C.2     1  UNL1        0.0000
     12  C          5.4220    0.3940    1.7570 C.2     1  UNL1        0.0000
@<TRIPOS>BOND
     1     4     2    1
     2     4     5    1
     3     3     2    2
     4     2     1    1
     5     1     6    1
     6     6     7    1
     7     7     9    2
     8     7     8    1
     9     9    11    1
    10     8    10    2
    11    11    12    2
    12    10    12    1
