@<TRIPOS>MOLECULE
/home/cewinharhar/GITHUB/reincatalyze/data/processed/docking_pred/2023-Apr-25-2140_maxeplen10_maxtrainstep200_exh16_gamma099_lrac3e-4_lrcr1e-3/2037f81c995398ea407fbfc0a5ecaefc5001139a_ligand_2.pdbqt
 12 12 0 0 0
SMALL
GASTEIGER

@<TRIPOS>ATOM
      1  C          5.0010    1.7800    0.6890 C.3     1  UNL1        0.1270
      2  C          4.5970    1.0530    1.9210 C.2     1  UNL1        0.3030
      3  O          5.3140    0.1970    2.4970 O.2     1  UNL1       -0.2520
      4  O          3.3580    1.3230    2.4830 O.3     1  UNL1       -0.4810
      5  H          3.3290    2.0910    3.1580 H       1  UNL1        0.2960
      6  C          6.4940    1.9190    0.6590 C.3     1  UNL1        0.0470
      7  C          7.1540    1.1260   -0.3760 C.2     1  UNL1       -0.0470
      8  C          8.5000    1.1870   -0.6430 C.2     1  UNL1        0.0040
      9  C          6.3990    0.2670   -1.1340 C.2     1  UNL1        0.0040
     10  C          9.1040    0.4330   -1.6210 C.2     1  UNL1        0.0000
     11  C          6.9710   -0.5020   -2.1210 C.2     1  UNL1        0.0000
     12  C          8.3390   -0.4280   -2.3780 C.2     1  UNL1        0.0000
@<TRIPOS>BOND
     1    12    11    2
     2    12    10    1
     3    11     9    1
     4    10     8    2
     5     9     7    2
     6     8     7    1
     7     7     6    1
     8     6     1    1
     9     1     2    1
    10     2     4    1
    11     2     3    2
    12     4     5    1
