@<TRIPOS>MOLECULE
/home/cewinharhar/GITHUB/reincatalyze/data/processed/docking_pred/2023-Apr-25-2140_maxeplen10_maxtrainstep200_exh16_gamma099_lrac3e-4_lrcr1e-3/2037f81c995398ea407fbfc0a5ecaefc5001139a_ligand_2.pdbqt
 12 12 0 0 0
SMALL
GASTEIGER

@<TRIPOS>ATOM
      1  C          8.2660    0.1630   -2.1930 C.3     1  UNL1        0.1270
      2  C          9.3750    0.3310   -1.2180 C.2     1  UNL1        0.3030
      3  O          9.5080   -0.3670   -0.1810 O.2     1  UNL1       -0.2520
      4  O         10.3280    1.3110   -1.4490 O.3     1  UNL1       -0.4810
      5  H         10.4910    1.9680   -0.6820 H       1  UNL1        0.2960
      6  C          7.1300   -0.5660   -1.5380 C.3     1  UNL1        0.0470
      7  C          6.3560    0.2420   -0.5980 C.2     1  UNL1       -0.0470
      8  C          5.8180    1.4680   -0.9070 C.2     1  UNL1        0.0040
      9  C          6.1460   -0.2370    0.6710 C.2     1  UNL1        0.0040
     10  C          5.0920    2.2150   -0.0100 C.2     1  UNL1        0.0000
     11  C          5.4250    0.4850    1.5940 C.2     1  UNL1        0.0000
     12  C          4.8860    1.7270    1.2620 C.2     1  UNL1        0.0000
@<TRIPOS>BOND
     1     1     6    1
     2     1     2    1
     3     6     7    1
     4     4     2    1
     5     4     5    1
     6     2     3    2
     7     8     7    2
     8     8    10    1
     9     7     9    1
    10    10    12    2
    11     9    11    2
    12    12    11    1
