MODEL 1
REMARK VINA RESULT:      -7.4      0.000      0.000
REMARK SMILES O=C(O)CCc1ccccc1
REMARK SMILES IDX 4 1 2 2 1 3 3 4 5 6 6 7 7 8 11 9 8 10 10 11 9 12
REMARK H PARENT 3 5
REMARK Flexibility Score: inf
ROOT
ATOM      1  C   UNL     1       8.483  -0.590  -2.179  1.00  0.00     0.127 C 
ENDROOT
BRANCH   1   2
ATOM      2  C   UNL     1       8.532  -1.884  -2.910  1.00  0.00     0.303 C 
ATOM      3  O   UNL     1       9.589  -2.532  -3.118  1.00  0.00    -0.252 OA
BRANCH   2   4
ATOM      4  O   UNL     1       7.351  -2.423  -3.397  1.00  0.00    -0.481 OA
ATOM      5  H   UNL     1       6.842  -3.039  -2.759  1.00  0.00     0.296 HD
ENDBRANCH   2   4
ENDBRANCH   1   2
BRANCH   1   6
ATOM      6  C   UNL     1       7.069  -0.092  -2.140  1.00  0.00     0.047 C 
BRANCH   6   7
ATOM      7  C   UNL     1       6.514   0.047  -0.795  1.00  0.00    -0.047 A 
ATOM      8  C   UNL     1       6.607  -0.921   0.173  1.00  0.00     0.004 A 
ATOM      9  C   UNL     1       5.858   1.208  -0.466  1.00  0.00     0.004 A 
ATOM     10  C   UNL     1       6.079  -0.774   1.434  1.00  0.00     0.000 A 
ATOM     11  C   UNL     1       5.317   1.388   0.786  1.00  0.00     0.000 A 
ATOM     12  C   UNL     1       5.422   0.394   1.757  1.00  0.00     0.000 A 
ENDBRANCH   6   7
ENDBRANCH   1   6
TORSDOF 4
ENDMDL
MODEL 2
REMARK VINA RESULT:      -7.4      0.072      1.427
REMARK SMILES O=C(O)CCc1ccccc1
REMARK SMILES IDX 4 1 2 2 1 3 3 4 5 6 6 7 7 8 11 9 8 10 10 11 9 12
REMARK H PARENT 3 5
REMARK Flexibility Score: inf
ROOT
ATOM      1  C   UNL     1       8.449  -0.568  -2.216  1.00  0.00     0.127 C 
ENDROOT
BRANCH   1   2
ATOM      2  C   UNL     1       8.519  -1.875  -2.918  1.00  0.00     0.303 C 
ATOM      3  O   UNL     1       9.584  -2.518  -3.100  1.00  0.00    -0.252 OA
BRANCH   2   4
ATOM      4  O   UNL     1       7.349  -2.436  -3.408  1.00  0.00    -0.481 OA
ATOM      5  H   UNL     1       6.845  -1.884  -4.106  1.00  0.00     0.296 HD
ENDBRANCH   2   4
ENDBRANCH   1   2
BRANCH   1   6
ATOM      6  C   UNL     1       7.029  -0.084  -2.199  1.00  0.00     0.047 C 
BRANCH   6   7
ATOM      7  C   UNL     1       6.477   0.123  -0.863  1.00  0.00    -0.047 A 
ATOM      8  C   UNL     1       5.818   1.265  -0.477  1.00  0.00     0.004 A 
ATOM      9  C   UNL     1       6.617  -0.871   0.073  1.00  0.00     0.004 A 
ATOM     10  C   UNL     1       5.304   1.443   0.786  1.00  0.00     0.000 A 
ATOM     11  C   UNL     1       6.116  -0.725   1.347  1.00  0.00     0.000 A 
ATOM     12  C   UNL     1       5.449   0.440   1.720  1.00  0.00     0.000 A 
ENDBRANCH   6   7
ENDBRANCH   1   6
TORSDOF 4
ENDMDL
MODEL 3
REMARK VINA RESULT:      -6.8      3.338      5.049
REMARK SMILES O=C(O)CCc1ccccc1
REMARK SMILES IDX 4 1 2 2 1 3 3 4 5 6 6 7 7 8 11 9 8 10 10 11 9 12
REMARK H PARENT 3 5
REMARK Flexibility Score: inf
ROOT
ATOM      1  C   UNL     1       5.001   1.780   0.689  1.00  0.00     0.127 C 
ENDROOT
BRANCH   1   2
ATOM      2  C   UNL     1       4.597   1.053   1.921  1.00  0.00     0.303 C 
ATOM      3  O   UNL     1       5.314   0.197   2.497  1.00  0.00    -0.252 OA
BRANCH   2   4
ATOM      4  O   UNL     1       3.358   1.323   2.483  1.00  0.00    -0.481 OA
ATOM      5  H   UNL     1       3.329   2.091   3.158  1.00  0.00     0.296 HD
ENDBRANCH   2   4
ENDBRANCH   1   2
BRANCH   1   6
ATOM      6  C   UNL     1       6.494   1.919   0.659  1.00  0.00     0.047 C 
BRANCH   6   7
ATOM      7  C   UNL     1       7.154   1.126  -0.376  1.00  0.00    -0.047 A 
ATOM      8  C   UNL     1       8.500   1.187  -0.643  1.00  0.00     0.004 A 
ATOM      9  C   UNL     1       6.399   0.267  -1.134  1.00  0.00     0.004 A 
ATOM     10  C   UNL     1       9.104   0.433  -1.621  1.00  0.00     0.000 A 
ATOM     11  C   UNL     1       6.971  -0.502  -2.121  1.00  0.00     0.000 A 
ATOM     12  C   UNL     1       8.339  -0.428  -2.378  1.00  0.00     0.000 A 
ENDBRANCH   6   7
ENDBRANCH   1   6
TORSDOF 4
ENDMDL
MODEL 4
REMARK VINA RESULT:      -6.7      1.937      2.636
REMARK SMILES O=C(O)CCc1ccccc1
REMARK SMILES IDX 4 1 2 2 1 3 3 4 5 6 6 7 7 8 11 9 8 10 10 11 9 12
REMARK H PARENT 3 5
REMARK Flexibility Score: inf
ROOT
ATOM      1  C   UNL     1       8.266   0.163  -2.193  1.00  0.00     0.127 C 
ENDROOT
BRANCH   1   2
ATOM      2  C   UNL     1       9.375   0.331  -1.218  1.00  0.00     0.303 C 
ATOM      3  O   UNL     1       9.508  -0.367  -0.181  1.00  0.00    -0.252 OA
BRANCH   2   4
ATOM      4  O   UNL     1      10.328   1.311  -1.449  1.00  0.00    -0.481 OA
ATOM      5  H   UNL     1      10.491   1.968  -0.682  1.00  0.00     0.296 HD
ENDBRANCH   2   4
ENDBRANCH   1   2
BRANCH   1   6
ATOM      6  C   UNL     1       7.130  -0.566  -1.538  1.00  0.00     0.047 C 
BRANCH   6   7
ATOM      7  C   UNL     1       6.356   0.242  -0.598  1.00  0.00    -0.047 A 
ATOM      8  C   UNL     1       5.818   1.468  -0.907  1.00  0.00     0.004 A 
ATOM      9  C   UNL     1       6.146  -0.237   0.671  1.00  0.00     0.004 A 
ATOM     10  C   UNL     1       5.092   2.215  -0.010  1.00  0.00     0.000 A 
ATOM     11  C   UNL     1       5.425   0.485   1.594  1.00  0.00     0.000 A 
ATOM     12  C   UNL     1       4.886   1.727   1.262  1.00  0.00     0.000 A 
ENDBRANCH   6   7
ENDBRANCH   1   6
TORSDOF 4
ENDMDL
MODEL 5
REMARK VINA RESULT:      -6.5      3.697      5.112
REMARK SMILES O=C(O)CCc1ccccc1
REMARK SMILES IDX 4 1 2 2 1 3 3 4 5 6 6 7 7 8 11 9 8 10 10 11 9 12
REMARK H PARENT 3 5
REMARK Flexibility Score: inf
ROOT
ATOM      1  C   UNL     1       5.298   2.900   0.118  1.00  0.00     0.127 C 
ENDROOT
BRANCH   1   2
ATOM      2  C   UNL     1       6.202   3.837   0.835  1.00  0.00     0.303 C 
ATOM      3  O   UNL     1       6.858   4.749   0.270  1.00  0.00    -0.252 OA
BRANCH   2   4
ATOM      4  O   UNL     1       6.343   3.713   2.209  1.00  0.00    -0.481 OA
ATOM      5  H   UNL     1       6.534   4.579   2.719  1.00  0.00     0.296 HD
ENDBRANCH   2   4
ENDBRANCH   1   2
BRANCH   1   6
ATOM      6  C   UNL     1       5.291   1.575   0.823  1.00  0.00     0.047 C 
BRANCH   6   7
ATOM      7  C   UNL     1       6.060   0.530   0.152  1.00  0.00    -0.047 A 
ATOM      8  C   UNL     1       6.392   0.561  -1.181  1.00  0.00     0.004 A 
ATOM      9  C   UNL     1       6.482  -0.554   0.881  1.00  0.00     0.004 A 
ATOM     10  C   UNL     1       7.116  -0.431  -1.797  1.00  0.00     0.000 A 
ATOM     11  C   UNL     1       7.208  -1.566   0.296  1.00  0.00     0.000 A 
ATOM     12  C   UNL     1       7.536  -1.516  -1.057  1.00  0.00     0.000 A 
ENDBRANCH   6   7
ENDBRANCH   1   6
TORSDOF 4
ENDMDL
