@<TRIPOS>MOLECULE
/home/cewinharhar/GITHUB/reincatalyze/data/processed/docking_pred/2023-Apr-25-2140_maxeplen10_maxtrainstep200_exh16_gamma099_lrac3e-4_lrcr1e-3/21195065f8807259401ec3420f3b6dd683f2acc0_ligand_2.pdbqt
 12 12 0 0 0
SMALL
GASTEIGER

@<TRIPOS>ATOM
      1  C          8.4380   -0.5870   -2.1420 C.3     1  UNL1        0.1270
      2  C          8.4990   -1.8710   -2.8870 C.2     1  UNL1        0.3030
      3  O          9.5570   -2.5210   -3.0800 O.2     1  UNL1       -0.2520
      4  O          7.3270   -2.3990   -3.4090 O.3     1  UNL1       -0.4810
      5  H          7.3880   -3.3520   -3.7740 H       1  UNL1        0.2960
      6  C          7.0170   -0.1090   -2.0840 C.3     1  UNL1        0.0470
      7  C          6.4750    0.0110   -0.7330 C.2     1  UNL1       -0.0470
      8  C          6.5720   -0.9740    0.2200 C.2     1  UNL1        0.0040
      9  C          5.8260    1.1680   -0.3800 C.2     1  UNL1        0.0040
     10  C          6.0560   -0.8440    1.4870 C.2     1  UNL1        0.0000
     11  C          5.2960    1.3310    0.8790 C.2     1  UNL1        0.0000
     12  C          5.4050    0.3200    1.8340 C.2     1  UNL1        0.0000
@<TRIPOS>BOND
     1     5     4    1
     2     4     2    1
     3     3     2    2
     4     2     1    1
     5     1     6    1
     6     6     7    1
     7     7     9    2
     8     7     8    1
     9     9    11    1
    10     8    10    2
    11    11    12    2
    12    10    12    1
