@<TRIPOS>MOLECULE
/home/cewinharhar/GITHUB/reincatalyze/data/processed/docking_pred/2023-Apr-25-2140_maxeplen10_maxtrainstep200_exh16_gamma099_lrac3e-4_lrcr1e-3/21195065f8807259401ec3420f3b6dd683f2acc0_ligand_2.pdbqt
 12 12 0 0 0
SMALL
GASTEIGER

@<TRIPOS>ATOM
      1  C          5.4170    2.8960    0.0090 C.3     1  UNL1        0.1270
      2  C          6.2440    3.8580    0.7840 C.2     1  UNL1        0.3030
      3  O          6.9350    4.7680    0.2610 O.2     1  UNL1       -0.2520
      4  O          6.2660    3.7610    2.1670 O.3     1  UNL1       -0.4810
      5  H          6.2320    4.6450    2.6790 H       1  UNL1        0.2960
      6  C          4.9180    1.8160    0.9240 C.3     1  UNL1        0.0470
      7  C          5.7250    0.5980    0.9180 C.2     1  UNL1       -0.0470
      8  C          6.4320    0.1560   -0.1730 C.2     1  UNL1        0.0040
      9  C          5.7890   -0.1590    2.0610 C.2     1  UNL1        0.0040
     10  C          7.1860   -0.9930   -0.1620 C.2     1  UNL1        0.0000
     11  C          6.5340   -1.3150    2.1070 C.2     1  UNL1        0.0000
     12  C          7.2460   -1.7490    0.9900 C.2     1  UNL1        0.0000
@<TRIPOS>BOND
     1     8    10    1
     2     8     7    2
     3    10    12    2
     4     1     2    1
     5     1     6    1
     6     3     2    2
     7     2     4    1
     8     7     6    1
     9     7     9    1
    10    12    11    1
    11     9    11    2
    12     4     5    1
