@<TRIPOS>MOLECULE
/home/cewinharhar/GITHUB/reincatalyze/data/processed/docking_pred/2023-Apr-25-2140_maxeplen10_maxtrainstep200_exh16_gamma099_lrac3e-4_lrcr1e-3/21195065f8807259401ec3420f3b6dd683f2acc0_ligand_2.pdbqt
 12 12 0 0 0
SMALL
GASTEIGER

@<TRIPOS>ATOM
      1  C          4.9970    1.7770    0.7190 C.3     1  UNL1        0.1270
      2  C          4.5060    1.0810    1.9370 C.2     1  UNL1        0.3030
      3  O          3.3930    1.3120    2.4750 O.2     1  UNL1       -0.2520
      4  O          5.3080    0.1170    2.5290 O.3     1  UNL1       -0.4810
      5  H          6.0980   -0.2140    1.9690 H       1  UNL1        0.2960
      6  C          6.4960    1.8350    0.7480 C.3     1  UNL1        0.0470
      7  C          7.1500    1.0910   -0.3260 C.2     1  UNL1       -0.0470
      8  C          8.4830    1.2080   -0.6340 C.2     1  UNL1        0.0040
      9  C          6.4020    0.2220   -1.0800 C.2     1  UNL1        0.0040
     10  C          9.0830    0.5000   -1.6490 C.2     1  UNL1        0.0000
     11  C          6.9700   -0.5020   -2.1040 C.2     1  UNL1        0.0000
     12  C          8.3250   -0.3710   -2.4020 C.2     1  UNL1        0.0000
@<TRIPOS>BOND
     1    12    11    2
     2    12    10    1
     3    11     9    1
     4    10     8    2
     5     9     7    2
     6     8     7    1
     7     7     6    1
     8     1     6    1
     9     1     2    1
    10     2     3    2
    11     2     4    1
    12     5     4    1
