MODEL 1
REMARK VINA RESULT:      -7.4      0.000      0.000
REMARK SMILES O=C(O)CCc1ccccc1
REMARK SMILES IDX 4 1 2 2 1 3 3 4 5 6 6 7 7 8 11 9 8 10 10 11 9 12
REMARK H PARENT 3 5
REMARK Flexibility Score: inf
ROOT
ATOM      1  C   UNL     1       8.451  -0.618  -2.165  1.00  0.00     0.127 C 
ENDROOT
BRANCH   1   2
ATOM      2  C   UNL     1       8.510  -1.900  -2.914  1.00  0.00     0.303 C 
ATOM      3  O   UNL     1       9.568  -2.549  -3.110  1.00  0.00    -0.252 OA
BRANCH   2   4
ATOM      4  O   UNL     1       7.338  -2.427  -3.435  1.00  0.00    -0.481 OA
ATOM      5  H   UNL     1       6.947  -3.230  -2.937  1.00  0.00     0.296 HD
ENDBRANCH   2   4
ENDBRANCH   1   2
BRANCH   1   6
ATOM      6  C   UNL     1       7.040  -0.109  -2.156  1.00  0.00     0.047 C 
BRANCH   6   7
ATOM      7  C   UNL     1       6.480   0.098  -0.822  1.00  0.00    -0.047 A 
ATOM      8  C   UNL     1       5.838   1.247  -0.432  1.00  0.00     0.004 A 
ATOM      9  C   UNL     1       6.596  -0.906   0.107  1.00  0.00     0.004 A 
ATOM     10  C   UNL     1       5.317   1.424   0.827  1.00  0.00     0.000 A 
ATOM     11  C   UNL     1       6.087  -0.762   1.377  1.00  0.00     0.000 A 
ATOM     12  C   UNL     1       5.438   0.412   1.755  1.00  0.00     0.000 A 
ENDBRANCH   6   7
ENDBRANCH   1   6
TORSDOF 4
ENDMDL
MODEL 2
REMARK VINA RESULT:      -7.4      0.096      1.429
REMARK SMILES O=C(O)CCc1ccccc1
REMARK SMILES IDX 4 1 2 2 1 3 3 4 5 6 6 7 7 8 11 9 8 10 10 11 9 12
REMARK H PARENT 3 5
REMARK Flexibility Score: inf
ROOT
ATOM      1  C   UNL     1       8.438  -0.587  -2.142  1.00  0.00     0.127 C 
ENDROOT
BRANCH   1   2
ATOM      2  C   UNL     1       8.499  -1.871  -2.887  1.00  0.00     0.303 C 
ATOM      3  O   UNL     1       9.557  -2.521  -3.080  1.00  0.00    -0.252 OA
BRANCH   2   4
ATOM      4  O   UNL     1       7.327  -2.399  -3.409  1.00  0.00    -0.481 OA
ATOM      5  H   UNL     1       7.388  -3.352  -3.774  1.00  0.00     0.296 HD
ENDBRANCH   2   4
ENDBRANCH   1   2
BRANCH   1   6
ATOM      6  C   UNL     1       7.017  -0.109  -2.084  1.00  0.00     0.047 C 
BRANCH   6   7
ATOM      7  C   UNL     1       6.475   0.011  -0.733  1.00  0.00    -0.047 A 
ATOM      8  C   UNL     1       6.572  -0.974   0.220  1.00  0.00     0.004 A 
ATOM      9  C   UNL     1       5.826   1.168  -0.380  1.00  0.00     0.004 A 
ATOM     10  C   UNL     1       6.056  -0.844   1.487  1.00  0.00     0.000 A 
ATOM     11  C   UNL     1       5.296   1.331   0.879  1.00  0.00     0.000 A 
ATOM     12  C   UNL     1       5.405   0.320   1.834  1.00  0.00     0.000 A 
ENDBRANCH   6   7
ENDBRANCH   1   6
TORSDOF 4
ENDMDL
MODEL 3
REMARK VINA RESULT:      -6.7      3.837      4.945
REMARK SMILES O=C(O)CCc1ccccc1
REMARK SMILES IDX 4 1 2 2 1 3 3 4 5 6 6 7 7 8 11 9 8 10 10 11 9 12
REMARK H PARENT 3 5
REMARK Flexibility Score: inf
ROOT
ATOM      1  C   UNL     1       5.417   2.896   0.009  1.00  0.00     0.127 C 
ENDROOT
BRANCH   1   2
ATOM      2  C   UNL     1       6.244   3.858   0.784  1.00  0.00     0.303 C 
ATOM      3  O   UNL     1       6.935   4.768   0.261  1.00  0.00    -0.252 OA
BRANCH   2   4
ATOM      4  O   UNL     1       6.266   3.761   2.167  1.00  0.00    -0.481 OA
ATOM      5  H   UNL     1       6.232   4.645   2.679  1.00  0.00     0.296 HD
ENDBRANCH   2   4
ENDBRANCH   1   2
BRANCH   1   6
ATOM      6  C   UNL     1       4.918   1.816   0.924  1.00  0.00     0.047 C 
BRANCH   6   7
ATOM      7  C   UNL     1       5.725   0.598   0.918  1.00  0.00    -0.047 A 
ATOM      8  C   UNL     1       6.432   0.156  -0.173  1.00  0.00     0.004 A 
ATOM      9  C   UNL     1       5.789  -0.159   2.061  1.00  0.00     0.004 A 
ATOM     10  C   UNL     1       7.186  -0.993  -0.162  1.00  0.00     0.000 A 
ATOM     11  C   UNL     1       6.534  -1.315   2.107  1.00  0.00     0.000 A 
ATOM     12  C   UNL     1       7.246  -1.749   0.990  1.00  0.00     0.000 A 
ENDBRANCH   6   7
ENDBRANCH   1   6
TORSDOF 4
ENDMDL
MODEL 4
REMARK VINA RESULT:      -6.7      3.344      5.127
REMARK SMILES O=C(O)CCc1ccccc1
REMARK SMILES IDX 4 1 2 2 1 3 3 4 5 6 6 7 7 8 11 9 8 10 10 11 9 12
REMARK H PARENT 3 5
REMARK Flexibility Score: inf
ROOT
ATOM      1  C   UNL     1       4.997   1.777   0.719  1.00  0.00     0.127 C 
ENDROOT
BRANCH   1   2
ATOM      2  C   UNL     1       4.506   1.081   1.937  1.00  0.00     0.303 C 
ATOM      3  O   UNL     1       3.393   1.312   2.475  1.00  0.00    -0.252 OA
BRANCH   2   4
ATOM      4  O   UNL     1       5.308   0.117   2.529  1.00  0.00    -0.481 OA
ATOM      5  H   UNL     1       6.098  -0.214   1.969  1.00  0.00     0.296 HD
ENDBRANCH   2   4
ENDBRANCH   1   2
BRANCH   1   6
ATOM      6  C   UNL     1       6.496   1.835   0.748  1.00  0.00     0.047 C 
BRANCH   6   7
ATOM      7  C   UNL     1       7.150   1.091  -0.326  1.00  0.00    -0.047 A 
ATOM      8  C   UNL     1       8.483   1.208  -0.634  1.00  0.00     0.004 A 
ATOM      9  C   UNL     1       6.402   0.222  -1.080  1.00  0.00     0.004 A 
ATOM     10  C   UNL     1       9.083   0.500  -1.649  1.00  0.00     0.000 A 
ATOM     11  C   UNL     1       6.970  -0.502  -2.104  1.00  0.00     0.000 A 
ATOM     12  C   UNL     1       8.325  -0.371  -2.402  1.00  0.00     0.000 A 
ENDBRANCH   6   7
ENDBRANCH   1   6
TORSDOF 4
ENDMDL
MODEL 5
REMARK VINA RESULT:      -6.7      1.967      2.254
REMARK SMILES O=C(O)CCc1ccccc1
REMARK SMILES IDX 4 1 2 2 1 3 3 4 5 6 6 7 7 8 11 9 8 10 10 11 9 12
REMARK H PARENT 3 5
REMARK Flexibility Score: inf
ROOT
ATOM      1  C   UNL     1       8.209   0.266  -2.091  1.00  0.00     0.127 C 
ENDROOT
BRANCH   1   2
ATOM      2  C   UNL     1       9.367   0.354  -1.163  1.00  0.00     0.303 C 
ATOM      3  O   UNL     1       9.510  -0.376  -0.150  1.00  0.00    -0.252 OA
BRANCH   2   4
ATOM      4  O   UNL     1      10.358   1.291  -1.415  1.00  0.00    -0.481 OA
ATOM      5  H   UNL     1      10.587   1.919  -0.641  1.00  0.00     0.296 HD
ENDBRANCH   2   4
ENDBRANCH   1   2
BRANCH   1   6
ATOM      6  C   UNL     1       7.121  -0.548  -1.456  1.00  0.00     0.047 C 
BRANCH   6   7
ATOM      7  C   UNL     1       6.341   0.167  -0.448  1.00  0.00    -0.047 A 
ATOM      8  C   UNL     1       5.774   1.401  -0.655  1.00  0.00     0.004 A 
ATOM      9  C   UNL     1       6.156  -0.414   0.782  1.00  0.00     0.004 A 
ATOM     10  C   UNL     1       5.043   2.060   0.304  1.00  0.00     0.000 A 
ATOM     11  C   UNL     1       5.431   0.218   1.765  1.00  0.00     0.000 A 
ATOM     12  C   UNL     1       4.862   1.470   1.537  1.00  0.00     0.000 A 
ENDBRANCH   6   7
ENDBRANCH   1   6
TORSDOF 4
ENDMDL
