@<TRIPOS>MOLECULE
/home/cewinharhar/GITHUB/reincatalyze/data/processed/docking_pred/2023-Apr-25-2140_maxeplen10_maxtrainstep200_exh16_gamma099_lrac3e-4_lrcr1e-3/21195065f8807259401ec3420f3b6dd683f2acc0_ligand_2.pdbqt
 12 12 0 0 0
SMALL
GASTEIGER

@<TRIPOS>ATOM
      1  C          8.2090    0.2660   -2.0910 C.3     1  UNL1        0.1270
      2  C          9.3670    0.3540   -1.1630 C.2     1  UNL1        0.3030
      3  O          9.5100   -0.3760   -0.1500 O.2     1  UNL1       -0.2520
      4  O         10.3580    1.2910   -1.4150 O.3     1  UNL1       -0.4810
      5  H         10.5870    1.9190   -0.6410 H       1  UNL1        0.2960
      6  C          7.1210   -0.5480   -1.4560 C.3     1  UNL1        0.0470
      7  C          6.3410    0.1670   -0.4480 C.2     1  UNL1       -0.0470
      8  C          5.7740    1.4010   -0.6550 C.2     1  UNL1        0.0040
      9  C          6.1560   -0.4140    0.7820 C.2     1  UNL1        0.0040
     10  C          5.0430    2.0600    0.3040 C.2     1  UNL1        0.0000
     11  C          5.4310    0.2180    1.7650 C.2     1  UNL1        0.0000
     12  C          4.8620    1.4700    1.5370 C.2     1  UNL1        0.0000
@<TRIPOS>BOND
     1     1     6    1
     2     1     2    1
     3     6     7    1
     4     4     2    1
     5     4     5    1
     6     2     3    2
     7     8     7    2
     8     8    10    1
     9     7     9    1
    10    10    12    2
    11     9    11    2
    12    12    11    1
