@<TRIPOS>MOLECULE
/home/cewinharhar/GITHUB/reincatalyze/data/processed/docking_pred/2023-Apr-25-2140_maxeplen10_maxtrainstep200_exh16_gamma099_lrac3e-4_lrcr1e-3/21195065f8807259401ec3420f3b6dd683f2acc0_ligand_2.pdbqt
 12 12 0 0 0
SMALL
GASTEIGER

@<TRIPOS>ATOM
      1  C          8.4510   -0.6180   -2.1650 C.3     1  UNL1        0.1270
      2  C          8.5100   -1.9000   -2.9140 C.2     1  UNL1        0.3030
      3  O          9.5680   -2.5490   -3.1100 O.2     1  UNL1       -0.2520
      4  O          7.3380   -2.4270   -3.4350 O.3     1  UNL1       -0.4810
      5  H          6.9470   -3.2300   -2.9370 H       1  UNL1        0.2960
      6  C          7.0400   -0.1090   -2.1560 C.3     1  UNL1        0.0470
      7  C          6.4800    0.0980   -0.8220 C.2     1  UNL1       -0.0470
      8  C          5.8380    1.2470   -0.4320 C.2     1  UNL1        0.0040
      9  C          6.5960   -0.9060    0.1070 C.2     1  UNL1        0.0040
     10  C          5.3170    1.4240    0.8270 C.2     1  UNL1        0.0000
     11  C          6.0870   -0.7620    1.3770 C.2     1  UNL1        0.0000
     12  C          5.4380    0.4120    1.7550 C.2     1  UNL1        0.0000
@<TRIPOS>BOND
     1     4     5    1
     2     4     2    1
     3     3     2    2
     4     2     1    1
     5     1     6    1
     6     6     7    1
     7     7     8    2
     8     7     9    1
     9     8    10    1
    10     9    11    2
    11    10    12    2
    12    11    12    1
