@<TRIPOS>MOLECULE
/home/cewinharhar/GITHUB/reincatalyze/data/processed/docking_pred/2023-Apr-25-2140_maxeplen10_maxtrainstep200_exh16_gamma099_lrac3e-4_lrcr1e-3/225d7738cc918e3754e3779366d54ccb252183f1_ligand_2.pdbqt
 12 12 0 0 0
SMALL
GASTEIGER

@<TRIPOS>ATOM
      1  C          8.4870   -0.5770   -2.1840 C.3     1  UNL1        0.1270
      2  C          8.5210   -1.8710   -2.9150 C.2     1  UNL1        0.3030
      3  O          9.5670   -2.5420   -3.1040 O.2     1  UNL1       -0.2520
      4  O          7.3380   -2.3840   -3.4250 O.3     1  UNL1       -0.4810
      5  H          7.1080   -2.1130   -4.3830 H       1  UNL1        0.2960
      6  C          7.0760   -0.0680   -2.1350 C.3     1  UNL1        0.0470
      7  C          6.5210    0.0430   -0.7880 C.2     1  UNL1       -0.0470
      8  C          6.6370   -0.9340    0.1700 C.2     1  UNL1        0.0040
      9  C          5.8400    1.1850   -0.4450 C.2     1  UNL1        0.0040
     10  C          6.1090   -0.8130    1.4330 C.2     1  UNL1        0.0000
     11  C          5.2970    1.3390    0.8100 C.2     1  UNL1        0.0000
     12  C          5.4260    0.3370    1.7690 C.2     1  UNL1        0.0000
@<TRIPOS>BOND
     1     5     4    1
     2     4     2    1
     3     3     2    2
     4     2     1    1
     5     1     6    1
     6     6     7    1
     7     7     9    2
     8     7     8    1
     9     9    11    1
    10     8    10    2
    11    11    12    2
    12    10    12    1
