MODEL 1
REMARK VINA RESULT:      -7.4      0.000      0.000
REMARK SMILES O=C(O)CCc1ccccc1
REMARK SMILES IDX 4 1 2 2 1 3 3 4 5 6 6 7 7 8 11 9 8 10 10 11 9 12
REMARK H PARENT 3 5
REMARK Flexibility Score: inf
ROOT
ATOM      1  C   UNL     1       8.487  -0.577  -2.184  1.00  0.00     0.127 C 
ENDROOT
BRANCH   1   2
ATOM      2  C   UNL     1       8.521  -1.871  -2.915  1.00  0.00     0.303 C 
ATOM      3  O   UNL     1       9.567  -2.542  -3.104  1.00  0.00    -0.252 OA
BRANCH   2   4
ATOM      4  O   UNL     1       7.338  -2.384  -3.425  1.00  0.00    -0.481 OA
ATOM      5  H   UNL     1       7.108  -2.113  -4.383  1.00  0.00     0.296 HD
ENDBRANCH   2   4
ENDBRANCH   1   2
BRANCH   1   6
ATOM      6  C   UNL     1       7.076  -0.068  -2.135  1.00  0.00     0.047 C 
BRANCH   6   7
ATOM      7  C   UNL     1       6.521   0.043  -0.788  1.00  0.00    -0.047 A 
ATOM      8  C   UNL     1       6.637  -0.934   0.170  1.00  0.00     0.004 A 
ATOM      9  C   UNL     1       5.840   1.185  -0.445  1.00  0.00     0.004 A 
ATOM     10  C   UNL     1       6.109  -0.813   1.433  1.00  0.00     0.000 A 
ATOM     11  C   UNL     1       5.297   1.339   0.810  1.00  0.00     0.000 A 
ATOM     12  C   UNL     1       5.426   0.337   1.769  1.00  0.00     0.000 A 
ENDBRANCH   6   7
ENDBRANCH   1   6
TORSDOF 4
ENDMDL
MODEL 2
REMARK VINA RESULT:      -7.3      0.070      1.426
REMARK SMILES O=C(O)CCc1ccccc1
REMARK SMILES IDX 4 1 2 2 1 3 3 4 5 6 6 7 7 8 11 9 8 10 10 11 9 12
REMARK H PARENT 3 5
REMARK Flexibility Score: inf
ROOT
ATOM      1  C   UNL     1       8.427  -0.569  -2.207  1.00  0.00     0.127 C 
ENDROOT
BRANCH   1   2
ATOM      2  C   UNL     1       8.495  -1.880  -2.904  1.00  0.00     0.303 C 
ATOM      3  O   UNL     1       9.556  -2.535  -3.061  1.00  0.00    -0.252 OA
BRANCH   2   4
ATOM      4  O   UNL     1       7.330  -2.428  -3.418  1.00  0.00    -0.481 OA
ATOM      5  H   UNL     1       6.785  -3.007  -2.774  1.00  0.00     0.296 HD
ENDBRANCH   2   4
ENDBRANCH   1   2
BRANCH   1   6
ATOM      6  C   UNL     1       7.001  -0.104  -2.157  1.00  0.00     0.047 C 
BRANCH   6   7
ATOM      7  C   UNL     1       6.470   0.071  -0.807  1.00  0.00    -0.047 A 
ATOM      8  C   UNL     1       5.844   1.214  -0.374  1.00  0.00     0.004 A 
ATOM      9  C   UNL     1       6.597  -0.958   0.094  1.00  0.00     0.004 A 
ATOM     10  C   UNL     1       5.350   1.362   0.900  1.00  0.00     0.000 A 
ATOM     11  C   UNL     1       6.115  -0.843   1.377  1.00  0.00     0.000 A 
ATOM     12  C   UNL     1       5.482   0.325   1.798  1.00  0.00     0.000 A 
ENDBRANCH   6   7
ENDBRANCH   1   6
TORSDOF 4
ENDMDL
MODEL 3
REMARK VINA RESULT:      -6.8      3.369      5.077
REMARK SMILES O=C(O)CCc1ccccc1
REMARK SMILES IDX 4 1 2 2 1 3 3 4 5 6 6 7 7 8 11 9 8 10 10 11 9 12
REMARK H PARENT 3 5
REMARK Flexibility Score: inf
ROOT
ATOM      1  C   UNL     1       4.989   1.805   0.690  1.00  0.00     0.127 C 
ENDROOT
BRANCH   1   2
ATOM      2  C   UNL     1       4.496   1.106   1.905  1.00  0.00     0.303 C 
ATOM      3  O   UNL     1       5.127   0.190   2.491  1.00  0.00    -0.252 OA
BRANCH   2   4
ATOM      4  O   UNL     1       3.269   1.471   2.438  1.00  0.00    -0.481 OA
ATOM      5  H   UNL     1       3.070   1.130   3.381  1.00  0.00     0.296 HD
ENDBRANCH   2   4
ENDBRANCH   1   2
BRANCH   1   6
ATOM      6  C   UNL     1       6.488   1.860   0.718  1.00  0.00     0.047 C 
BRANCH   6   7
ATOM      7  C   UNL     1       7.141   1.094  -0.341  1.00  0.00    -0.047 A 
ATOM      8  C   UNL     1       8.477   1.192  -0.642  1.00  0.00     0.004 A 
ATOM      9  C   UNL     1       6.388   0.222  -1.087  1.00  0.00     0.004 A 
ATOM     10  C   UNL     1       9.075   0.463  -1.642  1.00  0.00     0.000 A 
ATOM     11  C   UNL     1       6.954  -0.522  -2.097  1.00  0.00     0.000 A 
ATOM     12  C   UNL     1       8.313  -0.410  -2.388  1.00  0.00     0.000 A 
ENDBRANCH   6   7
ENDBRANCH   1   6
TORSDOF 4
ENDMDL
MODEL 4
REMARK VINA RESULT:      -6.7      1.948      2.658
REMARK SMILES O=C(O)CCc1ccccc1
REMARK SMILES IDX 4 1 2 2 1 3 3 4 5 6 6 7 7 8 11 9 8 10 10 11 9 12
REMARK H PARENT 3 5
REMARK Flexibility Score: inf
ROOT
ATOM      1  C   UNL     1       8.264   0.238  -2.223  1.00  0.00     0.127 C 
ENDROOT
BRANCH   1   2
ATOM      2  C   UNL     1       9.374   0.356  -1.242  1.00  0.00     0.303 C 
ATOM      3  O   UNL     1       9.479  -0.359  -0.213  1.00  0.00    -0.252 OA
BRANCH   2   4
ATOM      4  O   UNL     1      10.362   1.305  -1.458  1.00  0.00    -0.481 OA
ATOM      5  H   UNL     1      10.204   2.221  -1.033  1.00  0.00     0.296 HD
ENDBRANCH   2   4
ENDBRANCH   1   2
BRANCH   1   6
ATOM      6  C   UNL     1       7.111  -0.485  -1.589  1.00  0.00     0.047 C 
BRANCH   6   7
ATOM      7  C   UNL     1       6.331   0.324  -0.655  1.00  0.00    -0.047 A 
ATOM      8  C   UNL     1       5.787   1.545  -0.972  1.00  0.00     0.004 A 
ATOM      9  C   UNL     1       6.122  -0.148   0.616  1.00  0.00     0.004 A 
ATOM     10  C   UNL     1       5.055   2.293  -0.081  1.00  0.00     0.000 A 
ATOM     11  C   UNL     1       5.396   0.575   1.534  1.00  0.00     0.000 A 
ATOM     12  C   UNL     1       4.850   1.811   1.194  1.00  0.00     0.000 A 
ENDBRANCH   6   7
ENDBRANCH   1   6
TORSDOF 4
ENDMDL
MODEL 5
REMARK VINA RESULT:      -6.5      1.892      2.883
REMARK SMILES O=C(O)CCc1ccccc1
REMARK SMILES IDX 4 1 2 2 1 3 3 4 5 6 6 7 7 8 11 9 8 10 10 11 9 12
REMARK H PARENT 3 5
REMARK Flexibility Score: inf
ROOT
ATOM      1  C   UNL     1       8.158  -1.641   1.174  1.00  0.00     0.127 C 
ENDROOT
BRANCH   1   2
ATOM      2  C   UNL     1       8.517  -2.837   0.368  1.00  0.00     0.303 C 
ATOM      3  O   UNL     1       9.197  -3.799   0.806  1.00  0.00    -0.252 OA
BRANCH   2   4
ATOM      4  O   UNL     1       8.084  -2.913  -0.947  1.00  0.00    -0.481 OA
ATOM      5  H   UNL     1       8.488  -2.231  -1.592  1.00  0.00     0.296 HD
ENDBRANCH   2   4
ENDBRANCH   1   2
BRANCH   1   6
ATOM      6  C   UNL     1       6.665  -1.519   1.250  1.00  0.00     0.047 C 
BRANCH   6   7
ATOM      7  C   UNL     1       6.138  -0.240   0.778  1.00  0.00    -0.047 A 
ATOM      8  C   UNL     1       5.393   0.613   1.554  1.00  0.00     0.004 A 
ATOM      9  C   UNL     1       6.394   0.145  -0.515  1.00  0.00     0.004 A 
ATOM     10  C   UNL     1       4.906   1.813   1.094  1.00  0.00     0.000 A 
ATOM     11  C   UNL     1       5.921   1.339  -1.008  1.00  0.00     0.000 A 
ATOM     12  C   UNL     1       5.167   2.192  -0.205  1.00  0.00     0.000 A 
ENDBRANCH   6   7
ENDBRANCH   1   6
TORSDOF 4
ENDMDL
