@<TRIPOS>MOLECULE
/home/cewinharhar/GITHUB/reincatalyze/data/processed/docking_pred/2023-Apr-25-2140_maxeplen10_maxtrainstep200_exh16_gamma099_lrac3e-4_lrcr1e-3/225d7738cc918e3754e3779366d54ccb252183f1_ligand_2.pdbqt
 12 12 0 0 0
SMALL
GASTEIGER

@<TRIPOS>ATOM
      1  C          8.4270   -0.5690   -2.2070 C.3     1  UNL1        0.1270
      2  C          8.4950   -1.8800   -2.9040 C.2     1  UNL1        0.3030
      3  O          9.5560   -2.5350   -3.0610 O.2     1  UNL1       -0.2520
      4  O          7.3300   -2.4280   -3.4180 O.3     1  UNL1       -0.4810
      5  H          6.7850   -3.0070   -2.7740 H       1  UNL1        0.2960
      6  C          7.0010   -0.1040   -2.1570 C.3     1  UNL1        0.0470
      7  C          6.4700    0.0710   -0.8070 C.2     1  UNL1       -0.0470
      8  C          5.8440    1.2140   -0.3740 C.2     1  UNL1        0.0040
      9  C          6.5970   -0.9580    0.0940 C.2     1  UNL1        0.0040
     10  C          5.3500    1.3620    0.9000 C.2     1  UNL1        0.0000
     11  C          6.1150   -0.8430    1.3770 C.2     1  UNL1        0.0000
     12  C          5.4820    0.3250    1.7980 C.2     1  UNL1        0.0000
@<TRIPOS>BOND
     1     4     2    1
     2     4     5    1
     3     3     2    2
     4     2     1    1
     5     1     6    1
     6     6     7    1
     7     7     8    2
     8     7     9    1
     9     8    10    1
    10     9    11    2
    11    10    12    2
    12    11    12    1
