@<TRIPOS>MOLECULE
/home/cewinharhar/GITHUB/reincatalyze/data/processed/docking_pred/2023-Apr-25-2140_maxeplen10_maxtrainstep200_exh16_gamma099_lrac3e-4_lrcr1e-3/225d7738cc918e3754e3779366d54ccb252183f1_ligand_2.pdbqt
 12 12 0 0 0
SMALL
GASTEIGER

@<TRIPOS>ATOM
      1  C          8.2640    0.2380   -2.2230 C.3     1  UNL1        0.1270
      2  C          9.3740    0.3560   -1.2420 C.2     1  UNL1        0.3030
      3  O          9.4790   -0.3590   -0.2130 O.2     1  UNL1       -0.2520
      4  O         10.3620    1.3050   -1.4580 O.3     1  UNL1       -0.4810
      5  H         10.2040    2.2210   -1.0330 H       1  UNL1        0.2960
      6  C          7.1110   -0.4850   -1.5890 C.3     1  UNL1        0.0470
      7  C          6.3310    0.3240   -0.6550 C.2     1  UNL1       -0.0470
      8  C          5.7870    1.5450   -0.9720 C.2     1  UNL1        0.0040
      9  C          6.1220   -0.1480    0.6160 C.2     1  UNL1        0.0040
     10  C          5.0550    2.2930   -0.0810 C.2     1  UNL1        0.0000
     11  C          5.3960    0.5750    1.5340 C.2     1  UNL1        0.0000
     12  C          4.8500    1.8110    1.1940 C.2     1  UNL1        0.0000
@<TRIPOS>BOND
     1     1     6    1
     2     1     2    1
     3     6     7    1
     4     4     2    1
     5     4     5    1
     6     2     3    2
     7     8     7    2
     8     8    10    1
     9     7     9    1
    10    10    12    2
    11     9    11    2
    12    12    11    1
