@<TRIPOS>MOLECULE
/home/cewinharhar/GITHUB/reincatalyze/data/processed/docking_pred/2023-Apr-25-2140_maxeplen10_maxtrainstep200_exh16_gamma099_lrac3e-4_lrcr1e-3/225d7738cc918e3754e3779366d54ccb252183f1_ligand_2.pdbqt
 12 12 0 0 0
SMALL
GASTEIGER

@<TRIPOS>ATOM
      1  C          4.9890    1.8050    0.6900 C.3     1  UNL1        0.1270
      2  C          4.4960    1.1060    1.9050 C.2     1  UNL1        0.3030
      3  O          5.1270    0.1900    2.4910 O.2     1  UNL1       -0.2520
      4  O          3.2690    1.4710    2.4380 O.3     1  UNL1       -0.4810
      5  H          3.0700    1.1300    3.3810 H       1  UNL1        0.2960
      6  C          6.4880    1.8600    0.7180 C.3     1  UNL1        0.0470
      7  C          7.1410    1.0940   -0.3410 C.2     1  UNL1       -0.0470
      8  C          8.4770    1.1920   -0.6420 C.2     1  UNL1        0.0040
      9  C          6.3880    0.2220   -1.0870 C.2     1  UNL1        0.0040
     10  C          9.0750    0.4630   -1.6420 C.2     1  UNL1        0.0000
     11  C          6.9540   -0.5220   -2.0970 C.2     1  UNL1        0.0000
     12  C          8.3130   -0.4100   -2.3880 C.2     1  UNL1        0.0000
@<TRIPOS>BOND
     1    12    11    2
     2    12    10    1
     3    11     9    1
     4    10     8    2
     5     9     7    2
     6     8     7    1
     7     7     6    1
     8     1     6    1
     9     1     2    1
    10     2     4    1
    11     2     3    2
    12     4     5    1
