@<TRIPOS>MOLECULE
/home/cewinharhar/GITHUB/reincatalyze/data/processed/docking_pred/2023-Apr-25-2140_maxeplen10_maxtrainstep200_exh16_gamma099_lrac3e-4_lrcr1e-3/225d7738cc918e3754e3779366d54ccb252183f1_ligand_2.pdbqt
 12 12 0 0 0
SMALL
GASTEIGER

@<TRIPOS>ATOM
      1  C          8.1580   -1.6410    1.1740 C.3     1  UNL1        0.1270
      2  C          8.5170   -2.8370    0.3680 C.2     1  UNL1        0.3030
      3  O          9.1970   -3.7990    0.8060 O.2     1  UNL1       -0.2520
      4  O          8.0840   -2.9130   -0.9470 O.3     1  UNL1       -0.4810
      5  H          8.4880   -2.2310   -1.5920 H       1  UNL1        0.2960
      6  C          6.6650   -1.5190    1.2500 C.3     1  UNL1        0.0470
      7  C          6.1380   -0.2400    0.7780 C.2     1  UNL1       -0.0470
      8  C          5.3930    0.6130    1.5540 C.2     1  UNL1        0.0040
      9  C          6.3940    0.1450   -0.5150 C.2     1  UNL1        0.0040
     10  C          4.9060    1.8130    1.0940 C.2     1  UNL1        0.0000
     11  C          5.9210    1.3390   -1.0080 C.2     1  UNL1        0.0000
     12  C          5.1670    2.1920   -0.2050 C.2     1  UNL1        0.0000
@<TRIPOS>BOND
     1     5     4    1
     2    11     9    1
     3    11    12    2
     4     4     2    1
     5     9     7    2
     6    12    10    1
     7     2     3    2
     8     2     1    1
     9     7     6    1
    10     7     8    1
    11    10     8    2
    12     1     6    1
