MODEL 1
REMARK VINA RESULT:      -6.8      0.000      0.000
REMARK SMILES O=C(O)CCc1ccccc1
REMARK SMILES IDX 4 1 2 2 1 3 3 4 5 6 6 7 7 8 11 9 8 10 10 11 9 12
REMARK H PARENT 3 5
REMARK Flexibility Score: inf
ROOT
ATOM      1  C   UNL     1       4.992   1.830   0.701  1.00  0.00     0.127 C 
ENDROOT
BRANCH   1   2
ATOM      2  C   UNL     1       4.506   1.109   1.906  1.00  0.00     0.303 C 
ATOM      3  O   UNL     1       5.146   0.191   2.480  1.00  0.00    -0.252 OA
BRANCH   2   4
ATOM      4  O   UNL     1       3.275   1.455   2.443  1.00  0.00    -0.481 OA
ATOM      5  H   UNL     1       2.818   2.270   2.029  1.00  0.00     0.296 HD
ENDBRANCH   2   4
ENDBRANCH   1   2
BRANCH   1   6
ATOM      6  C   UNL     1       6.492   1.846   0.700  1.00  0.00     0.047 C 
BRANCH   6   7
ATOM      7  C   UNL     1       7.104   1.048  -0.360  1.00  0.00    -0.047 A 
ATOM      8  C   UNL     1       6.424   0.114  -1.103  1.00  0.00     0.004 A 
ATOM      9  C   UNL     1       8.436   1.229  -0.641  1.00  0.00     0.004 A 
ATOM     10  C   UNL     1       7.016  -0.629  -2.097  1.00  0.00     0.000 A 
ATOM     11  C   UNL     1       9.060   0.503  -1.629  1.00  0.00     0.000 A 
ATOM     12  C   UNL     1       8.353  -0.441  -2.373  1.00  0.00     0.000 A 
ENDBRANCH   6   7
ENDBRANCH   1   6
TORSDOF 4
ENDMDL
MODEL 2
REMARK VINA RESULT:      -6.7      3.304      5.097
REMARK SMILES O=C(O)CCc1ccccc1
REMARK SMILES IDX 4 1 2 2 1 3 3 4 5 6 6 7 7 8 11 9 8 10 10 11 9 12
REMARK H PARENT 3 5
REMARK Flexibility Score: inf
ROOT
ATOM      1  C   UNL     1       8.401  -0.446  -2.128  1.00  0.00     0.127 C 
ENDROOT
BRANCH   1   2
ATOM      2  C   UNL     1       8.411  -1.756  -2.830  1.00  0.00     0.303 C 
ATOM      3  O   UNL     1       7.377  -2.329  -3.258  1.00  0.00    -0.252 OA
BRANCH   2   4
ATOM      4  O   UNL     1       9.622  -2.398  -3.034  1.00  0.00    -0.481 OA
ATOM      5  H   UNL     1      10.147  -2.644  -2.192  1.00  0.00     0.296 HD
ENDBRANCH   2   4
ENDBRANCH   1   2
BRANCH   1   6
ATOM      6  C   UNL     1       6.995   0.072  -2.055  1.00  0.00     0.047 C 
BRANCH   6   7
ATOM      7  C   UNL     1       6.446   0.140  -0.703  1.00  0.00    -0.047 A 
ATOM      8  C   UNL     1       6.555  -0.873   0.218  1.00  0.00     0.004 A 
ATOM      9  C   UNL     1       5.778   1.275  -0.315  1.00  0.00     0.004 A 
ATOM     10  C   UNL     1       6.032  -0.793   1.487  1.00  0.00     0.000 A 
ATOM     11  C   UNL     1       5.241   1.389   0.947  1.00  0.00     0.000 A 
ATOM     12  C   UNL     1       5.363   0.351   1.868  1.00  0.00     0.000 A 
ENDBRANCH   6   7
ENDBRANCH   1   6
TORSDOF 4
ENDMDL
MODEL 3
REMARK VINA RESULT:      -6.7      3.361      5.072
REMARK SMILES O=C(O)CCc1ccccc1
REMARK SMILES IDX 4 1 2 2 1 3 3 4 5 6 6 7 7 8 11 9 8 10 10 11 9 12
REMARK H PARENT 3 5
REMARK Flexibility Score: inf
ROOT
ATOM      1  C   UNL     1       8.458  -0.555  -2.150  1.00  0.00     0.127 C 
ENDROOT
BRANCH   1   2
ATOM      2  C   UNL     1       8.546  -1.854  -2.867  1.00  0.00     0.303 C 
ATOM      3  O   UNL     1       9.615  -2.495  -3.028  1.00  0.00    -0.252 OA
BRANCH   2   4
ATOM      4  O   UNL     1       7.390  -2.407  -3.397  1.00  0.00    -0.481 OA
ATOM      5  H   UNL     1       7.501  -3.303  -3.877  1.00  0.00     0.296 HD
ENDBRANCH   2   4
ENDBRANCH   1   2
BRANCH   1   6
ATOM      6  C   UNL     1       7.033  -0.085  -2.140  1.00  0.00     0.047 C 
BRANCH   6   7
ATOM      7  C   UNL     1       6.474   0.123  -0.807  1.00  0.00    -0.047 A 
ATOM      8  C   UNL     1       5.816   1.266  -0.424  1.00  0.00     0.004 A 
ATOM      9  C   UNL     1       6.608  -0.871   0.130  1.00  0.00     0.004 A 
ATOM     10  C   UNL     1       5.297   1.446   0.836  1.00  0.00     0.000 A 
ATOM     11  C   UNL     1       6.101  -0.725   1.401  1.00  0.00     0.000 A 
ATOM     12  C   UNL     1       5.435   0.443   1.771  1.00  0.00     0.000 A 
ENDBRANCH   6   7
ENDBRANCH   1   6
TORSDOF 4
ENDMDL
MODEL 4
REMARK VINA RESULT:      -6.6      2.996      4.785
REMARK SMILES O=C(O)CCc1ccccc1
REMARK SMILES IDX 4 1 2 2 1 3 3 4 5 6 6 7 7 8 11 9 8 10 10 11 9 12
REMARK H PARENT 3 5
REMARK Flexibility Score: inf
ROOT
ATOM      1  C   UNL     1       8.284   0.209  -2.393  1.00  0.00     0.127 C 
ENDROOT
BRANCH   1   2
ATOM      2  C   UNL     1       8.162  -1.257  -2.604  1.00  0.00     0.303 C 
ATOM      3  O   UNL     1       7.071  -1.881  -2.571  1.00  0.00    -0.252 OA
BRANCH   2   4
ATOM      4  O   UNL     1       9.308  -1.996  -2.854  1.00  0.00    -0.481 OA
ATOM      5  H   UNL     1      10.166  -1.459  -2.997  1.00  0.00     0.296 HD
ENDBRANCH   2   4
ENDBRANCH   1   2
BRANCH   1   6
ATOM      6  C   UNL     1       8.634   0.481  -0.959  1.00  0.00     0.047 C 
BRANCH   6   7
ATOM      7  C   UNL     1       7.491   0.485  -0.050  1.00  0.00    -0.047 A 
ATOM      8  C   UNL     1       6.420   1.336  -0.172  1.00  0.00     0.004 A 
ATOM      9  C   UNL     1       7.471  -0.407   0.994  1.00  0.00     0.004 A 
ATOM     10  C   UNL     1       5.352   1.327   0.694  1.00  0.00     0.000 A 
ATOM     11  C   UNL     1       6.419  -0.443   1.880  1.00  0.00     0.000 A 
ATOM     12  C   UNL     1       5.340   0.429   1.739  1.00  0.00     0.000 A 
ENDBRANCH   6   7
ENDBRANCH   1   6
TORSDOF 4
ENDMDL
MODEL 5
REMARK VINA RESULT:      -6.6      2.763      4.673
REMARK SMILES O=C(O)CCc1ccccc1
REMARK SMILES IDX 4 1 2 2 1 3 3 4 5 6 6 7 7 8 11 9 8 10 10 11 9 12
REMARK H PARENT 3 5
REMARK Flexibility Score: inf
ROOT
ATOM      1  C   UNL     1       8.268   0.160  -2.206  1.00  0.00     0.127 C 
ENDROOT
BRANCH   1   2
ATOM      2  C   UNL     1       9.366   0.328  -1.218  1.00  0.00     0.303 C 
ATOM      3  O   UNL     1       9.494  -0.377  -0.186  1.00  0.00    -0.252 OA
BRANCH   2   4
ATOM      4  O   UNL     1      10.315   1.316  -1.432  1.00  0.00    -0.481 OA
ATOM      5  H   UNL     1      11.204   1.198  -0.942  1.00  0.00     0.296 HD
ENDBRANCH   2   4
ENDBRANCH   1   2
BRANCH   1   6
ATOM      6  C   UNL     1       7.113  -0.542  -1.554  1.00  0.00     0.047 C 
BRANCH   6   7
ATOM      7  C   UNL     1       6.340   0.292  -0.636  1.00  0.00    -0.047 A 
ATOM      8  C   UNL     1       5.813   1.514  -0.974  1.00  0.00     0.004 A 
ATOM      9  C   UNL     1       6.120  -0.159   0.641  1.00  0.00     0.004 A 
ATOM     10  C   UNL     1       5.088   2.285  -0.097  1.00  0.00     0.000 A 
ATOM     11  C   UNL     1       5.399   0.587   1.545  1.00  0.00     0.000 A 
ATOM     12  C   UNL     1       4.871   1.826   1.184  1.00  0.00     0.000 A 
ENDBRANCH   6   7
ENDBRANCH   1   6
TORSDOF 4
ENDMDL
