@<TRIPOS>MOLECULE
/home/cewinharhar/GITHUB/reincatalyze/data/processed/docking_pred/2023-Apr-25-2140_maxeplen10_maxtrainstep200_exh16_gamma099_lrac3e-4_lrcr1e-3/2368d29bb7bbfa5e31d33bb3936e2ea89938fe66_ligand_2.pdbqt
 12 12 0 0 0
SMALL
GASTEIGER

@<TRIPOS>ATOM
      1  C          8.4580   -0.5550   -2.1500 C.3     1  UNL1        0.1270
      2  C          8.5460   -1.8540   -2.8670 C.2     1  UNL1        0.3030
      3  O          9.6150   -2.4950   -3.0280 O.2     1  UNL1       -0.2520
      4  O          7.3900   -2.4070   -3.3970 O.3     1  UNL1       -0.4810
      5  H          7.5010   -3.3030   -3.8770 H       1  UNL1        0.2960
      6  C          7.0330   -0.0850   -2.1400 C.3     1  UNL1        0.0470
      7  C          6.4740    0.1230   -0.8070 C.2     1  UNL1       -0.0470
      8  C          5.8160    1.2660   -0.4240 C.2     1  UNL1        0.0040
      9  C          6.6080   -0.8710    0.1300 C.2     1  UNL1        0.0040
     10  C          5.2970    1.4460    0.8360 C.2     1  UNL1        0.0000
     11  C          6.1010   -0.7250    1.4010 C.2     1  UNL1        0.0000
     12  C          5.4350    0.4430    1.7710 C.2     1  UNL1        0.0000
@<TRIPOS>BOND
     1     5     4    1
     2     4     2    1
     3     3     2    2
     4     2     1    1
     5     1     6    1
     6     6     7    1
     7     7     8    2
     8     7     9    1
     9     8    10    1
    10     9    11    2
    11    10    12    2
    12    11    12    1
