@<TRIPOS>MOLECULE
/home/cewinharhar/GITHUB/reincatalyze/data/processed/docking_pred/2023-Apr-25-2140_maxeplen10_maxtrainstep200_exh16_gamma099_lrac3e-4_lrcr1e-3/2368d29bb7bbfa5e31d33bb3936e2ea89938fe66_ligand_2.pdbqt
 12 12 0 0 0
SMALL
GASTEIGER

@<TRIPOS>ATOM
      1  C          8.2840    0.2090   -2.3930 C.3     1  UNL1        0.1270
      2  C          8.1620   -1.2570   -2.6040 C.2     1  UNL1        0.3030
      3  O          7.0710   -1.8810   -2.5710 O.2     1  UNL1       -0.2520
      4  O          9.3080   -1.9960   -2.8540 O.3     1  UNL1       -0.4810
      5  H         10.1660   -1.4590   -2.9970 H       1  UNL1        0.2960
      6  C          8.6340    0.4810   -0.9590 C.3     1  UNL1        0.0470
      7  C          7.4910    0.4850   -0.0500 C.2     1  UNL1       -0.0470
      8  C          6.4200    1.3360   -0.1720 C.2     1  UNL1        0.0040
      9  C          7.4710   -0.4070    0.9940 C.2     1  UNL1        0.0040
     10  C          5.3520    1.3270    0.6940 C.2     1  UNL1        0.0000
     11  C          6.4190   -0.4430    1.8800 C.2     1  UNL1        0.0000
     12  C          5.3400    0.4290    1.7390 C.2     1  UNL1        0.0000
@<TRIPOS>BOND
     1     5     4    1
     2     4     2    1
     3     2     3    2
     4     2     1    1
     5     1     6    1
     6     6     7    1
     7     8     7    2
     8     8    10    1
     9     7     9    1
    10    10    12    2
    11     9    11    2
    12    12    11    1
