@<TRIPOS>MOLECULE
/home/cewinharhar/GITHUB/reincatalyze/data/processed/docking_pred/2023-Apr-25-2140_maxeplen10_maxtrainstep200_exh16_gamma099_lrac3e-4_lrcr1e-3/2368d29bb7bbfa5e31d33bb3936e2ea89938fe66_ligand_2.pdbqt
 12 12 0 0 0
SMALL
GASTEIGER

@<TRIPOS>ATOM
      1  C          8.4010   -0.4460   -2.1280 C.3     1  UNL1        0.1270
      2  C          8.4110   -1.7560   -2.8300 C.2     1  UNL1        0.3030
      3  O          7.3770   -2.3290   -3.2580 O.2     1  UNL1       -0.2520
      4  O          9.6220   -2.3980   -3.0340 O.3     1  UNL1       -0.4810
      5  H         10.1470   -2.6440   -2.1920 H       1  UNL1        0.2960
      6  C          6.9950    0.0720   -2.0550 C.3     1  UNL1        0.0470
      7  C          6.4460    0.1400   -0.7030 C.2     1  UNL1       -0.0470
      8  C          6.5550   -0.8730    0.2180 C.2     1  UNL1        0.0040
      9  C          5.7780    1.2750   -0.3150 C.2     1  UNL1        0.0040
     10  C          6.0320   -0.7930    1.4870 C.2     1  UNL1        0.0000
     11  C          5.2410    1.3890    0.9470 C.2     1  UNL1        0.0000
     12  C          5.3630    0.3510    1.8680 C.2     1  UNL1        0.0000
@<TRIPOS>BOND
     1     3     2    2
     2     4     2    1
     3     4     5    1
     4     2     1    1
     5     1     6    1
     6     6     7    1
     7     7     9    2
     8     7     8    1
     9     9    11    1
    10     8    10    2
    11    11    12    2
    12    10    12    1
