@<TRIPOS>MOLECULE
/home/cewinharhar/GITHUB/reincatalyze/data/processed/docking_pred/2023-Apr-25-2140_maxeplen10_maxtrainstep200_exh16_gamma099_lrac3e-4_lrcr1e-3/2368d29bb7bbfa5e31d33bb3936e2ea89938fe66_ligand_2.pdbqt
 12 12 0 0 0
SMALL
GASTEIGER

@<TRIPOS>ATOM
      1  C          4.9920    1.8300    0.7010 C.3     1  UNL1        0.1270
      2  C          4.5060    1.1090    1.9060 C.2     1  UNL1        0.3030
      3  O          5.1460    0.1910    2.4800 O.2     1  UNL1       -0.2520
      4  O          3.2750    1.4550    2.4430 O.3     1  UNL1       -0.4810
      5  H          2.8180    2.2700    2.0290 H       1  UNL1        0.2960
      6  C          6.4920    1.8460    0.7000 C.3     1  UNL1        0.0470
      7  C          7.1040    1.0480   -0.3600 C.2     1  UNL1       -0.0470
      8  C          6.4240    0.1140   -1.1030 C.2     1  UNL1        0.0040
      9  C          8.4360    1.2290   -0.6410 C.2     1  UNL1        0.0040
     10  C          7.0160   -0.6290   -2.0970 C.2     1  UNL1        0.0000
     11  C          9.0600    0.5030   -1.6290 C.2     1  UNL1        0.0000
     12  C          8.3530   -0.4410   -2.3730 C.2     1  UNL1        0.0000
@<TRIPOS>BOND
     1    12    10    2
     2    12    11    1
     3    10     8    1
     4    11     9    2
     5     8     7    2
     6     9     7    1
     7     7     6    1
     8     6     1    1
     9     1     2    1
    10     2     4    1
    11     2     3    2
    12     5     4    1
