@<TRIPOS>MOLECULE
/home/cewinharhar/GITHUB/reincatalyze/data/processed/docking_pred/2023-Apr-25-2140_maxeplen10_maxtrainstep200_exh16_gamma099_lrac3e-4_lrcr1e-3/2368d29bb7bbfa5e31d33bb3936e2ea89938fe66_ligand_2.pdbqt
 12 12 0 0 0
SMALL
GASTEIGER

@<TRIPOS>ATOM
      1  C          8.2680    0.1600   -2.2060 C.3     1  UNL1        0.1270
      2  C          9.3660    0.3280   -1.2180 C.2     1  UNL1        0.3030
      3  O          9.4940   -0.3770   -0.1860 O.2     1  UNL1       -0.2520
      4  O         10.3150    1.3160   -1.4320 O.3     1  UNL1       -0.4810
      5  H         11.2040    1.1980   -0.9420 H       1  UNL1        0.2960
      6  C          7.1130   -0.5420   -1.5540 C.3     1  UNL1        0.0470
      7  C          6.3400    0.2920   -0.6360 C.2     1  UNL1       -0.0470
      8  C          5.8130    1.5140   -0.9740 C.2     1  UNL1        0.0040
      9  C          6.1200   -0.1590    0.6410 C.2     1  UNL1        0.0040
     10  C          5.0880    2.2850   -0.0970 C.2     1  UNL1        0.0000
     11  C          5.3990    0.5870    1.5450 C.2     1  UNL1        0.0000
     12  C          4.8710    1.8260    1.1840 C.2     1  UNL1        0.0000
@<TRIPOS>BOND
     1     1     6    1
     2     1     2    1
     3     6     7    1
     4     4     2    1
     5     4     5    1
     6     2     3    2
     7     8     7    2
     8     8    10    1
     9     7     9    1
    10    10    12    2
    11     9    11    2
    12    12    11    1
