@<TRIPOS>MOLECULE
/home/cewinharhar/GITHUB/reincatalyze/data/processed/docking_pred/2023-Apr-25-2140_maxeplen10_maxtrainstep200_exh16_gamma099_lrac3e-4_lrcr1e-3/25ea22f039de2039e6eb222be1b9c38742a73e8b_ligand_2.pdbqt
 12 12 0 0 0
SMALL
GASTEIGER

@<TRIPOS>ATOM
      1  C          5.0660    1.7590    0.7050 C.3     1  UNL1        0.1270
      2  C          4.6340    1.0220    1.9210 C.2     1  UNL1        0.3030
      3  O          5.3280    0.1420    2.4910 O.2     1  UNL1       -0.2520
      4  O          3.3960    1.3090    2.4750 O.3     1  UNL1       -0.4810
      5  H          2.9250    0.5340    2.9470 H       1  UNL1        0.2960
      6  C          6.5650    1.8110    0.6590 C.3     1  UNL1        0.0470
      7  C          7.1660    1.0000   -0.3980 C.2     1  UNL1       -0.0470
      8  C          6.4720    0.0740   -1.1370 C.2     1  UNL1        0.0040
      9  C          8.4990    1.1610   -0.6790 C.2     1  UNL1        0.0040
     10  C          7.0530   -0.6810   -2.1280 C.2     1  UNL1        0.0000
     11  C          9.1130    0.4220   -1.6640 C.2     1  UNL1        0.0000
     12  C          8.3930   -0.5140   -2.4040 C.2     1  UNL1        0.0000
@<TRIPOS>BOND
     1    12    10    2
     2    12    11    1
     3    10     8    1
     4    11     9    2
     5     8     7    2
     6     9     7    1
     7     7     6    1
     8     6     1    1
     9     1     2    1
    10     2     4    1
    11     2     3    2
    12     4     5    1
