@<TRIPOS>MOLECULE
/home/cewinharhar/GITHUB/reincatalyze/data/processed/docking_pred/2023-Apr-25-2140_maxeplen10_maxtrainstep200_exh16_gamma099_lrac3e-4_lrcr1e-3/25ea22f039de2039e6eb222be1b9c38742a73e8b_ligand_2.pdbqt
 12 12 0 0 0
SMALL
GASTEIGER

@<TRIPOS>ATOM
      1  C          8.2910   -1.0600   -1.6770 C.3     1  UNL1        0.1270
      2  C          8.2820   -2.0210   -2.8100 C.2     1  UNL1        0.3030
      3  O          7.2360   -2.4270   -3.3780 O.2     1  UNL1       -0.2520
      4  O          9.4900   -2.5100   -3.2840 O.3     1  UNL1       -0.4810
      5  H          9.9780   -3.1690   -2.6720 H       1  UNL1        0.2960
      6  C          7.1760   -0.0710   -1.8530 C.3     1  UNL1        0.0470
      7  C          6.4580    0.2540   -0.6220 C.2     1  UNL1       -0.0470
      8  C          5.7320    1.4060   -0.4430 C.2     1  UNL1        0.0040
      9  C          6.5020   -0.6320    0.4250 C.2     1  UNL1        0.0040
     10  C          5.0620    1.6970    0.7220 C.2     1  UNL1        0.0000
     11  C          5.8450   -0.3730    1.6050 C.2     1  UNL1        0.0000
     12  C          5.1120    0.8010    1.7680 C.2     1  UNL1        0.0000
@<TRIPOS>BOND
     1     3     2    2
     2     4     2    1
     3     4     5    1
     4     2     1    1
     5     6     1    1
     6     6     7    1
     7     7     8    2
     8     7     9    1
     9     8    10    1
    10     9    11    2
    11    10    12    2
    12    11    12    1
