@<TRIPOS>MOLECULE
/home/cewinharhar/GITHUB/reincatalyze/data/processed/docking_pred/2023-Apr-25-2140_maxeplen10_maxtrainstep200_exh16_gamma099_lrac3e-4_lrcr1e-3/25ea22f039de2039e6eb222be1b9c38742a73e8b_ligand_2.pdbqt
 12 12 0 0 0
SMALL
GASTEIGER

@<TRIPOS>ATOM
      1  C          8.4390   -0.5730   -2.2040 C.3     1  UNL1        0.1270
      2  C          8.5080   -1.8760   -2.9140 C.2     1  UNL1        0.3030
      3  O          9.5720   -2.5200   -3.0950 O.2     1  UNL1       -0.2520
      4  O          7.3390   -2.4320   -3.4120 O.3     1  UNL1       -0.4810
      5  H          6.4670   -2.0470   -3.0420 H       1  UNL1        0.2960
      6  C          7.0160   -0.0960   -2.1720 C.3     1  UNL1        0.0470
      7  C          6.4720    0.0920   -0.8290 C.2     1  UNL1       -0.0470
      8  C          5.8370    1.2370   -0.4160 C.2     1  UNL1        0.0040
      9  C          6.5970   -0.9250    0.0850 C.2     1  UNL1        0.0040
     10  C          5.3310    1.3980    0.8520 C.2     1  UNL1        0.0000
     11  C          6.1030   -0.7970    1.3630 C.2     1  UNL1        0.0000
     12  C          5.4600    0.3730    1.7640 C.2     1  UNL1        0.0000
@<TRIPOS>BOND
     1     4     5    1
     2     4     2    1
     3     3     2    2
     4     2     1    1
     5     1     6    1
     6     6     7    1
     7     7     8    2
     8     7     9    1
     9     8    10    1
    10     9    11    2
    11    10    12    2
    12    11    12    1
