@<TRIPOS>MOLECULE
/home/cewinharhar/GITHUB/reincatalyze/data/processed/docking_pred/2023-Apr-25-2140_maxeplen10_maxtrainstep200_exh16_gamma099_lrac3e-4_lrcr1e-3/25ea22f039de2039e6eb222be1b9c38742a73e8b_ligand_2.pdbqt
 12 12 0 0 0
SMALL
GASTEIGER

@<TRIPOS>ATOM
      1  C          8.2750    0.1610   -2.1830 C.3     1  UNL1        0.1270
      2  C          9.3810    0.3330   -1.2060 C.2     1  UNL1        0.3030
      3  O          9.5140   -0.3640   -0.1680 O.2     1  UNL1       -0.2520
      4  O         10.3320    1.3160   -1.4350 O.3     1  UNL1       -0.4810
      5  H         10.3670    2.0750   -0.7510 H       1  UNL1        0.2960
      6  C          7.1390   -0.5690   -1.5290 C.3     1  UNL1        0.0470
      7  C          6.3600    0.2400   -0.5940 C.2     1  UNL1       -0.0470
      8  C          5.8220    1.4640   -0.9070 C.2     1  UNL1        0.0040
      9  C          6.1450   -0.2380    0.6750 C.2     1  UNL1        0.0040
     10  C          5.0910    2.2120   -0.0150 C.2     1  UNL1        0.0000
     11  C          5.4190    0.4850    1.5930 C.2     1  UNL1        0.0000
     12  C          4.8800    1.7260    1.2570 C.2     1  UNL1        0.0000
@<TRIPOS>BOND
     1     1     6    1
     2     1     2    1
     3     6     7    1
     4     4     2    1
     5     4     5    1
     6     2     3    2
     7     8     7    2
     8     8    10    1
     9     7     9    1
    10    10    12    2
    11     9    11    2
    12    12    11    1
