@<TRIPOS>MOLECULE
/home/cewinharhar/GITHUB/reincatalyze/data/processed/docking_pred/2023-Apr-25-2140_maxeplen10_maxtrainstep200_exh16_gamma099_lrac3e-4_lrcr1e-3/25ea22f039de2039e6eb222be1b9c38742a73e8b_ligand_2.pdbqt
 12 12 0 0 0
SMALL
GASTEIGER

@<TRIPOS>ATOM
      1  C          8.4490   -0.5580   -2.1940 C.3     1  UNL1        0.1270
      2  C          8.5080   -1.8600   -2.9080 C.2     1  UNL1        0.3030
      3  O          9.5690   -2.5070   -3.1020 O.2     1  UNL1       -0.2520
      4  O          7.3330   -2.4110   -3.3970 O.3     1  UNL1       -0.4810
      5  H          7.1470   -3.3810   -3.1300 H       1  UNL1        0.2960
      6  C          7.0270   -0.0810   -2.1420 C.3     1  UNL1        0.0470
      7  C          6.4880    0.0620   -0.7920 C.2     1  UNL1       -0.0470
      8  C          6.5850   -0.9060    0.1770 C.2     1  UNL1        0.0040
      9  C          5.8430    1.2270   -0.4560 C.2     1  UNL1        0.0040
     10  C          6.0720   -0.7540    1.4430 C.2     1  UNL1        0.0000
     11  C          5.3170    1.4130    0.8010 C.2     1  UNL1        0.0000
     12  C          5.4260    0.4180    1.7720 C.2     1  UNL1        0.0000
@<TRIPOS>BOND
     1     4     5    1
     2     4     2    1
     3     3     2    2
     4     2     1    1
     5     1     6    1
     6     6     7    1
     7     7     9    2
     8     7     8    1
     9     9    11    1
    10     8    10    2
    11    11    12    2
    12    10    12    1
