MODEL 1
REMARK VINA RESULT:      -7.4      0.000      0.000
REMARK SMILES O=C(O)CCc1ccccc1
REMARK SMILES IDX 4 1 2 2 1 3 3 4 5 6 6 7 7 8 11 9 8 10 10 11 9 12
REMARK H PARENT 3 5
REMARK Flexibility Score: inf
ROOT
ATOM      1  C   UNL     1       8.449  -0.558  -2.194  1.00  0.00     0.127 C 
ENDROOT
BRANCH   1   2
ATOM      2  C   UNL     1       8.508  -1.860  -2.908  1.00  0.00     0.303 C 
ATOM      3  O   UNL     1       9.569  -2.507  -3.102  1.00  0.00    -0.252 OA
BRANCH   2   4
ATOM      4  O   UNL     1       7.333  -2.411  -3.397  1.00  0.00    -0.481 OA
ATOM      5  H   UNL     1       7.147  -3.381  -3.130  1.00  0.00     0.296 HD
ENDBRANCH   2   4
ENDBRANCH   1   2
BRANCH   1   6
ATOM      6  C   UNL     1       7.027  -0.081  -2.142  1.00  0.00     0.047 C 
BRANCH   6   7
ATOM      7  C   UNL     1       6.488   0.062  -0.792  1.00  0.00    -0.047 A 
ATOM      8  C   UNL     1       6.585  -0.906   0.177  1.00  0.00     0.004 A 
ATOM      9  C   UNL     1       5.843   1.227  -0.456  1.00  0.00     0.004 A 
ATOM     10  C   UNL     1       6.072  -0.754   1.443  1.00  0.00     0.000 A 
ATOM     11  C   UNL     1       5.317   1.413   0.801  1.00  0.00     0.000 A 
ATOM     12  C   UNL     1       5.426   0.418   1.772  1.00  0.00     0.000 A 
ENDBRANCH   6   7
ENDBRANCH   1   6
TORSDOF 4
ENDMDL
MODEL 2
REMARK VINA RESULT:      -7.4      0.054      1.425
REMARK SMILES O=C(O)CCc1ccccc1
REMARK SMILES IDX 4 1 2 2 1 3 3 4 5 6 6 7 7 8 11 9 8 10 10 11 9 12
REMARK H PARENT 3 5
REMARK Flexibility Score: inf
ROOT
ATOM      1  C   UNL     1       8.439  -0.573  -2.204  1.00  0.00     0.127 C 
ENDROOT
BRANCH   1   2
ATOM      2  C   UNL     1       8.508  -1.876  -2.914  1.00  0.00     0.303 C 
ATOM      3  O   UNL     1       9.572  -2.520  -3.095  1.00  0.00    -0.252 OA
BRANCH   2   4
ATOM      4  O   UNL     1       7.339  -2.432  -3.412  1.00  0.00    -0.481 OA
ATOM      5  H   UNL     1       6.467  -2.047  -3.042  1.00  0.00     0.296 HD
ENDBRANCH   2   4
ENDBRANCH   1   2
BRANCH   1   6
ATOM      6  C   UNL     1       7.016  -0.096  -2.172  1.00  0.00     0.047 C 
BRANCH   6   7
ATOM      7  C   UNL     1       6.472   0.092  -0.829  1.00  0.00    -0.047 A 
ATOM      8  C   UNL     1       5.837   1.237  -0.416  1.00  0.00     0.004 A 
ATOM      9  C   UNL     1       6.597  -0.925   0.085  1.00  0.00     0.004 A 
ATOM     10  C   UNL     1       5.331   1.398   0.852  1.00  0.00     0.000 A 
ATOM     11  C   UNL     1       6.103  -0.797   1.363  1.00  0.00     0.000 A 
ATOM     12  C   UNL     1       5.460   0.373   1.764  1.00  0.00     0.000 A 
ENDBRANCH   6   7
ENDBRANCH   1   6
TORSDOF 4
ENDMDL
MODEL 3
REMARK VINA RESULT:      -7.1      0.388      1.759
REMARK SMILES O=C(O)CCc1ccccc1
REMARK SMILES IDX 4 1 2 2 1 3 3 4 5 6 6 7 7 8 11 9 8 10 10 11 9 12
REMARK H PARENT 3 5
REMARK Flexibility Score: inf
ROOT
ATOM      1  C   UNL     1       8.291  -1.060  -1.677  1.00  0.00     0.127 C 
ENDROOT
BRANCH   1   2
ATOM      2  C   UNL     1       8.282  -2.021  -2.810  1.00  0.00     0.303 C 
ATOM      3  O   UNL     1       7.236  -2.427  -3.378  1.00  0.00    -0.252 OA
BRANCH   2   4
ATOM      4  O   UNL     1       9.490  -2.510  -3.284  1.00  0.00    -0.481 OA
ATOM      5  H   UNL     1       9.978  -3.169  -2.672  1.00  0.00     0.296 HD
ENDBRANCH   2   4
ENDBRANCH   1   2
BRANCH   1   6
ATOM      6  C   UNL     1       7.176  -0.071  -1.853  1.00  0.00     0.047 C 
BRANCH   6   7
ATOM      7  C   UNL     1       6.458   0.254  -0.622  1.00  0.00    -0.047 A 
ATOM      8  C   UNL     1       5.732   1.406  -0.443  1.00  0.00     0.004 A 
ATOM      9  C   UNL     1       6.502  -0.632   0.425  1.00  0.00     0.004 A 
ATOM     10  C   UNL     1       5.062   1.697   0.722  1.00  0.00     0.000 A 
ATOM     11  C   UNL     1       5.845  -0.373   1.605  1.00  0.00     0.000 A 
ATOM     12  C   UNL     1       5.112   0.801   1.768  1.00  0.00     0.000 A 
ENDBRANCH   6   7
ENDBRANCH   1   6
TORSDOF 4
ENDMDL
MODEL 4
REMARK VINA RESULT:      -6.7      3.315      5.020
REMARK SMILES O=C(O)CCc1ccccc1
REMARK SMILES IDX 4 1 2 2 1 3 3 4 5 6 6 7 7 8 11 9 8 10 10 11 9 12
REMARK H PARENT 3 5
REMARK Flexibility Score: inf
ROOT
ATOM      1  C   UNL     1       5.066   1.759   0.705  1.00  0.00     0.127 C 
ENDROOT
BRANCH   1   2
ATOM      2  C   UNL     1       4.634   1.022   1.921  1.00  0.00     0.303 C 
ATOM      3  O   UNL     1       5.328   0.142   2.491  1.00  0.00    -0.252 OA
BRANCH   2   4
ATOM      4  O   UNL     1       3.396   1.309   2.475  1.00  0.00    -0.481 OA
ATOM      5  H   UNL     1       2.925   0.534   2.947  1.00  0.00     0.296 HD
ENDBRANCH   2   4
ENDBRANCH   1   2
BRANCH   1   6
ATOM      6  C   UNL     1       6.565   1.811   0.659  1.00  0.00     0.047 C 
BRANCH   6   7
ATOM      7  C   UNL     1       7.166   1.000  -0.398  1.00  0.00    -0.047 A 
ATOM      8  C   UNL     1       6.472   0.074  -1.137  1.00  0.00     0.004 A 
ATOM      9  C   UNL     1       8.499   1.161  -0.679  1.00  0.00     0.004 A 
ATOM     10  C   UNL     1       7.053  -0.681  -2.128  1.00  0.00     0.000 A 
ATOM     11  C   UNL     1       9.113   0.422  -1.664  1.00  0.00     0.000 A 
ATOM     12  C   UNL     1       8.393  -0.514  -2.404  1.00  0.00     0.000 A 
ENDBRANCH   6   7
ENDBRANCH   1   6
TORSDOF 4
ENDMDL
MODEL 5
REMARK VINA RESULT:      -6.7      1.932      2.632
REMARK SMILES O=C(O)CCc1ccccc1
REMARK SMILES IDX 4 1 2 2 1 3 3 4 5 6 6 7 7 8 11 9 8 10 10 11 9 12
REMARK H PARENT 3 5
REMARK Flexibility Score: inf
ROOT
ATOM      1  C   UNL     1       8.275   0.161  -2.183  1.00  0.00     0.127 C 
ENDROOT
BRANCH   1   2
ATOM      2  C   UNL     1       9.381   0.333  -1.206  1.00  0.00     0.303 C 
ATOM      3  O   UNL     1       9.514  -0.364  -0.168  1.00  0.00    -0.252 OA
BRANCH   2   4
ATOM      4  O   UNL     1      10.332   1.316  -1.435  1.00  0.00    -0.481 OA
ATOM      5  H   UNL     1      10.367   2.075  -0.751  1.00  0.00     0.296 HD
ENDBRANCH   2   4
ENDBRANCH   1   2
BRANCH   1   6
ATOM      6  C   UNL     1       7.139  -0.569  -1.529  1.00  0.00     0.047 C 
BRANCH   6   7
ATOM      7  C   UNL     1       6.360   0.240  -0.594  1.00  0.00    -0.047 A 
ATOM      8  C   UNL     1       5.822   1.464  -0.907  1.00  0.00     0.004 A 
ATOM      9  C   UNL     1       6.145  -0.238   0.675  1.00  0.00     0.004 A 
ATOM     10  C   UNL     1       5.091   2.212  -0.015  1.00  0.00     0.000 A 
ATOM     11  C   UNL     1       5.419   0.485   1.593  1.00  0.00     0.000 A 
ATOM     12  C   UNL     1       4.880   1.726   1.257  1.00  0.00     0.000 A 
ENDBRANCH   6   7
ENDBRANCH   1   6
TORSDOF 4
ENDMDL
