@<TRIPOS>MOLECULE
/home/cewinharhar/GITHUB/reincatalyze/data/processed/docking_pred/2023-Apr-25-2140_maxeplen10_maxtrainstep200_exh16_gamma099_lrac3e-4_lrcr1e-3/25f547df8c587039729a955c6f4cb3c83005f49c_ligand_2.pdbqt
 12 12 0 0 0
SMALL
GASTEIGER

@<TRIPOS>ATOM
      1  C          8.2920    0.5120   -1.9750 C.3     1  UNL1        0.1270
      2  C          9.4690    0.4320   -1.0710 C.2     1  UNL1        0.3030
      3  O          9.5510   -0.3570   -0.0950 O.2     1  UNL1       -0.2520
      4  O         10.5510    1.2690   -1.3020 O.3     1  UNL1       -0.4810
      5  H         11.4450    0.9630   -0.9110 H       1  UNL1        0.2960
      6  C          7.2090   -0.3930   -1.4660 C.3     1  UNL1        0.0470
      7  C          6.3980    0.1790   -0.3930 C.2     1  UNL1       -0.0470
      8  C          6.1910   -0.4350    0.8170 C.2     1  UNL1        0.0040
      9  C          5.8020    1.3990   -0.5920 C.2     1  UNL1        0.0040
     10  C          5.4250    0.1170    1.8160 C.2     1  UNL1        0.0000
     11  C          5.0280    1.9800    0.3850 C.2     1  UNL1        0.0000
     12  C          4.8290    1.3430    1.6090 C.2     1  UNL1        0.0000
@<TRIPOS>BOND
     1     1     6    1
     2     1     2    1
     3     6     7    1
     4     4     2    1
     5     4     5    1
     6     2     3    2
     7     9     7    2
     8     9    11    1
     9     7     8    1
    10    11    12    2
    11     8    10    2
    12    12    10    1
