MODEL 1
REMARK VINA RESULT:      -7.3      0.000      0.000
REMARK SMILES O=C(O)CCc1ccccc1
REMARK SMILES IDX 4 1 2 2 1 3 3 4 5 6 6 7 7 8 11 9 8 10 10 11 9 12
REMARK H PARENT 3 5
REMARK Flexibility Score: inf
ROOT
ATOM      1  C   UNL     1       8.446  -0.536  -2.263  1.00  0.00     0.127 C 
ENDROOT
BRANCH   1   2
ATOM      2  C   UNL     1       8.520  -1.859  -2.937  1.00  0.00     0.303 C 
ATOM      3  O   UNL     1       9.588  -2.500  -3.109  1.00  0.00    -0.252 OA
BRANCH   2   4
ATOM      4  O   UNL     1       7.351  -2.436  -3.410  1.00  0.00    -0.481 OA
ATOM      5  H   UNL     1       7.171  -2.328  -4.411  1.00  0.00     0.296 HD
ENDBRANCH   2   4
ENDBRANCH   1   2
BRANCH   1   6
ATOM      6  C   UNL     1       7.014  -0.097  -2.179  1.00  0.00     0.047 C 
BRANCH   6   7
ATOM      7  C   UNL     1       6.499   0.028  -0.817  1.00  0.00    -0.047 A 
ATOM      8  C   UNL     1       6.608  -0.957   0.134  1.00  0.00     0.004 A 
ATOM      9  C   UNL     1       5.868   1.191  -0.452  1.00  0.00     0.004 A 
ATOM     10  C   UNL     1       6.118  -0.822   1.411  1.00  0.00     0.000 A 
ATOM     11  C   UNL     1       5.364   1.359   0.817  1.00  0.00     0.000 A 
ATOM     12  C   UNL     1       5.485   0.348   1.770  1.00  0.00     0.000 A 
ENDBRANCH   6   7
ENDBRANCH   1   6
TORSDOF 4
ENDMDL
MODEL 2
REMARK VINA RESULT:      -7.3      0.044      1.426
REMARK SMILES O=C(O)CCc1ccccc1
REMARK SMILES IDX 4 1 2 2 1 3 3 4 5 6 6 7 7 8 11 9 8 10 10 11 9 12
REMARK H PARENT 3 5
REMARK Flexibility Score: inf
ROOT
ATOM      1  C   UNL     1       8.441  -0.546  -2.231  1.00  0.00     0.127 C 
ENDROOT
BRANCH   1   2
ATOM      2  C   UNL     1       8.526  -1.860  -2.920  1.00  0.00     0.303 C 
ATOM      3  O   UNL     1       9.597  -2.497  -3.085  1.00  0.00    -0.252 OA
BRANCH   2   4
ATOM      4  O   UNL     1       7.365  -2.432  -3.418  1.00  0.00    -0.481 OA
ATOM      5  H   UNL     1       7.080  -2.129  -4.352  1.00  0.00     0.296 HD
ENDBRANCH   2   4
ENDBRANCH   1   2
BRANCH   1   6
ATOM      6  C   UNL     1       7.009  -0.099  -2.182  1.00  0.00     0.047 C 
BRANCH   6   7
ATOM      7  C   UNL     1       6.481   0.088  -0.833  1.00  0.00    -0.047 A 
ATOM      8  C   UNL     1       5.851   1.234  -0.411  1.00  0.00     0.004 A 
ATOM      9  C   UNL     1       6.615  -0.930   0.079  1.00  0.00     0.004 A 
ATOM     10  C   UNL     1       5.360   1.393   0.863  1.00  0.00     0.000 A 
ATOM     11  C   UNL     1       6.136  -0.803   1.362  1.00  0.00     0.000 A 
ATOM     12  C   UNL     1       5.499   0.367   1.772  1.00  0.00     0.000 A 
ENDBRANCH   6   7
ENDBRANCH   1   6
TORSDOF 4
ENDMDL
MODEL 3
REMARK VINA RESULT:      -6.8      3.374      5.080
REMARK SMILES O=C(O)CCc1ccccc1
REMARK SMILES IDX 4 1 2 2 1 3 3 4 5 6 6 7 7 8 11 9 8 10 10 11 9 12
REMARK H PARENT 3 5
REMARK Flexibility Score: inf
ROOT
ATOM      1  C   UNL     1       5.006   1.794   0.690  1.00  0.00     0.127 C 
ENDROOT
BRANCH   1   2
ATOM      2  C   UNL     1       4.507   1.097   1.903  1.00  0.00     0.303 C 
ATOM      3  O   UNL     1       5.133   0.180   2.493  1.00  0.00    -0.252 OA
BRANCH   2   4
ATOM      4  O   UNL     1       3.279   1.467   2.431  1.00  0.00    -0.481 OA
ATOM      5  H   UNL     1       2.526   0.781   2.339  1.00  0.00     0.296 HD
ENDBRANCH   2   4
ENDBRANCH   1   2
BRANCH   1   6
ATOM      6  C   UNL     1       6.506   1.847   0.726  1.00  0.00     0.047 C 
BRANCH   6   7
ATOM      7  C   UNL     1       7.162   1.088  -0.336  1.00  0.00    -0.047 A 
ATOM      8  C   UNL     1       8.498   1.194  -0.638  1.00  0.00     0.004 A 
ATOM      9  C   UNL     1       6.414   0.214  -1.085  1.00  0.00     0.004 A 
ATOM     10  C   UNL     1       9.100   0.472  -1.640  1.00  0.00     0.000 A 
ATOM     11  C   UNL     1       6.984  -0.524  -2.097  1.00  0.00     0.000 A 
ATOM     12  C   UNL     1       8.342  -0.404  -2.388  1.00  0.00     0.000 A 
ENDBRANCH   6   7
ENDBRANCH   1   6
TORSDOF 4
ENDMDL
MODEL 4
REMARK VINA RESULT:      -6.6      2.003      2.304
REMARK SMILES O=C(O)CCc1ccccc1
REMARK SMILES IDX 4 1 2 2 1 3 3 4 5 6 6 7 7 8 11 9 8 10 10 11 9 12
REMARK H PARENT 3 5
REMARK Flexibility Score: inf
ROOT
ATOM      1  C   UNL     1       8.292   0.512  -1.975  1.00  0.00     0.127 C 
ENDROOT
BRANCH   1   2
ATOM      2  C   UNL     1       9.469   0.432  -1.071  1.00  0.00     0.303 C 
ATOM      3  O   UNL     1       9.551  -0.357  -0.095  1.00  0.00    -0.252 OA
BRANCH   2   4
ATOM      4  O   UNL     1      10.551   1.269  -1.302  1.00  0.00    -0.481 OA
ATOM      5  H   UNL     1      11.445   0.963  -0.911  1.00  0.00     0.296 HD
ENDBRANCH   2   4
ENDBRANCH   1   2
BRANCH   1   6
ATOM      6  C   UNL     1       7.209  -0.393  -1.466  1.00  0.00     0.047 C 
BRANCH   6   7
ATOM      7  C   UNL     1       6.398   0.179  -0.393  1.00  0.00    -0.047 A 
ATOM      8  C   UNL     1       6.191  -0.435   0.817  1.00  0.00     0.004 A 
ATOM      9  C   UNL     1       5.802   1.399  -0.592  1.00  0.00     0.004 A 
ATOM     10  C   UNL     1       5.425   0.117   1.816  1.00  0.00     0.000 A 
ATOM     11  C   UNL     1       5.028   1.980   0.385  1.00  0.00     0.000 A 
ATOM     12  C   UNL     1       4.829   1.343   1.609  1.00  0.00     0.000 A 
ENDBRANCH   6   7
ENDBRANCH   1   6
TORSDOF 4
ENDMDL
MODEL 5
REMARK VINA RESULT:      -6.6      3.844      4.955
REMARK SMILES O=C(O)CCc1ccccc1
REMARK SMILES IDX 4 1 2 2 1 3 3 4 5 6 6 7 7 8 11 9 8 10 10 11 9 12
REMARK H PARENT 3 5
REMARK Flexibility Score: inf
ROOT
ATOM      1  C   UNL     1       5.508   2.871  -0.005  1.00  0.00     0.127 C 
ENDROOT
BRANCH   1   2
ATOM      2  C   UNL     1       6.218   3.854   0.855  1.00  0.00     0.303 C 
ATOM      3  O   UNL     1       6.097   3.907   2.105  1.00  0.00    -0.252 OA
BRANCH   2   4
ATOM      4  O   UNL     1       7.068   4.774   0.261  1.00  0.00    -0.481 OA
ATOM      5  H   UNL     1       7.461   5.486   0.880  1.00  0.00     0.296 HD
ENDBRANCH   2   4
ENDBRANCH   1   2
BRANCH   1   6
ATOM      6  C   UNL     1       4.900   1.802   0.854  1.00  0.00     0.047 C 
BRANCH   6   7
ATOM      7  C   UNL     1       5.704   0.587   0.967  1.00  0.00    -0.047 A 
ATOM      8  C   UNL     1       5.730  -0.211   2.083  1.00  0.00     0.004 A 
ATOM      9  C   UNL     1       6.485   0.209  -0.097  1.00  0.00     0.004 A 
ATOM     10  C   UNL     1       6.492  -1.352   2.172  1.00  0.00     0.000 A 
ATOM     11  C   UNL     1       7.261  -0.926  -0.042  1.00  0.00     0.000 A 
ATOM     12  C   UNL     1       7.273  -1.725   1.100  1.00  0.00     0.000 A 
ENDBRANCH   6   7
ENDBRANCH   1   6
TORSDOF 4
ENDMDL
