@<TRIPOS>MOLECULE
/home/cewinharhar/GITHUB/reincatalyze/data/processed/docking_pred/2023-Apr-25-2140_maxeplen10_maxtrainstep200_exh16_gamma099_lrac3e-4_lrcr1e-3/25f547df8c587039729a955c6f4cb3c83005f49c_ligand_2.pdbqt
 12 12 0 0 0
SMALL
GASTEIGER

@<TRIPOS>ATOM
      1  C          8.4410   -0.5460   -2.2310 C.3     1  UNL1        0.1270
      2  C          8.5260   -1.8600   -2.9200 C.2     1  UNL1        0.3030
      3  O          9.5970   -2.4970   -3.0850 O.2     1  UNL1       -0.2520
      4  O          7.3650   -2.4320   -3.4180 O.3     1  UNL1       -0.4810
      5  H          7.0800   -2.1290   -4.3520 H       1  UNL1        0.2960
      6  C          7.0090   -0.0990   -2.1820 C.3     1  UNL1        0.0470
      7  C          6.4810    0.0880   -0.8330 C.2     1  UNL1       -0.0470
      8  C          5.8510    1.2340   -0.4110 C.2     1  UNL1        0.0040
      9  C          6.6150   -0.9300    0.0790 C.2     1  UNL1        0.0040
     10  C          5.3600    1.3930    0.8630 C.2     1  UNL1        0.0000
     11  C          6.1360   -0.8030    1.3620 C.2     1  UNL1        0.0000
     12  C          5.4990    0.3670    1.7720 C.2     1  UNL1        0.0000
@<TRIPOS>BOND
     1     5     4    1
     2     4     2    1
     3     3     2    2
     4     2     1    1
     5     1     6    1
     6     6     7    1
     7     7     8    2
     8     7     9    1
     9     8    10    1
    10     9    11    2
    11    10    12    2
    12    11    12    1
