@<TRIPOS>MOLECULE
/home/cewinharhar/GITHUB/reincatalyze/data/processed/docking_pred/2023-Apr-25-2140_maxeplen10_maxtrainstep200_exh16_gamma099_lrac3e-4_lrcr1e-3/25f547df8c587039729a955c6f4cb3c83005f49c_ligand_2.pdbqt
 12 12 0 0 0
SMALL
GASTEIGER

@<TRIPOS>ATOM
      1  C          5.5080    2.8710   -0.0050 C.3     1  UNL1        0.1270
      2  C          6.2180    3.8540    0.8550 C.2     1  UNL1        0.3030
      3  O          6.0970    3.9070    2.1050 O.2     1  UNL1       -0.2520
      4  O          7.0680    4.7740    0.2610 O.3     1  UNL1       -0.4810
      5  H          7.4610    5.4860    0.8800 H       1  UNL1        0.2960
      6  C          4.9000    1.8020    0.8540 C.3     1  UNL1        0.0470
      7  C          5.7040    0.5870    0.9670 C.2     1  UNL1       -0.0470
      8  C          5.7300   -0.2110    2.0830 C.2     1  UNL1        0.0040
      9  C          6.4850    0.2090   -0.0970 C.2     1  UNL1        0.0040
     10  C          6.4920   -1.3520    2.1720 C.2     1  UNL1        0.0000
     11  C          7.2610   -0.9260   -0.0420 C.2     1  UNL1        0.0000
     12  C          7.2730   -1.7250    1.1000 C.2     1  UNL1        0.0000
@<TRIPOS>BOND
     1     9    11    1
     2     9     7    2
     3    11    12    2
     4     1     6    1
     5     1     2    1
     6     4     2    1
     7     4     5    1
     8     6     7    1
     9     2     3    2
    10     7     8    1
    11    12    10    1
    12     8    10    2
