@<TRIPOS>MOLECULE
/home/cewinharhar/GITHUB/reincatalyze/data/processed/docking_pred/2023-Apr-25-2140_maxeplen10_maxtrainstep200_exh16_gamma099_lrac3e-4_lrcr1e-3/25f547df8c587039729a955c6f4cb3c83005f49c_ligand_2.pdbqt
 12 12 0 0 0
SMALL
GASTEIGER

@<TRIPOS>ATOM
      1  C          5.0060    1.7940    0.6900 C.3     1  UNL1        0.1270
      2  C          4.5070    1.0970    1.9030 C.2     1  UNL1        0.3030
      3  O          5.1330    0.1800    2.4930 O.2     1  UNL1       -0.2520
      4  O          3.2790    1.4670    2.4310 O.3     1  UNL1       -0.4810
      5  H          2.5260    0.7810    2.3390 H       1  UNL1        0.2960
      6  C          6.5060    1.8470    0.7260 C.3     1  UNL1        0.0470
      7  C          7.1620    1.0880   -0.3360 C.2     1  UNL1       -0.0470
      8  C          8.4980    1.1940   -0.6380 C.2     1  UNL1        0.0040
      9  C          6.4140    0.2140   -1.0850 C.2     1  UNL1        0.0040
     10  C          9.1000    0.4720   -1.6400 C.2     1  UNL1        0.0000
     11  C          6.9840   -0.5240   -2.0970 C.2     1  UNL1        0.0000
     12  C          8.3420   -0.4040   -2.3880 C.2     1  UNL1        0.0000
@<TRIPOS>BOND
     1    12    11    2
     2    12    10    1
     3    11     9    1
     4    10     8    2
     5     9     7    2
     6     8     7    1
     7     7     6    1
     8     1     6    1
     9     1     2    1
    10     2     4    1
    11     2     3    2
    12     5     4    1
