@<TRIPOS>MOLECULE
/home/cewinharhar/GITHUB/reincatalyze/data/processed/docking_pred/2023-Apr-25-2140_maxeplen10_maxtrainstep200_exh16_gamma099_lrac3e-4_lrcr1e-3/2734134eb9e7fe1a9a1e6734a306fe03ba38cdbb_ligand_2.pdbqt
 12 12 0 0 0
SMALL
GASTEIGER

@<TRIPOS>ATOM
      1  C          8.4360   -0.5890   -2.1890 C.3     1  UNL1        0.1270
      2  C          8.5080   -1.8870   -2.9090 C.2     1  UNL1        0.3030
      3  O          9.5730   -2.5260   -3.0980 O.2     1  UNL1       -0.2520
      4  O          7.3390   -2.4410   -3.4100 O.3     1  UNL1       -0.4810
      5  H          6.7210   -1.8030   -3.9160 H       1  UNL1        0.2960
      6  C          7.0150   -0.1070   -2.1680 C.3     1  UNL1        0.0470
      7  C          6.4650    0.0930   -0.8290 C.2     1  UNL1       -0.0470
      8  C          5.8250    1.2410   -0.4300 C.2     1  UNL1        0.0040
      9  C          6.5880   -0.9140    0.0950 C.2     1  UNL1        0.0040
     10  C          5.3130    1.4130    0.8340 C.2     1  UNL1        0.0000
     11  C          6.0880   -0.7760    1.3700 C.2     1  UNL1        0.0000
     12  C          5.4410    0.3970    1.7560 C.2     1  UNL1        0.0000
@<TRIPOS>BOND
     1     5     4    1
     2     4     2    1
     3     3     2    2
     4     2     1    1
     5     1     6    1
     6     6     7    1
     7     7     8    2
     8     7     9    1
     9     8    10    1
    10     9    11    2
    11    10    12    2
    12    11    12    1
