@<TRIPOS>MOLECULE
/home/cewinharhar/GITHUB/reincatalyze/data/processed/docking_pred/2023-Apr-25-2140_maxeplen10_maxtrainstep200_exh16_gamma099_lrac3e-4_lrcr1e-3/2734134eb9e7fe1a9a1e6734a306fe03ba38cdbb_ligand_2.pdbqt
 12 12 0 0 0
SMALL
GASTEIGER

@<TRIPOS>ATOM
      1  C          8.2280    0.2130   -2.1310 C.3     1  UNL1        0.1270
      2  C          9.3780    0.3480   -1.1990 C.2     1  UNL1        0.3030
      3  O          9.5320   -0.3560   -0.1690 O.2     1  UNL1       -0.2520
      4  O         10.3480    1.3020   -1.4650 O.3     1  UNL1       -0.4810
      5  H         10.5580    1.9530   -0.7050 H       1  UNL1        0.2960
      6  C          7.1480   -0.6000   -1.4780 C.3     1  UNL1        0.0470
      7  C          6.3670    0.1260   -0.4790 C.2     1  UNL1       -0.0470
      8  C          5.7890    1.3520   -0.7040 C.2     1  UNL1        0.0040
      9  C          6.1920   -0.4350    0.7610 C.2     1  UNL1        0.0040
     10  C          5.0560    2.0210    0.2470 C.2     1  UNL1        0.0000
     11  C          5.4650    0.2080    1.7370 C.2     1  UNL1        0.0000
     12  C          4.8850    1.4510    1.4900 C.2     1  UNL1        0.0000
@<TRIPOS>BOND
     1     1     6    1
     2     1     2    1
     3     6     7    1
     4     4     2    1
     5     4     5    1
     6     2     3    2
     7     8     7    2
     8     8    10    1
     9     7     9    1
    10    10    12    2
    11     9    11    2
    12    12    11    1
