MODEL 1
REMARK VINA RESULT:      -7.4      0.000      0.000
REMARK SMILES O=C(O)CCc1ccccc1
REMARK SMILES IDX 4 1 2 2 1 3 3 4 5 6 6 7 7 8 11 9 8 10 10 11 9 12
REMARK H PARENT 3 5
REMARK Flexibility Score: inf
ROOT
ATOM      1  C   UNL     1       8.436  -0.589  -2.189  1.00  0.00     0.127 C 
ENDROOT
BRANCH   1   2
ATOM      2  C   UNL     1       8.508  -1.887  -2.909  1.00  0.00     0.303 C 
ATOM      3  O   UNL     1       9.573  -2.526  -3.098  1.00  0.00    -0.252 OA
BRANCH   2   4
ATOM      4  O   UNL     1       7.339  -2.441  -3.410  1.00  0.00    -0.481 OA
ATOM      5  H   UNL     1       6.721  -1.803  -3.916  1.00  0.00     0.296 HD
ENDBRANCH   2   4
ENDBRANCH   1   2
BRANCH   1   6
ATOM      6  C   UNL     1       7.015  -0.107  -2.168  1.00  0.00     0.047 C 
BRANCH   6   7
ATOM      7  C   UNL     1       6.465   0.093  -0.829  1.00  0.00    -0.047 A 
ATOM      8  C   UNL     1       5.825   1.241  -0.430  1.00  0.00     0.004 A 
ATOM      9  C   UNL     1       6.588  -0.914   0.095  1.00  0.00     0.004 A 
ATOM     10  C   UNL     1       5.313   1.413   0.834  1.00  0.00     0.000 A 
ATOM     11  C   UNL     1       6.088  -0.776   1.370  1.00  0.00     0.000 A 
ATOM     12  C   UNL     1       5.441   0.397   1.756  1.00  0.00     0.000 A 
ENDBRANCH   6   7
ENDBRANCH   1   6
TORSDOF 4
ENDMDL
MODEL 2
REMARK VINA RESULT:      -7.3      0.108      1.430
REMARK SMILES O=C(O)CCc1ccccc1
REMARK SMILES IDX 4 1 2 2 1 3 3 4 5 6 6 7 7 8 11 9 8 10 10 11 9 12
REMARK H PARENT 3 5
REMARK Flexibility Score: inf
ROOT
ATOM      1  C   UNL     1       8.420  -0.514  -2.303  1.00  0.00     0.127 C 
ENDROOT
BRANCH   1   2
ATOM      2  C   UNL     1       8.495  -1.848  -2.953  1.00  0.00     0.303 C 
ATOM      3  O   UNL     1       9.558  -2.506  -3.084  1.00  0.00    -0.252 OA
BRANCH   2   4
ATOM      4  O   UNL     1       7.332  -2.417  -3.451  1.00  0.00    -0.481 OA
ATOM      5  H   UNL     1       6.795  -1.842  -4.104  1.00  0.00     0.296 HD
ENDBRANCH   2   4
ENDBRANCH   1   2
BRANCH   1   6
ATOM      6  C   UNL     1       6.984  -0.093  -2.190  1.00  0.00     0.047 C 
BRANCH   6   7
ATOM      7  C   UNL     1       6.488  -0.003  -0.819  1.00  0.00    -0.047 A 
ATOM      8  C   UNL     1       6.596  -1.017   0.101  1.00  0.00     0.004 A 
ATOM      9  C   UNL     1       5.874   1.155  -0.411  1.00  0.00     0.004 A 
ATOM     10  C   UNL     1       6.123  -0.915   1.388  1.00  0.00     0.000 A 
ATOM     11  C   UNL     1       5.389   1.291   0.869  1.00  0.00     0.000 A 
ATOM     12  C   UNL     1       5.508   0.251   1.790  1.00  0.00     0.000 A 
ENDBRANCH   6   7
ENDBRANCH   1   6
TORSDOF 4
ENDMDL
MODEL 3
REMARK VINA RESULT:      -6.8      3.344      5.039
REMARK SMILES O=C(O)CCc1ccccc1
REMARK SMILES IDX 4 1 2 2 1 3 3 4 5 6 6 7 7 8 11 9 8 10 10 11 9 12
REMARK H PARENT 3 5
REMARK Flexibility Score: inf
ROOT
ATOM      1  C   UNL     1       5.001   1.776   0.681  1.00  0.00     0.127 C 
ENDROOT
BRANCH   1   2
ATOM      2  C   UNL     1       4.593   1.052   1.914  1.00  0.00     0.303 C 
ATOM      3  O   UNL     1       5.306   0.192   2.490  1.00  0.00    -0.252 OA
BRANCH   2   4
ATOM      4  O   UNL     1       3.356   1.329   2.476  1.00  0.00    -0.481 OA
ATOM      5  H   UNL     1       2.587   1.474   1.818  1.00  0.00     0.296 HD
ENDBRANCH   2   4
ENDBRANCH   1   2
BRANCH   1   6
ATOM      6  C   UNL     1       6.494   1.914   0.654  1.00  0.00     0.047 C 
BRANCH   6   7
ATOM      7  C   UNL     1       7.156   1.120  -0.379  1.00  0.00    -0.047 A 
ATOM      8  C   UNL     1       8.502   1.179  -0.643  1.00  0.00     0.004 A 
ATOM      9  C   UNL     1       6.401   0.261  -1.139  1.00  0.00     0.004 A 
ATOM     10  C   UNL     1       9.108   0.425  -1.620  1.00  0.00     0.000 A 
ATOM     11  C   UNL     1       6.974  -0.508  -2.125  1.00  0.00     0.000 A 
ATOM     12  C   UNL     1       8.343  -0.435  -2.379  1.00  0.00     0.000 A 
ENDBRANCH   6   7
ENDBRANCH   1   6
TORSDOF 4
ENDMDL
MODEL 4
REMARK VINA RESULT:      -6.7      1.947      2.237
REMARK SMILES O=C(O)CCc1ccccc1
REMARK SMILES IDX 4 1 2 2 1 3 3 4 5 6 6 7 7 8 11 9 8 10 10 11 9 12
REMARK H PARENT 3 5
REMARK Flexibility Score: inf
ROOT
ATOM      1  C   UNL     1       8.228   0.213  -2.131  1.00  0.00     0.127 C 
ENDROOT
BRANCH   1   2
ATOM      2  C   UNL     1       9.378   0.348  -1.199  1.00  0.00     0.303 C 
ATOM      3  O   UNL     1       9.532  -0.356  -0.169  1.00  0.00    -0.252 OA
BRANCH   2   4
ATOM      4  O   UNL     1      10.348   1.302  -1.465  1.00  0.00    -0.481 OA
ATOM      5  H   UNL     1      10.558   1.953  -0.705  1.00  0.00     0.296 HD
ENDBRANCH   2   4
ENDBRANCH   1   2
BRANCH   1   6
ATOM      6  C   UNL     1       7.148  -0.600  -1.478  1.00  0.00     0.047 C 
BRANCH   6   7
ATOM      7  C   UNL     1       6.367   0.126  -0.479  1.00  0.00    -0.047 A 
ATOM      8  C   UNL     1       5.789   1.352  -0.704  1.00  0.00     0.004 A 
ATOM      9  C   UNL     1       6.192  -0.435   0.761  1.00  0.00     0.004 A 
ATOM     10  C   UNL     1       5.056   2.021   0.247  1.00  0.00     0.000 A 
ATOM     11  C   UNL     1       5.465   0.208   1.737  1.00  0.00     0.000 A 
ATOM     12  C   UNL     1       4.885   1.451   1.490  1.00  0.00     0.000 A 
ENDBRANCH   6   7
ENDBRANCH   1   6
TORSDOF 4
ENDMDL
MODEL 5
REMARK VINA RESULT:      -6.6      3.852      4.905
REMARK SMILES O=C(O)CCc1ccccc1
REMARK SMILES IDX 4 1 2 2 1 3 3 4 5 6 6 7 7 8 11 9 8 10 10 11 9 12
REMARK H PARENT 3 5
REMARK Flexibility Score: inf
ROOT
ATOM      1  C   UNL     1       5.672   2.916  -0.112  1.00  0.00     0.127 C 
ENDROOT
BRANCH   1   2
ATOM      2  C   UNL     1       6.381   3.879   0.770  1.00  0.00     0.303 C 
ATOM      3  O   UNL     1       7.157   4.774   0.349  1.00  0.00    -0.252 OA
BRANCH   2   4
ATOM      4  O   UNL     1       6.188   3.801   2.141  1.00  0.00    -0.481 OA
ATOM      5  H   UNL     1       5.228   3.935   2.466  1.00  0.00     0.296 HD
ENDBRANCH   2   4
ENDBRANCH   1   2
BRANCH   1   6
ATOM      6  C   UNL     1       5.003   1.868   0.728  1.00  0.00     0.047 C 
BRANCH   6   7
ATOM      7  C   UNL     1       5.758   0.624   0.857  1.00  0.00    -0.047 A 
ATOM      8  C   UNL     1       6.461   0.047  -0.172  1.00  0.00     0.004 A 
ATOM      9  C   UNL     1       5.775  -0.018   2.070  1.00  0.00     0.004 A 
ATOM     10  C   UNL     1       7.166  -1.125  -0.034  1.00  0.00     0.000 A 
ATOM     11  C   UNL     1       6.470  -1.193   2.244  1.00  0.00     0.000 A 
ATOM     12  C   UNL     1       7.178  -1.763   1.187  1.00  0.00     0.000 A 
ENDBRANCH   6   7
ENDBRANCH   1   6
TORSDOF 4
ENDMDL
