@<TRIPOS>MOLECULE
/home/cewinharhar/GITHUB/reincatalyze/data/processed/docking_pred/2023-Apr-25-2140_maxeplen10_maxtrainstep200_exh16_gamma099_lrac3e-4_lrcr1e-3/2734134eb9e7fe1a9a1e6734a306fe03ba38cdbb_ligand_2.pdbqt
 12 12 0 0 0
SMALL
GASTEIGER

@<TRIPOS>ATOM
      1  C          5.6720    2.9160   -0.1120 C.3     1  UNL1        0.1270
      2  C          6.3810    3.8790    0.7700 C.2     1  UNL1        0.3030
      3  O          7.1570    4.7740    0.3490 O.2     1  UNL1       -0.2520
      4  O          6.1880    3.8010    2.1410 O.3     1  UNL1       -0.4810
      5  H          5.2280    3.9350    2.4660 H       1  UNL1        0.2960
      6  C          5.0030    1.8680    0.7280 C.3     1  UNL1        0.0470
      7  C          5.7580    0.6240    0.8570 C.2     1  UNL1       -0.0470
      8  C          6.4610    0.0470   -0.1720 C.2     1  UNL1        0.0040
      9  C          5.7750   -0.0180    2.0700 C.2     1  UNL1        0.0040
     10  C          7.1660   -1.1250   -0.0340 C.2     1  UNL1        0.0000
     11  C          6.4700   -1.1930    2.2440 C.2     1  UNL1        0.0000
     12  C          7.1780   -1.7630    1.1870 C.2     1  UNL1        0.0000
@<TRIPOS>BOND
     1     8    10    1
     2     8     7    2
     3     1     6    1
     4     1     2    1
     5    10    12    2
     6     3     2    2
     7     6     7    1
     8     2     4    1
     9     7     9    1
    10    12    11    1
    11     9    11    2
    12     4     5    1
