@<TRIPOS>MOLECULE
/home/cewinharhar/GITHUB/reincatalyze/data/processed/docking_pred/2023-Apr-25-2140_maxeplen10_maxtrainstep200_exh16_gamma099_lrac3e-4_lrcr1e-3/2734134eb9e7fe1a9a1e6734a306fe03ba38cdbb_ligand_2.pdbqt
 12 12 0 0 0
SMALL
GASTEIGER

@<TRIPOS>ATOM
      1  C          5.0010    1.7760    0.6810 C.3     1  UNL1        0.1270
      2  C          4.5930    1.0520    1.9140 C.2     1  UNL1        0.3030
      3  O          5.3060    0.1920    2.4900 O.2     1  UNL1       -0.2520
      4  O          3.3560    1.3290    2.4760 O.3     1  UNL1       -0.4810
      5  H          2.5870    1.4740    1.8180 H       1  UNL1        0.2960
      6  C          6.4940    1.9140    0.6540 C.3     1  UNL1        0.0470
      7  C          7.1560    1.1200   -0.3790 C.2     1  UNL1       -0.0470
      8  C          8.5020    1.1790   -0.6430 C.2     1  UNL1        0.0040
      9  C          6.4010    0.2610   -1.1390 C.2     1  UNL1        0.0040
     10  C          9.1080    0.4250   -1.6200 C.2     1  UNL1        0.0000
     11  C          6.9740   -0.5080   -2.1250 C.2     1  UNL1        0.0000
     12  C          8.3430   -0.4350   -2.3790 C.2     1  UNL1        0.0000
@<TRIPOS>BOND
     1    12    11    2
     2    12    10    1
     3    11     9    1
     4    10     8    2
     5     9     7    2
     6     8     7    1
     7     7     6    1
     8     6     1    1
     9     1     2    1
    10     5     4    1
    11     2     4    1
    12     2     3    2
