@<TRIPOS>MOLECULE
/home/cewinharhar/GITHUB/reincatalyze/data/processed/docking_pred/2023-Apr-25-2140_maxeplen10_maxtrainstep200_exh16_gamma099_lrac3e-4_lrcr1e-3/2734134eb9e7fe1a9a1e6734a306fe03ba38cdbb_ligand_2.pdbqt
 12 12 0 0 0
SMALL
GASTEIGER

@<TRIPOS>ATOM
      1  C          8.4200   -0.5140   -2.3030 C.3     1  UNL1        0.1270
      2  C          8.4950   -1.8480   -2.9530 C.2     1  UNL1        0.3030
      3  O          9.5580   -2.5060   -3.0840 O.2     1  UNL1       -0.2520
      4  O          7.3320   -2.4170   -3.4510 O.3     1  UNL1       -0.4810
      5  H          6.7950   -1.8420   -4.1040 H       1  UNL1        0.2960
      6  C          6.9840   -0.0930   -2.1900 C.3     1  UNL1        0.0470
      7  C          6.4880   -0.0030   -0.8190 C.2     1  UNL1       -0.0470
      8  C          6.5960   -1.0170    0.1010 C.2     1  UNL1        0.0040
      9  C          5.8740    1.1550   -0.4110 C.2     1  UNL1        0.0040
     10  C          6.1230   -0.9150    1.3880 C.2     1  UNL1        0.0000
     11  C          5.3890    1.2910    0.8690 C.2     1  UNL1        0.0000
     12  C          5.5080    0.2510    1.7900 C.2     1  UNL1        0.0000
@<TRIPOS>BOND
     1     5     4    1
     2     4     2    1
     3     3     2    2
     4     2     1    1
     5     1     6    1
     6     6     7    1
     7     7     9    2
     8     7     8    1
     9     9    11    1
    10     8    10    2
    11    11    12    2
    12    10    12    1
