@<TRIPOS>MOLECULE
/home/cewinharhar/GITHUB/reincatalyze/data/processed/docking_pred/2023-Apr-25-2140_maxeplen10_maxtrainstep200_exh16_gamma099_lrac3e-4_lrcr1e-3/287d700aa29cdd08db1558ad291e1b5912b75232_ligand_2.pdbqt
 12 12 0 0 0
SMALL
GASTEIGER

@<TRIPOS>ATOM
      1  C          5.4910    2.8660   -0.0640 C.3     1  UNL1        0.1270
      2  C          6.2650    3.8500    0.7380 C.2     1  UNL1        0.3030
      3  O          6.9600    4.7700    0.2380 O.2     1  UNL1       -0.2520
      4  O          6.2300    3.7620    2.1220 O.3     1  UNL1       -0.4810
      5  H          6.5900    2.8950    2.5250 H       1  UNL1        0.2960
      6  C          4.9110    1.8250    0.8470 C.3     1  UNL1        0.0470
      7  C          5.6750    0.5810    0.9070 C.2     1  UNL1       -0.0470
      8  C          6.2860    0.0070   -0.1810 C.2     1  UNL1        0.0040
      9  C          5.7980   -0.0640    2.1120 C.2     1  UNL1        0.0040
     10  C          7.0020   -1.1650   -0.1070 C.2     1  UNL1        0.0000
     11  C          6.5050   -1.2390    2.2220 C.2     1  UNL1        0.0000
     12  C          7.1200   -1.8060    1.1070 C.2     1  UNL1        0.0000
@<TRIPOS>BOND
     1     8    10    1
     2     8     7    2
     3    10    12    2
     4     1     2    1
     5     1     6    1
     6     3     2    2
     7     2     4    1
     8     6     7    1
     9     7     9    1
    10    12    11    1
    11     9    11    2
    12     4     5    1
