@<TRIPOS>MOLECULE
/home/cewinharhar/GITHUB/reincatalyze/data/processed/docking_pred/2023-Apr-25-2140_maxeplen10_maxtrainstep200_exh16_gamma099_lrac3e-4_lrcr1e-3/287d700aa29cdd08db1558ad291e1b5912b75232_ligand_2.pdbqt
 12 12 0 0 0
SMALL
GASTEIGER

@<TRIPOS>ATOM
      1  C          8.4550   -0.5350   -2.2450 C.3     1  UNL1        0.1270
      2  C          8.5070   -1.8500   -2.9360 C.2     1  UNL1        0.3030
      3  O          9.5580   -2.5240   -3.0830 O.2     1  UNL1       -0.2520
      4  O          7.3360   -2.3810   -3.4560 O.3     1  UNL1       -0.4810
      5  H          7.2350   -2.3330   -4.4730 H       1  UNL1        0.2960
      6  C          7.0300   -0.0720   -2.1590 C.3     1  UNL1        0.0470
      7  C          6.5060    0.0190   -0.7980 C.2     1  UNL1       -0.0470
      8  C          6.6240   -0.9820    0.1350 C.2     1  UNL1        0.0040
      9  C          5.8540    1.1650   -0.4150 C.2     1  UNL1        0.0040
     10  C          6.1240   -0.8790    1.4120 C.2     1  UNL1        0.0000
     11  C          5.3410    1.3010    0.8550 C.2     1  UNL1        0.0000
     12  C          5.4710    0.2750    1.7890 C.2     1  UNL1        0.0000
@<TRIPOS>BOND
     1     5     4    1
     2     4     2    1
     3     3     2    2
     4     2     1    1
     5     1     6    1
     6     6     7    1
     7     7     9    2
     8     7     8    1
     9     9    11    1
    10     8    10    2
    11    11    12    2
    12    10    12    1
