@<TRIPOS>MOLECULE
/home/cewinharhar/GITHUB/reincatalyze/data/processed/docking_pred/2023-Apr-25-2140_maxeplen10_maxtrainstep200_exh16_gamma099_lrac3e-4_lrcr1e-3/287d700aa29cdd08db1558ad291e1b5912b75232_ligand_2.pdbqt
 12 12 0 0 0
SMALL
GASTEIGER

@<TRIPOS>ATOM
      1  C          8.2850    0.2920   -2.1760 C.3     1  UNL1        0.1270
      2  C          9.3960    0.3450   -1.1900 C.2     1  UNL1        0.3030
      3  O          9.4740   -0.4010   -0.1810 O.2     1  UNL1       -0.2520
      4  O         10.4160    1.2650   -1.3780 O.3     1  UNL1       -0.4810
      5  H         10.3270    2.1450   -0.8650 H       1  UNL1        0.2960
      6  C          7.1360   -0.4770   -1.5930 C.3     1  UNL1        0.0470
      7  C          6.3580    0.2610   -0.6000 C.2     1  UNL1       -0.0470
      8  C          6.1300   -0.1860    0.6780 C.2     1  UNL1        0.0040
      9  C          5.8160    1.4730   -0.9510 C.2     1  UNL1        0.0040
     10  C          5.3950    0.5210    1.5990 C.2     1  UNL1        0.0000
     11  C          5.0750    2.2070   -0.0540 C.2     1  UNL1        0.0000
     12  C          4.8540    1.7370    1.2400 C.2     1  UNL1        0.0000
@<TRIPOS>BOND
     1     1     6    1
     2     1     2    1
     3     6     7    1
     4     4     2    1
     5     4     5    1
     6     2     3    2
     7     9     7    2
     8     9    11    1
     9     7     8    1
    10    11    12    2
    11     8    10    2
    12    12    10    1
