MODEL 1
REMARK VINA RESULT:      -7.4      0.000      0.000
REMARK SMILES O=C(O)CCc1ccccc1
REMARK SMILES IDX 4 1 2 2 1 3 3 4 5 6 6 7 7 8 11 9 8 10 10 11 9 12
REMARK H PARENT 3 5
REMARK Flexibility Score: inf
ROOT
ATOM      1  C   UNL     1       8.430  -0.585  -2.183  1.00  0.00     0.127 C 
ENDROOT
BRANCH   1   2
ATOM      2  C   UNL     1       8.503  -1.882  -2.906  1.00  0.00     0.303 C 
ATOM      3  O   UNL     1       9.570  -2.519  -3.097  1.00  0.00    -0.252 OA
BRANCH   2   4
ATOM      4  O   UNL     1       7.335  -2.438  -3.406  1.00  0.00    -0.481 OA
ATOM      5  H   UNL     1       6.691  -1.789  -3.864  1.00  0.00     0.296 HD
ENDBRANCH   2   4
ENDBRANCH   1   2
BRANCH   1   6
ATOM      6  C   UNL     1       7.005  -0.118  -2.138  1.00  0.00     0.047 C 
BRANCH   6   7
ATOM      7  C   UNL     1       6.468   0.050  -0.790  1.00  0.00    -0.047 A 
ATOM      8  C   UNL     1       5.833   1.188  -0.357  1.00  0.00     0.004 A 
ATOM      9  C   UNL     1       6.598  -0.979   0.109  1.00  0.00     0.004 A 
ATOM     10  C   UNL     1       5.333   1.330   0.916  1.00  0.00     0.000 A 
ATOM     11  C   UNL     1       6.111  -0.871   1.391  1.00  0.00     0.000 A 
ATOM     12  C   UNL     1       5.468   0.292   1.812  1.00  0.00     0.000 A 
ENDBRANCH   6   7
ENDBRANCH   1   6
TORSDOF 4
ENDMDL
MODEL 2
REMARK VINA RESULT:      -7.4      0.054      1.426
REMARK SMILES O=C(O)CCc1ccccc1
REMARK SMILES IDX 4 1 2 2 1 3 3 4 5 6 6 7 7 8 11 9 8 10 10 11 9 12
REMARK H PARENT 3 5
REMARK Flexibility Score: inf
ROOT
ATOM      1  C   UNL     1       8.455  -0.535  -2.245  1.00  0.00     0.127 C 
ENDROOT
BRANCH   1   2
ATOM      2  C   UNL     1       8.507  -1.850  -2.936  1.00  0.00     0.303 C 
ATOM      3  O   UNL     1       9.558  -2.524  -3.083  1.00  0.00    -0.252 OA
BRANCH   2   4
ATOM      4  O   UNL     1       7.336  -2.381  -3.456  1.00  0.00    -0.481 OA
ATOM      5  H   UNL     1       7.235  -2.333  -4.473  1.00  0.00     0.296 HD
ENDBRANCH   2   4
ENDBRANCH   1   2
BRANCH   1   6
ATOM      6  C   UNL     1       7.030  -0.072  -2.159  1.00  0.00     0.047 C 
BRANCH   6   7
ATOM      7  C   UNL     1       6.506   0.019  -0.798  1.00  0.00    -0.047 A 
ATOM      8  C   UNL     1       6.624  -0.982   0.135  1.00  0.00     0.004 A 
ATOM      9  C   UNL     1       5.854   1.165  -0.415  1.00  0.00     0.004 A 
ATOM     10  C   UNL     1       6.124  -0.879   1.412  1.00  0.00     0.000 A 
ATOM     11  C   UNL     1       5.341   1.301   0.855  1.00  0.00     0.000 A 
ATOM     12  C   UNL     1       5.471   0.275   1.789  1.00  0.00     0.000 A 
ENDBRANCH   6   7
ENDBRANCH   1   6
TORSDOF 4
ENDMDL
MODEL 3
REMARK VINA RESULT:      -6.8      3.364      5.077
REMARK SMILES O=C(O)CCc1ccccc1
REMARK SMILES IDX 4 1 2 2 1 3 3 4 5 6 6 7 7 8 11 9 8 10 10 11 9 12
REMARK H PARENT 3 5
REMARK Flexibility Score: inf
ROOT
ATOM      1  C   UNL     1       5.020   1.823   0.692  1.00  0.00     0.127 C 
ENDROOT
BRANCH   1   2
ATOM      2  C   UNL     1       4.531   1.110   1.900  1.00  0.00     0.303 C 
ATOM      3  O   UNL     1       5.173   0.201   2.486  1.00  0.00    -0.252 OA
BRANCH   2   4
ATOM      4  O   UNL     1       3.295   1.454   2.427  1.00  0.00    -0.481 OA
ATOM      5  H   UNL     1       3.144   1.211   3.409  1.00  0.00     0.296 HD
ENDBRANCH   2   4
ENDBRANCH   1   2
BRANCH   1   6
ATOM      6  C   UNL     1       6.521   1.825   0.686  1.00  0.00     0.047 C 
BRANCH   6   7
ATOM      7  C   UNL     1       7.122   1.019  -0.373  1.00  0.00    -0.047 A 
ATOM      8  C   UNL     1       6.432   0.089  -1.111  1.00  0.00     0.004 A 
ATOM      9  C   UNL     1       8.454   1.189  -0.660  1.00  0.00     0.004 A 
ATOM     10  C   UNL     1       7.014  -0.661  -2.105  1.00  0.00     0.000 A 
ATOM     11  C   UNL     1       9.069   0.454  -1.648  1.00  0.00     0.000 A 
ATOM     12  C   UNL     1       8.351  -0.485  -2.387  1.00  0.00     0.000 A 
ENDBRANCH   6   7
ENDBRANCH   1   6
TORSDOF 4
ENDMDL
MODEL 4
REMARK VINA RESULT:      -6.7      3.839      4.900
REMARK SMILES O=C(O)CCc1ccccc1
REMARK SMILES IDX 4 1 2 2 1 3 3 4 5 6 6 7 7 8 11 9 8 10 10 11 9 12
REMARK H PARENT 3 5
REMARK Flexibility Score: inf
ROOT
ATOM      1  C   UNL     1       5.491   2.866  -0.064  1.00  0.00     0.127 C 
ENDROOT
BRANCH   1   2
ATOM      2  C   UNL     1       6.265   3.850   0.738  1.00  0.00     0.303 C 
ATOM      3  O   UNL     1       6.960   4.770   0.238  1.00  0.00    -0.252 OA
BRANCH   2   4
ATOM      4  O   UNL     1       6.230   3.762   2.122  1.00  0.00    -0.481 OA
ATOM      5  H   UNL     1       6.590   2.895   2.525  1.00  0.00     0.296 HD
ENDBRANCH   2   4
ENDBRANCH   1   2
BRANCH   1   6
ATOM      6  C   UNL     1       4.911   1.825   0.847  1.00  0.00     0.047 C 
BRANCH   6   7
ATOM      7  C   UNL     1       5.675   0.581   0.907  1.00  0.00    -0.047 A 
ATOM      8  C   UNL     1       6.286   0.007  -0.181  1.00  0.00     0.004 A 
ATOM      9  C   UNL     1       5.798  -0.064   2.112  1.00  0.00     0.004 A 
ATOM     10  C   UNL     1       7.002  -1.165  -0.107  1.00  0.00     0.000 A 
ATOM     11  C   UNL     1       6.505  -1.239   2.222  1.00  0.00     0.000 A 
ATOM     12  C   UNL     1       7.120  -1.806   1.107  1.00  0.00     0.000 A 
ENDBRANCH   6   7
ENDBRANCH   1   6
TORSDOF 4
ENDMDL
MODEL 5
REMARK VINA RESULT:      -6.7      1.953      2.658
REMARK SMILES O=C(O)CCc1ccccc1
REMARK SMILES IDX 4 1 2 2 1 3 3 4 5 6 6 7 7 8 11 9 8 10 10 11 9 12
REMARK H PARENT 3 5
REMARK Flexibility Score: inf
ROOT
ATOM      1  C   UNL     1       8.285   0.292  -2.176  1.00  0.00     0.127 C 
ENDROOT
BRANCH   1   2
ATOM      2  C   UNL     1       9.396   0.345  -1.190  1.00  0.00     0.303 C 
ATOM      3  O   UNL     1       9.474  -0.401  -0.181  1.00  0.00    -0.252 OA
BRANCH   2   4
ATOM      4  O   UNL     1      10.416   1.265  -1.378  1.00  0.00    -0.481 OA
ATOM      5  H   UNL     1      10.327   2.145  -0.865  1.00  0.00     0.296 HD
ENDBRANCH   2   4
ENDBRANCH   1   2
BRANCH   1   6
ATOM      6  C   UNL     1       7.136  -0.477  -1.593  1.00  0.00     0.047 C 
BRANCH   6   7
ATOM      7  C   UNL     1       6.358   0.261  -0.600  1.00  0.00    -0.047 A 
ATOM      8  C   UNL     1       6.130  -0.186   0.678  1.00  0.00     0.004 A 
ATOM      9  C   UNL     1       5.816   1.473  -0.951  1.00  0.00     0.004 A 
ATOM     10  C   UNL     1       5.395   0.521   1.599  1.00  0.00     0.000 A 
ATOM     11  C   UNL     1       5.075   2.207  -0.054  1.00  0.00     0.000 A 
ATOM     12  C   UNL     1       4.854   1.737   1.240  1.00  0.00     0.000 A 
ENDBRANCH   6   7
ENDBRANCH   1   6
TORSDOF 4
ENDMDL
