@<TRIPOS>MOLECULE
/home/cewinharhar/GITHUB/reincatalyze/data/processed/docking_pred/2023-Apr-25-2140_maxeplen10_maxtrainstep200_exh16_gamma099_lrac3e-4_lrcr1e-3/287d700aa29cdd08db1558ad291e1b5912b75232_ligand_2.pdbqt
 12 12 0 0 0
SMALL
GASTEIGER

@<TRIPOS>ATOM
      1  C          5.0200    1.8230    0.6920 C.3     1  UNL1        0.1270
      2  C          4.5310    1.1100    1.9000 C.2     1  UNL1        0.3030
      3  O          5.1730    0.2010    2.4860 O.2     1  UNL1       -0.2520
      4  O          3.2950    1.4540    2.4270 O.3     1  UNL1       -0.4810
      5  H          3.1440    1.2110    3.4090 H       1  UNL1        0.2960
      6  C          6.5210    1.8250    0.6860 C.3     1  UNL1        0.0470
      7  C          7.1220    1.0190   -0.3730 C.2     1  UNL1       -0.0470
      8  C          6.4320    0.0890   -1.1110 C.2     1  UNL1        0.0040
      9  C          8.4540    1.1890   -0.6600 C.2     1  UNL1        0.0040
     10  C          7.0140   -0.6610   -2.1050 C.2     1  UNL1        0.0000
     11  C          9.0690    0.4540   -1.6480 C.2     1  UNL1        0.0000
     12  C          8.3510   -0.4850   -2.3870 C.2     1  UNL1        0.0000
@<TRIPOS>BOND
     1    12    10    2
     2    12    11    1
     3    10     8    1
     4    11     9    2
     5     8     7    2
     6     9     7    1
     7     7     6    1
     8     6     1    1
     9     1     2    1
    10     2     4    1
    11     2     3    2
    12     4     5    1
