@<TRIPOS>MOLECULE
/home/cewinharhar/GITHUB/reincatalyze/data/processed/docking_pred/2023-Apr-25-2140_maxeplen10_maxtrainstep200_exh16_gamma099_lrac3e-4_lrcr1e-3/2b606219d5526e18d91eeb9dfd7a568ae4147191_ligand_2.pdbqt
 12 12 0 0 0
SMALL
GASTEIGER

@<TRIPOS>ATOM
      1  C          5.0120    1.8240    0.6970 C.3     1  UNL1        0.1270
      2  C          4.5150    1.1120    1.9030 C.2     1  UNL1        0.3030
      3  O          5.1500    0.1980    2.4890 O.2     1  UNL1       -0.2520
      4  O          3.2810    1.4640    2.4290 O.3     1  UNL1       -0.4810
      5  H          3.3000    2.1010    3.2290 H       1  UNL1        0.2960
      6  C          6.5120    1.8250    0.7000 C.3     1  UNL1        0.0470
      7  C          7.1190    1.0320   -0.3660 C.2     1  UNL1       -0.0470
      8  C          6.4380    0.0940   -1.1020 C.2     1  UNL1        0.0040
      9  C          8.4460    1.2220   -0.6610 C.2     1  UNL1        0.0040
     10  C          7.0240   -0.6450   -2.1020 C.2     1  UNL1        0.0000
     11  C          9.0650    0.5000   -1.6550 C.2     1  UNL1        0.0000
     12  C          8.3570   -0.4480   -2.3920 C.2     1  UNL1        0.0000
@<TRIPOS>BOND
     1    12    10    2
     2    12    11    1
     3    10     8    1
     4    11     9    2
     5     8     7    2
     6     9     7    1
     7     7     6    1
     8     1     6    1
     9     1     2    1
    10     2     4    1
    11     2     3    2
    12     4     5    1
