@<TRIPOS>MOLECULE
/home/cewinharhar/GITHUB/reincatalyze/data/processed/docking_pred/2023-Apr-25-2140_maxeplen10_maxtrainstep200_exh16_gamma099_lrac3e-4_lrcr1e-3/2b606219d5526e18d91eeb9dfd7a568ae4147191_ligand_2.pdbqt
 12 12 0 0 0
SMALL
GASTEIGER

@<TRIPOS>ATOM
      1  C          8.2800    0.2420   -2.2400 C.3     1  UNL1        0.1270
      2  C          9.3850    0.3630   -1.2530 C.2     1  UNL1        0.3030
      3  O          9.4960   -0.3630   -0.2330 O.2     1  UNL1       -0.2520
      4  O         10.3610    1.3270   -1.4550 O.3     1  UNL1       -0.4810
      5  H         10.4100    2.0680   -0.7520 H       1  UNL1        0.2960
      6  C          7.1260   -0.4820   -1.6100 C.3     1  UNL1        0.0470
      7  C          6.3470    0.3230   -0.6730 C.2     1  UNL1       -0.0470
      8  C          5.7930    1.5400   -0.9870 C.2     1  UNL1        0.0040
      9  C          6.1490   -0.1490    0.6010 C.2     1  UNL1        0.0040
     10  C          5.0620    2.2850   -0.0920 C.2     1  UNL1        0.0000
     11  C          5.4240    0.5700    1.5230 C.2     1  UNL1        0.0000
     12  C          4.8680    1.8030    1.1850 C.2     1  UNL1        0.0000
@<TRIPOS>BOND
     1     1     6    1
     2     1     2    1
     3     6     7    1
     4     4     2    1
     5     4     5    1
     6     2     3    2
     7     8     7    2
     8     8    10    1
     9     7     9    1
    10    10    12    2
    11     9    11    2
    12    12    11    1
