MODEL 1
REMARK VINA RESULT:      -7.1      0.000      0.000
REMARK SMILES O=C(O)CCc1ccccc1
REMARK SMILES IDX 4 1 2 2 1 3 3 4 5 6 6 7 7 8 11 9 8 10 10 11 9 12
REMARK H PARENT 3 5
REMARK Flexibility Score: inf
ROOT
ATOM      1  C   UNL     1       8.476  -0.632  -2.132  1.00  0.00     0.127 C 
ENDROOT
BRANCH   1   2
ATOM      2  C   UNL     1       8.516  -1.908  -2.894  1.00  0.00     0.303 C 
ATOM      3  O   UNL     1       9.568  -2.559  -3.116  1.00  0.00    -0.252 OA
BRANCH   2   4
ATOM      4  O   UNL     1       7.332  -2.426  -3.396  1.00  0.00    -0.481 OA
ATOM      5  H   UNL     1       6.701  -2.848  -2.712  1.00  0.00     0.296 HD
ENDBRANCH   2   4
ENDBRANCH   1   2
BRANCH   1   6
ATOM      6  C   UNL     1       7.083  -0.076  -2.162  1.00  0.00     0.047 C 
BRANCH   6   7
ATOM      7  C   UNL     1       6.490   0.140  -0.844  1.00  0.00    -0.047 A 
ATOM      8  C   UNL     1       5.822   1.285  -0.485  1.00  0.00     0.004 A 
ATOM      9  C   UNL     1       6.599  -0.850   0.101  1.00  0.00     0.004 A 
ATOM     10  C   UNL     1       5.270   1.471   0.760  1.00  0.00     0.000 A 
ATOM     11  C   UNL     1       6.059  -0.696   1.357  1.00  0.00     0.000 A 
ATOM     12  C   UNL     1       5.384   0.473   1.703  1.00  0.00     0.000 A 
ENDBRANCH   6   7
ENDBRANCH   1   6
TORSDOF 4
ENDMDL
MODEL 2
REMARK VINA RESULT:      -7.1      0.052      1.426
REMARK SMILES O=C(O)CCc1ccccc1
REMARK SMILES IDX 4 1 2 2 1 3 3 4 5 6 6 7 7 8 11 9 8 10 10 11 9 12
REMARK H PARENT 3 5
REMARK Flexibility Score: inf
ROOT
ATOM      1  C   UNL     1       8.487  -0.618  -2.147  1.00  0.00     0.127 C 
ENDROOT
BRANCH   1   2
ATOM      2  C   UNL     1       8.525  -1.899  -2.900  1.00  0.00     0.303 C 
ATOM      3  O   UNL     1       9.578  -2.548  -3.126  1.00  0.00    -0.252 OA
BRANCH   2   4
ATOM      4  O   UNL     1       7.339  -2.426  -3.388  1.00  0.00    -0.481 OA
ATOM      5  H   UNL     1       7.428  -3.236  -4.006  1.00  0.00     0.296 HD
ENDBRANCH   2   4
ENDBRANCH   1   2
BRANCH   1   6
ATOM      6  C   UNL     1       7.084  -0.087  -2.137  1.00  0.00     0.047 C 
BRANCH   6   7
ATOM      7  C   UNL     1       6.507   0.069  -0.804  1.00  0.00    -0.047 A 
ATOM      8  C   UNL     1       6.582  -0.889   0.178  1.00  0.00     0.004 A 
ATOM      9  C   UNL     1       5.847   1.234  -0.499  1.00  0.00     0.004 A 
ATOM     10  C   UNL     1       6.033  -0.726   1.428  1.00  0.00     0.000 A 
ATOM     11  C   UNL     1       5.286   1.430   0.741  1.00  0.00     0.000 A 
ATOM     12  C   UNL     1       5.372   0.447   1.726  1.00  0.00     0.000 A 
ENDBRANCH   6   7
ENDBRANCH   1   6
TORSDOF 4
ENDMDL
MODEL 3
REMARK VINA RESULT:      -6.6      3.353      5.081
REMARK SMILES O=C(O)CCc1ccccc1
REMARK SMILES IDX 4 1 2 2 1 3 3 4 5 6 6 7 7 8 11 9 8 10 10 11 9 12
REMARK H PARENT 3 5
REMARK Flexibility Score: inf
ROOT
ATOM      1  C   UNL     1       5.012   1.824   0.697  1.00  0.00     0.127 C 
ENDROOT
BRANCH   1   2
ATOM      2  C   UNL     1       4.515   1.112   1.903  1.00  0.00     0.303 C 
ATOM      3  O   UNL     1       5.150   0.198   2.489  1.00  0.00    -0.252 OA
BRANCH   2   4
ATOM      4  O   UNL     1       3.281   1.464   2.429  1.00  0.00    -0.481 OA
ATOM      5  H   UNL     1       3.300   2.101   3.229  1.00  0.00     0.296 HD
ENDBRANCH   2   4
ENDBRANCH   1   2
BRANCH   1   6
ATOM      6  C   UNL     1       6.512   1.825   0.700  1.00  0.00     0.047 C 
BRANCH   6   7
ATOM      7  C   UNL     1       7.119   1.032  -0.366  1.00  0.00    -0.047 A 
ATOM      8  C   UNL     1       6.438   0.094  -1.102  1.00  0.00     0.004 A 
ATOM      9  C   UNL     1       8.446   1.222  -0.661  1.00  0.00     0.004 A 
ATOM     10  C   UNL     1       7.024  -0.645  -2.102  1.00  0.00     0.000 A 
ATOM     11  C   UNL     1       9.065   0.500  -1.655  1.00  0.00     0.000 A 
ATOM     12  C   UNL     1       8.357  -0.448  -2.392  1.00  0.00     0.000 A 
ENDBRANCH   6   7
ENDBRANCH   1   6
TORSDOF 4
ENDMDL
MODEL 4
REMARK VINA RESULT:      -6.5      2.426      3.531
REMARK SMILES O=C(O)CCc1ccccc1
REMARK SMILES IDX 4 1 2 2 1 3 3 4 5 6 6 7 7 8 11 9 8 10 10 11 9 12
REMARK H PARENT 3 5
REMARK Flexibility Score: inf
ROOT
ATOM      1  C   UNL     1       7.851  -1.347   2.444  1.00  0.00     0.127 C 
ENDROOT
BRANCH   1   2
ATOM      2  C   UNL     1       8.679  -2.327   1.696  1.00  0.00     0.303 C 
ATOM      3  O   UNL     1       9.926  -2.434   1.823  1.00  0.00    -0.252 OA
BRANCH   2   4
ATOM      4  O   UNL     1       8.059  -3.184   0.799  1.00  0.00    -0.481 OA
ATOM      5  H   UNL     1       8.647  -3.918   0.400  1.00  0.00     0.296 HD
ENDBRANCH   2   4
ENDBRANCH   1   2
BRANCH   1   6
ATOM      6  C   UNL     1       6.445  -1.379   1.921  1.00  0.00     0.047 C 
BRANCH   6   7
ATOM      7  C   UNL     1       6.086  -0.238   1.082  1.00  0.00    -0.047 A 
ATOM      8  C   UNL     1       6.476  -0.100  -0.227  1.00  0.00     0.004 A 
ATOM      9  C   UNL     1       5.316   0.763   1.619  1.00  0.00     0.004 A 
ATOM     10  C   UNL     1       6.130   0.980  -1.003  1.00  0.00     0.000 A 
ATOM     11  C   UNL     1       4.952   1.860   0.872  1.00  0.00     0.000 A 
ATOM     12  C   UNL     1       5.357   1.982  -0.457  1.00  0.00     0.000 A 
ENDBRANCH   6   7
ENDBRANCH   1   6
TORSDOF 4
ENDMDL
MODEL 5
REMARK VINA RESULT:      -6.4      1.935      2.280
REMARK SMILES O=C(O)CCc1ccccc1
REMARK SMILES IDX 4 1 2 2 1 3 3 4 5 6 6 7 7 8 11 9 8 10 10 11 9 12
REMARK H PARENT 3 5
REMARK Flexibility Score: inf
ROOT
ATOM      1  C   UNL     1       8.280   0.242  -2.240  1.00  0.00     0.127 C 
ENDROOT
BRANCH   1   2
ATOM      2  C   UNL     1       9.385   0.363  -1.253  1.00  0.00     0.303 C 
ATOM      3  O   UNL     1       9.496  -0.363  -0.233  1.00  0.00    -0.252 OA
BRANCH   2   4
ATOM      4  O   UNL     1      10.361   1.327  -1.455  1.00  0.00    -0.481 OA
ATOM      5  H   UNL     1      10.410   2.068  -0.752  1.00  0.00     0.296 HD
ENDBRANCH   2   4
ENDBRANCH   1   2
BRANCH   1   6
ATOM      6  C   UNL     1       7.126  -0.482  -1.610  1.00  0.00     0.047 C 
BRANCH   6   7
ATOM      7  C   UNL     1       6.347   0.323  -0.673  1.00  0.00    -0.047 A 
ATOM      8  C   UNL     1       5.793   1.540  -0.987  1.00  0.00     0.004 A 
ATOM      9  C   UNL     1       6.149  -0.149   0.601  1.00  0.00     0.004 A 
ATOM     10  C   UNL     1       5.062   2.285  -0.092  1.00  0.00     0.000 A 
ATOM     11  C   UNL     1       5.424   0.570   1.523  1.00  0.00     0.000 A 
ATOM     12  C   UNL     1       4.868   1.803   1.185  1.00  0.00     0.000 A 
ENDBRANCH   6   7
ENDBRANCH   1   6
TORSDOF 4
ENDMDL
