@<TRIPOS>MOLECULE
/home/cewinharhar/GITHUB/reincatalyze/data/processed/docking_pred/2023-Apr-25-2140_maxeplen10_maxtrainstep200_exh16_gamma099_lrac3e-4_lrcr1e-3/2b606219d5526e18d91eeb9dfd7a568ae4147191_ligand_2.pdbqt
 12 12 0 0 0
SMALL
GASTEIGER

@<TRIPOS>ATOM
      1  C          8.4760   -0.6320   -2.1320 C.3     1  UNL1        0.1270
      2  C          8.5160   -1.9080   -2.8940 C.2     1  UNL1        0.3030
      3  O          9.5680   -2.5590   -3.1160 O.2     1  UNL1       -0.2520
      4  O          7.3320   -2.4260   -3.3960 O.3     1  UNL1       -0.4810
      5  H          6.7010   -2.8480   -2.7120 H       1  UNL1        0.2960
      6  C          7.0830   -0.0760   -2.1620 C.3     1  UNL1        0.0470
      7  C          6.4900    0.1400   -0.8440 C.2     1  UNL1       -0.0470
      8  C          5.8220    1.2850   -0.4850 C.2     1  UNL1        0.0040
      9  C          6.5990   -0.8500    0.1010 C.2     1  UNL1        0.0040
     10  C          5.2700    1.4710    0.7600 C.2     1  UNL1        0.0000
     11  C          6.0590   -0.6960    1.3570 C.2     1  UNL1        0.0000
     12  C          5.3840    0.4730    1.7030 C.2     1  UNL1        0.0000
@<TRIPOS>BOND
     1     4     2    1
     2     4     5    1
     3     3     2    2
     4     2     1    1
     5     6     1    1
     6     6     7    1
     7     7     8    2
     8     7     9    1
     9     8    10    1
    10     9    11    2
    11    10    12    2
    12    11    12    1
