@<TRIPOS>MOLECULE
/home/cewinharhar/GITHUB/reincatalyze/data/processed/docking_pred/2023-Apr-25-2140_maxeplen10_maxtrainstep200_exh16_gamma099_lrac3e-4_lrcr1e-3/2b606219d5526e18d91eeb9dfd7a568ae4147191_ligand_2.pdbqt
 12 12 0 0 0
SMALL
GASTEIGER

@<TRIPOS>ATOM
      1  C          7.8510   -1.3470    2.4440 C.3     1  UNL1        0.1270
      2  C          8.6790   -2.3270    1.6960 C.2     1  UNL1        0.3030
      3  O          9.9260   -2.4340    1.8230 O.2     1  UNL1       -0.2520
      4  O          8.0590   -3.1840    0.7990 O.3     1  UNL1       -0.4810
      5  H          8.6470   -3.9180    0.4000 H       1  UNL1        0.2960
      6  C          6.4450   -1.3790    1.9210 C.3     1  UNL1        0.0470
      7  C          6.0860   -0.2380    1.0820 C.2     1  UNL1       -0.0470
      8  C          6.4760   -0.1000   -0.2270 C.2     1  UNL1        0.0040
      9  C          5.3160    0.7630    1.6190 C.2     1  UNL1        0.0040
     10  C          6.1300    0.9800   -1.0030 C.2     1  UNL1        0.0000
     11  C          4.9520    1.8600    0.8720 C.2     1  UNL1        0.0000
     12  C          5.3570    1.9820   -0.4570 C.2     1  UNL1        0.0000
@<TRIPOS>BOND
     1    10    12    2
     2    10     8    1
     3    12    11    1
     4     8     7    2
     5     5     4    1
     6     4     2    1
     7    11     9    2
     8     7     9    1
     9     7     6    1
    10     2     3    2
    11     2     1    1
    12     6     1    1
