@<TRIPOS>MOLECULE
/home/cewinharhar/GITHUB/reincatalyze/data/processed/docking_pred/2023-Apr-25-2140_maxeplen10_maxtrainstep200_exh16_gamma099_lrac3e-4_lrcr1e-3/2b611616233e02901686b2fc0a6dd8ec9c570ff2_ligand_2.pdbqt
 12 12 0 0 0
SMALL
GASTEIGER

@<TRIPOS>ATOM
      1  C          8.4960    0.6790   -1.6910 C.3     1  UNL1        0.1270
      2  C          9.6280    0.2800   -0.8160 C.2     1  UNL1        0.3030
      3  O          9.5180   -0.5060    0.1590 O.2     1  UNL1       -0.2520
      4  O         10.8900    0.7950   -1.0750 O.3     1  UNL1       -0.4810
      5  H         10.9440    1.4950   -1.8180 H       1  UNL1        0.2960
      6  C          7.3100   -0.1940   -1.4030 C.3     1  UNL1        0.0470
      7  C          6.4300    0.3090   -0.3510 C.2     1  UNL1       -0.0470
      8  C          6.1870   -0.3560    0.8250 C.2     1  UNL1        0.0040
      9  C          5.8020    1.5160   -0.5350 C.2     1  UNL1        0.0040
     10  C          5.3560    0.1330    1.8050 C.2     1  UNL1        0.0000
     11  C          4.9630    2.0340    0.4250 C.2     1  UNL1        0.0000
     12  C          4.7290    1.3450    1.6130 C.2     1  UNL1        0.0000
@<TRIPOS>BOND
     1     5     4    1
     2     1     6    1
     3     1     2    1
     4     6     7    1
     5     4     2    1
     6     2     3    2
     7     9     7    2
     8     9    11    1
     9     7     8    1
    10    11    12    2
    11     8    10    2
    12    12    10    1
