MODEL 1
REMARK VINA RESULT:      -7.4      0.000      0.000
REMARK SMILES O=C(O)CCc1ccccc1
REMARK SMILES IDX 4 1 2 2 1 3 3 4 5 6 6 7 7 8 11 9 8 10 10 11 9 12
REMARK H PARENT 3 5
REMARK Flexibility Score: inf
ROOT
ATOM      1  C   UNL     1       8.485  -0.596  -2.161  1.00  0.00     0.127 C 
ENDROOT
BRANCH   1   2
ATOM      2  C   UNL     1       8.539  -1.877  -2.911  1.00  0.00     0.303 C 
ATOM      3  O   UNL     1       9.599  -2.512  -3.140  1.00  0.00    -0.252 OA
BRANCH   2   4
ATOM      4  O   UNL     1       7.358  -2.421  -3.395  1.00  0.00    -0.481 OA
ATOM      5  H   UNL     1       7.456  -3.121  -4.133  1.00  0.00     0.296 HD
ENDBRANCH   2   4
ENDBRANCH   1   2
BRANCH   1   6
ATOM      6  C   UNL     1       7.072  -0.093  -2.130  1.00  0.00     0.047 C 
BRANCH   6   7
ATOM      7  C   UNL     1       6.511   0.051  -0.789  1.00  0.00    -0.047 A 
ATOM      8  C   UNL     1       6.610  -0.909   0.188  1.00  0.00     0.004 A 
ATOM      9  C   UNL     1       5.842   1.207  -0.471  1.00  0.00     0.004 A 
ATOM     10  C   UNL     1       6.075  -0.758   1.445  1.00  0.00     0.000 A 
ATOM     11  C   UNL     1       5.294   1.392   0.777  1.00  0.00     0.000 A 
ATOM     12  C   UNL     1       5.405   0.406   1.756  1.00  0.00     0.000 A 
ENDBRANCH   6   7
ENDBRANCH   1   6
TORSDOF 4
ENDMDL
MODEL 2
REMARK VINA RESULT:      -7.4      0.098      1.426
REMARK SMILES O=C(O)CCc1ccccc1
REMARK SMILES IDX 4 1 2 2 1 3 3 4 5 6 6 7 7 8 11 9 8 10 10 11 9 12
REMARK H PARENT 3 5
REMARK Flexibility Score: inf
ROOT
ATOM      1  C   UNL     1       8.450  -0.612  -2.155  1.00  0.00     0.127 C 
ENDROOT
BRANCH   1   2
ATOM      2  C   UNL     1       8.500  -1.892  -2.908  1.00  0.00     0.303 C 
ATOM      3  O   UNL     1       9.555  -2.545  -3.112  1.00  0.00    -0.252 OA
BRANCH   2   4
ATOM      4  O   UNL     1       7.323  -2.414  -3.423  1.00  0.00    -0.481 OA
ATOM      5  H   UNL     1       7.004  -2.012  -4.307  1.00  0.00     0.296 HD
ENDBRANCH   2   4
ENDBRANCH   1   2
BRANCH   1   6
ATOM      6  C   UNL     1       7.037  -0.108  -2.120  1.00  0.00     0.047 C 
BRANCH   6   7
ATOM      7  C   UNL     1       6.487   0.053  -0.776  1.00  0.00    -0.047 A 
ATOM      8  C   UNL     1       5.845   1.188  -0.345  1.00  0.00     0.004 A 
ATOM      9  C   UNL     1       6.611  -0.980   0.119  1.00  0.00     0.004 A 
ATOM     10  C   UNL     1       5.333   1.323   0.924  1.00  0.00     0.000 A 
ATOM     11  C   UNL     1       6.110  -0.879   1.397  1.00  0.00     0.000 A 
ATOM     12  C   UNL     1       5.461   0.281   1.817  1.00  0.00     0.000 A 
ENDBRANCH   6   7
ENDBRANCH   1   6
TORSDOF 4
ENDMDL
MODEL 3
REMARK VINA RESULT:      -6.8      3.333      5.045
REMARK SMILES O=C(O)CCc1ccccc1
REMARK SMILES IDX 4 1 2 2 1 3 3 4 5 6 6 7 7 8 11 9 8 10 10 11 9 12
REMARK H PARENT 3 5
REMARK Flexibility Score: inf
ROOT
ATOM      1  C   UNL     1       5.023   1.750   0.709  1.00  0.00     0.127 C 
ENDROOT
BRANCH   1   2
ATOM      2  C   UNL     1       4.592   1.023   1.931  1.00  0.00     0.303 C 
ATOM      3  O   UNL     1       5.283   0.142   2.503  1.00  0.00    -0.252 OA
BRANCH   2   4
ATOM      4  O   UNL     1       3.358   1.322   2.488  1.00  0.00    -0.481 OA
ATOM      5  H   UNL     1       3.014   0.665   3.193  1.00  0.00     0.296 HD
ENDBRANCH   2   4
ENDBRANCH   1   2
BRANCH   1   6
ATOM      6  C   UNL     1       6.522   1.818   0.670  1.00  0.00     0.047 C 
BRANCH   6   7
ATOM      7  C   UNL     1       7.136   1.016  -0.387  1.00  0.00    -0.047 A 
ATOM      8  C   UNL     1       6.457   0.079  -1.127  1.00  0.00     0.004 A 
ATOM      9  C   UNL     1       8.467   1.199  -0.667  1.00  0.00     0.004 A 
ATOM     10  C   UNL     1       7.051  -0.666  -2.118  1.00  0.00     0.000 A 
ATOM     11  C   UNL     1       9.093   0.469  -1.652  1.00  0.00     0.000 A 
ATOM     12  C   UNL     1       8.388  -0.477  -2.393  1.00  0.00     0.000 A 
ENDBRANCH   6   7
ENDBRANCH   1   6
TORSDOF 4
ENDMDL
MODEL 4
REMARK VINA RESULT:      -6.6      3.834      4.984
REMARK SMILES O=C(O)CCc1ccccc1
REMARK SMILES IDX 4 1 2 2 1 3 3 4 5 6 6 7 7 8 11 9 8 10 10 11 9 12
REMARK H PARENT 3 5
REMARK Flexibility Score: inf
ROOT
ATOM      1  C   UNL     1       5.623   3.018  -0.040  1.00  0.00     0.127 C 
ENDROOT
BRANCH   1   2
ATOM      2  C   UNL     1       6.405   3.937   0.827  1.00  0.00     0.303 C 
ATOM      3  O   UNL     1       7.236   4.774   0.391  1.00  0.00    -0.252 OA
BRANCH   2   4
ATOM      4  O   UNL     1       6.221   3.883   2.200  1.00  0.00    -0.481 OA
ATOM      5  H   UNL     1       6.450   2.993   2.649  1.00  0.00     0.296 HD
ENDBRANCH   2   4
ENDBRANCH   1   2
BRANCH   1   6
ATOM      6  C   UNL     1       4.999   1.946   0.804  1.00  0.00     0.047 C 
BRANCH   6   7
ATOM      7  C   UNL     1       5.760   0.700   0.858  1.00  0.00    -0.047 A 
ATOM      8  C   UNL     1       6.461   0.187  -0.205  1.00  0.00     0.004 A 
ATOM      9  C   UNL     1       5.784  -0.012   2.032  1.00  0.00     0.004 A 
ATOM     10  C   UNL     1       7.172  -0.988  -0.138  1.00  0.00     0.000 A 
ATOM     11  C   UNL     1       6.485  -1.191   2.134  1.00  0.00     0.000 A 
ATOM     12  C   UNL     1       7.192  -1.696   1.044  1.00  0.00     0.000 A 
ENDBRANCH   6   7
ENDBRANCH   1   6
TORSDOF 4
ENDMDL
MODEL 5
REMARK VINA RESULT:      -6.6      2.077      2.345
REMARK SMILES O=C(O)CCc1ccccc1
REMARK SMILES IDX 4 1 2 2 1 3 3 4 5 6 6 7 7 8 11 9 8 10 10 11 9 12
REMARK H PARENT 3 5
REMARK Flexibility Score: inf
ROOT
ATOM      1  C   UNL     1       8.496   0.679  -1.691  1.00  0.00     0.127 C 
ENDROOT
BRANCH   1   2
ATOM      2  C   UNL     1       9.628   0.280  -0.816  1.00  0.00     0.303 C 
ATOM      3  O   UNL     1       9.518  -0.506   0.159  1.00  0.00    -0.252 OA
BRANCH   2   4
ATOM      4  O   UNL     1      10.890   0.795  -1.075  1.00  0.00    -0.481 OA
ATOM      5  H   UNL     1      10.944   1.495  -1.818  1.00  0.00     0.296 HD
ENDBRANCH   2   4
ENDBRANCH   1   2
BRANCH   1   6
ATOM      6  C   UNL     1       7.310  -0.194  -1.403  1.00  0.00     0.047 C 
BRANCH   6   7
ATOM      7  C   UNL     1       6.430   0.309  -0.351  1.00  0.00    -0.047 A 
ATOM      8  C   UNL     1       6.187  -0.356   0.825  1.00  0.00     0.004 A 
ATOM      9  C   UNL     1       5.802   1.516  -0.535  1.00  0.00     0.004 A 
ATOM     10  C   UNL     1       5.356   0.133   1.805  1.00  0.00     0.000 A 
ATOM     11  C   UNL     1       4.963   2.034   0.425  1.00  0.00     0.000 A 
ATOM     12  C   UNL     1       4.729   1.345   1.613  1.00  0.00     0.000 A 
ENDBRANCH   6   7
ENDBRANCH   1   6
TORSDOF 4
ENDMDL
