@<TRIPOS>MOLECULE
/home/cewinharhar/GITHUB/reincatalyze/data/processed/docking_pred/2023-Apr-25-2140_maxeplen10_maxtrainstep200_exh16_gamma099_lrac3e-4_lrcr1e-3/2b611616233e02901686b2fc0a6dd8ec9c570ff2_ligand_2.pdbqt
 12 12 0 0 0
SMALL
GASTEIGER

@<TRIPOS>ATOM
      1  C          5.6230    3.0180   -0.0400 C.3     1  UNL1        0.1270
      2  C          6.4050    3.9370    0.8270 C.2     1  UNL1        0.3030
      3  O          7.2360    4.7740    0.3910 O.2     1  UNL1       -0.2520
      4  O          6.2210    3.8830    2.2000 O.3     1  UNL1       -0.4810
      5  H          6.4500    2.9930    2.6490 H       1  UNL1        0.2960
      6  C          4.9990    1.9460    0.8040 C.3     1  UNL1        0.0470
      7  C          5.7600    0.7000    0.8580 C.2     1  UNL1       -0.0470
      8  C          6.4610    0.1870   -0.2050 C.2     1  UNL1        0.0040
      9  C          5.7840   -0.0120    2.0320 C.2     1  UNL1        0.0040
     10  C          7.1720   -0.9880   -0.1380 C.2     1  UNL1        0.0000
     11  C          6.4850   -1.1910    2.1340 C.2     1  UNL1        0.0000
     12  C          7.1920   -1.6960    1.0440 C.2     1  UNL1        0.0000
@<TRIPOS>BOND
     1     8    10    1
     2     8     7    2
     3    10    12    2
     4     1     6    1
     5     1     2    1
     6     3     2    2
     7     6     7    1
     8     2     4    1
     9     7     9    1
    10    12    11    1
    11     9    11    2
    12     4     5    1
