@<TRIPOS>MOLECULE
/home/cewinharhar/GITHUB/reincatalyze/data/processed/docking_pred/2023-Apr-25-2140_maxeplen10_maxtrainstep200_exh16_gamma099_lrac3e-4_lrcr1e-3/2b611616233e02901686b2fc0a6dd8ec9c570ff2_ligand_2.pdbqt
 12 12 0 0 0
SMALL
GASTEIGER

@<TRIPOS>ATOM
      1  C          8.4850   -0.5960   -2.1610 C.3     1  UNL1        0.1270
      2  C          8.5390   -1.8770   -2.9110 C.2     1  UNL1        0.3030
      3  O          9.5990   -2.5120   -3.1400 O.2     1  UNL1       -0.2520
      4  O          7.3580   -2.4210   -3.3950 O.3     1  UNL1       -0.4810
      5  H          7.4560   -3.1210   -4.1330 H       1  UNL1        0.2960
      6  C          7.0720   -0.0930   -2.1300 C.3     1  UNL1        0.0470
      7  C          6.5110    0.0510   -0.7890 C.2     1  UNL1       -0.0470
      8  C          6.6100   -0.9090    0.1880 C.2     1  UNL1        0.0040
      9  C          5.8420    1.2070   -0.4710 C.2     1  UNL1        0.0040
     10  C          6.0750   -0.7580    1.4450 C.2     1  UNL1        0.0000
     11  C          5.2940    1.3920    0.7770 C.2     1  UNL1        0.0000
     12  C          5.4050    0.4060    1.7560 C.2     1  UNL1        0.0000
@<TRIPOS>BOND
     1     5     4    1
     2     4     2    1
     3     3     2    2
     4     2     1    1
     5     1     6    1
     6     6     7    1
     7     7     9    2
     8     7     8    1
     9     9    11    1
    10     8    10    2
    11    11    12    2
    12    10    12    1
