@<TRIPOS>MOLECULE
/home/cewinharhar/GITHUB/reincatalyze/data/processed/docking_pred/2023-Apr-25-2140_maxeplen10_maxtrainstep200_exh16_gamma099_lrac3e-4_lrcr1e-3/2b611616233e02901686b2fc0a6dd8ec9c570ff2_ligand_2.pdbqt
 12 12 0 0 0
SMALL
GASTEIGER

@<TRIPOS>ATOM
      1  C          5.0230    1.7500    0.7090 C.3     1  UNL1        0.1270
      2  C          4.5920    1.0230    1.9310 C.2     1  UNL1        0.3030
      3  O          5.2830    0.1420    2.5030 O.2     1  UNL1       -0.2520
      4  O          3.3580    1.3220    2.4880 O.3     1  UNL1       -0.4810
      5  H          3.0140    0.6650    3.1930 H       1  UNL1        0.2960
      6  C          6.5220    1.8180    0.6700 C.3     1  UNL1        0.0470
      7  C          7.1360    1.0160   -0.3870 C.2     1  UNL1       -0.0470
      8  C          6.4570    0.0790   -1.1270 C.2     1  UNL1        0.0040
      9  C          8.4670    1.1990   -0.6670 C.2     1  UNL1        0.0040
     10  C          7.0510   -0.6660   -2.1180 C.2     1  UNL1        0.0000
     11  C          9.0930    0.4690   -1.6520 C.2     1  UNL1        0.0000
     12  C          8.3880   -0.4770   -2.3930 C.2     1  UNL1        0.0000
@<TRIPOS>BOND
     1    12    10    2
     2    12    11    1
     3    10     8    1
     4    11     9    2
     5     8     7    2
     6     9     7    1
     7     7     6    1
     8     6     1    1
     9     1     2    1
    10     2     4    1
    11     2     3    2
    12     4     5    1
