@<TRIPOS>MOLECULE
/home/cewinharhar/GITHUB/reincatalyze/data/processed/docking_pred/2023-Apr-25-2140_maxeplen10_maxtrainstep200_exh16_gamma099_lrac3e-4_lrcr1e-3/2cf69de7cf34ef354308742c6722c88054a527ce_ligand_2.pdbqt
 12 12 0 0 0
SMALL
GASTEIGER

@<TRIPOS>ATOM
      1  C          8.4510   -0.5420   -2.2100 C.3     1  UNL1        0.1270
      2  C          8.5200   -1.8540   -2.9040 C.2     1  UNL1        0.3030
      3  O          9.5840   -2.5010   -3.0770 O.2     1  UNL1       -0.2520
      4  O          7.3510   -2.4140   -3.3970 O.3     1  UNL1       -0.4810
      5  H          7.3150   -2.5600   -4.4090 H       1  UNL1        0.2960
      6  C          7.0250   -0.0800   -2.1560 C.3     1  UNL1        0.0470
      7  C          6.4860    0.0630   -0.8050 C.2     1  UNL1       -0.0470
      8  C          6.5930   -0.9020    0.1660 C.2     1  UNL1        0.0040
      9  C          5.8320    1.2230   -0.4720 C.2     1  UNL1        0.0040
     10  C          6.0810   -0.7510    1.4320 C.2     1  UNL1        0.0000
     11  C          5.3060    1.4080    0.7850 C.2     1  UNL1        0.0000
     12  C          5.4250    0.4170    1.7590 C.2     1  UNL1        0.0000
@<TRIPOS>BOND
     1     5     4    1
     2     4     2    1
     3     3     2    2
     4     2     1    1
     5     1     6    1
     6     6     7    1
     7     7     9    2
     8     7     8    1
     9     9    11    1
    10     8    10    2
    11    11    12    2
    12    10    12    1
