@<TRIPOS>MOLECULE
/home/cewinharhar/GITHUB/reincatalyze/data/processed/docking_pred/2023-Apr-25-2140_maxeplen10_maxtrainstep200_exh16_gamma099_lrac3e-4_lrcr1e-3/2cf69de7cf34ef354308742c6722c88054a527ce_ligand_2.pdbqt
 12 12 0 0 0
SMALL
GASTEIGER

@<TRIPOS>ATOM
      1  C          5.6350    3.0010   -0.0500 C.3     1  UNL1        0.1270
      2  C          6.3780    3.9540    0.8150 C.2     1  UNL1        0.3030
      3  O          7.2290    4.7740    0.3850 O.2     1  UNL1       -0.2520
      4  O          6.1320    3.9550    2.1790 O.3     1  UNL1       -0.4810
      5  H          5.4550    4.6450    2.5120 H       1  UNL1        0.2960
      6  C          4.9990    1.9440    0.8050 C.3     1  UNL1        0.0470
      7  C          5.7550    0.6960    0.8840 C.2     1  UNL1       -0.0470
      8  C          6.4530    0.1570   -0.1680 C.2     1  UNL1        0.0040
      9  C          5.7790    0.0100    2.0730 C.2     1  UNL1        0.0040
     10  C          7.1590   -1.0190   -0.0760 C.2     1  UNL1        0.0000
     11  C          6.4740   -1.1700    2.2010 C.2     1  UNL1        0.0000
     12  C          7.1780   -1.7010    1.1210 C.2     1  UNL1        0.0000
@<TRIPOS>BOND
     1     8    10    1
     2     8     7    2
     3    10    12    2
     4     1     6    1
     5     1     2    1
     6     3     2    2
     7     6     7    1
     8     2     4    1
     9     7     9    1
    10    12    11    1
    11     9    11    2
    12     4     5    1
