MODEL 1
REMARK VINA RESULT:      -7.4      0.000      0.000
REMARK SMILES O=C(O)CCc1ccccc1
REMARK SMILES IDX 4 1 2 2 1 3 3 4 5 6 6 7 7 8 11 9 8 10 10 11 9 12
REMARK H PARENT 3 5
REMARK Flexibility Score: inf
ROOT
ATOM      1  C   UNL     1       8.451  -0.542  -2.210  1.00  0.00     0.127 C 
ENDROOT
BRANCH   1   2
ATOM      2  C   UNL     1       8.520  -1.854  -2.904  1.00  0.00     0.303 C 
ATOM      3  O   UNL     1       9.584  -2.501  -3.077  1.00  0.00    -0.252 OA
BRANCH   2   4
ATOM      4  O   UNL     1       7.351  -2.414  -3.397  1.00  0.00    -0.481 OA
ATOM      5  H   UNL     1       7.315  -2.560  -4.409  1.00  0.00     0.296 HD
ENDBRANCH   2   4
ENDBRANCH   1   2
BRANCH   1   6
ATOM      6  C   UNL     1       7.025  -0.080  -2.156  1.00  0.00     0.047 C 
BRANCH   6   7
ATOM      7  C   UNL     1       6.486   0.063  -0.805  1.00  0.00    -0.047 A 
ATOM      8  C   UNL     1       6.593  -0.902   0.166  1.00  0.00     0.004 A 
ATOM      9  C   UNL     1       5.832   1.223  -0.472  1.00  0.00     0.004 A 
ATOM     10  C   UNL     1       6.081  -0.751   1.432  1.00  0.00     0.000 A 
ATOM     11  C   UNL     1       5.306   1.408   0.785  1.00  0.00     0.000 A 
ATOM     12  C   UNL     1       5.425   0.417   1.759  1.00  0.00     0.000 A 
ENDBRANCH   6   7
ENDBRANCH   1   6
TORSDOF 4
ENDMDL
MODEL 2
REMARK VINA RESULT:      -7.3      0.070      1.426
REMARK SMILES O=C(O)CCc1ccccc1
REMARK SMILES IDX 4 1 2 2 1 3 3 4 5 6 6 7 7 8 11 9 8 10 10 11 9 12
REMARK H PARENT 3 5
REMARK Flexibility Score: inf
ROOT
ATOM      1  C   UNL     1       8.437  -0.562  -2.223  1.00  0.00     0.127 C 
ENDROOT
BRANCH   1   2
ATOM      2  C   UNL     1       8.519  -1.868  -2.927  1.00  0.00     0.303 C 
ATOM      3  O   UNL     1       9.591  -2.497  -3.115  1.00  0.00    -0.252 OA
BRANCH   2   4
ATOM      4  O   UNL     1       7.354  -2.443  -3.411  1.00  0.00    -0.481 OA
ATOM      5  H   UNL     1       6.903  -3.126  -2.798  1.00  0.00     0.296 HD
ENDBRANCH   2   4
ENDBRANCH   1   2
BRANCH   1   6
ATOM      6  C   UNL     1       7.007  -0.109  -2.175  1.00  0.00     0.047 C 
BRANCH   6   7
ATOM      7  C   UNL     1       6.476   0.072  -0.827  1.00  0.00    -0.047 A 
ATOM      8  C   UNL     1       5.837   1.212  -0.403  1.00  0.00     0.004 A 
ATOM      9  C   UNL     1       6.615  -0.947   0.082  1.00  0.00     0.004 A 
ATOM     10  C   UNL     1       5.343   1.365   0.870  1.00  0.00     0.000 A 
ATOM     11  C   UNL     1       6.133  -0.827   1.365  1.00  0.00     0.000 A 
ATOM     12  C   UNL     1       5.487   0.337   1.777  1.00  0.00     0.000 A 
ENDBRANCH   6   7
ENDBRANCH   1   6
TORSDOF 4
ENDMDL
MODEL 3
REMARK VINA RESULT:      -6.8      3.358      5.055
REMARK SMILES O=C(O)CCc1ccccc1
REMARK SMILES IDX 4 1 2 2 1 3 3 4 5 6 6 7 7 8 11 9 8 10 10 11 9 12
REMARK H PARENT 3 5
REMARK Flexibility Score: inf
ROOT
ATOM      1  C   UNL     1       5.006   1.827   0.704  1.00  0.00     0.127 C 
ENDROOT
BRANCH   1   2
ATOM      2  C   UNL     1       4.510   1.108   1.906  1.00  0.00     0.303 C 
ATOM      3  O   UNL     1       5.142   0.187   2.482  1.00  0.00    -0.252 OA
BRANCH   2   4
ATOM      4  O   UNL     1       3.278   1.460   2.437  1.00  0.00    -0.481 OA
ATOM      5  H   UNL     1       2.568   0.724   2.450  1.00  0.00     0.296 HD
ENDBRANCH   2   4
ENDBRANCH   1   2
BRANCH   1   6
ATOM      6  C   UNL     1       6.507   1.827   0.706  1.00  0.00     0.047 C 
BRANCH   6   7
ATOM      7  C   UNL     1       7.112   1.030  -0.359  1.00  0.00    -0.047 A 
ATOM      8  C   UNL     1       6.432   0.086  -1.087  1.00  0.00     0.004 A 
ATOM      9  C   UNL     1       8.437   1.226  -0.661  1.00  0.00     0.004 A 
ATOM     10  C   UNL     1       7.017  -0.655  -2.086  1.00  0.00     0.000 A 
ATOM     11  C   UNL     1       9.055   0.501  -1.654  1.00  0.00     0.000 A 
ATOM     12  C   UNL     1       8.348  -0.453  -2.383  1.00  0.00     0.000 A 
ENDBRANCH   6   7
ENDBRANCH   1   6
TORSDOF 4
ENDMDL
MODEL 4
REMARK VINA RESULT:      -6.7      1.910      2.265
REMARK SMILES O=C(O)CCc1ccccc1
REMARK SMILES IDX 4 1 2 2 1 3 3 4 5 6 6 7 7 8 11 9 8 10 10 11 9 12
REMARK H PARENT 3 5
REMARK Flexibility Score: inf
ROOT
ATOM      1  C   UNL     1       8.254   0.267  -2.239  1.00  0.00     0.127 C 
ENDROOT
BRANCH   1   2
ATOM      2  C   UNL     1       9.362   0.347  -1.252  1.00  0.00     0.303 C 
ATOM      3  O   UNL     1       9.459  -0.398  -0.244  1.00  0.00    -0.252 OA
BRANCH   2   4
ATOM      4  O   UNL     1      10.358   1.294  -1.438  1.00  0.00    -0.481 OA
ATOM      5  H   UNL     1      10.215   1.950  -2.209  1.00  0.00     0.296 HD
ENDBRANCH   2   4
ENDBRANCH   1   2
BRANCH   1   6
ATOM      6  C   UNL     1       7.100  -0.478  -1.635  1.00  0.00     0.047 C 
BRANCH   6   7
ATOM      7  C   UNL     1       6.339   0.284  -0.647  1.00  0.00    -0.047 A 
ATOM      8  C   UNL     1       6.105  -0.148   0.635  1.00  0.00     0.004 A 
ATOM      9  C   UNL     1       5.822   1.503  -1.007  1.00  0.00     0.004 A 
ATOM     10  C   UNL     1       5.387   0.582   1.552  1.00  0.00     0.000 A 
ATOM     11  C   UNL     1       5.097   2.260  -0.115  1.00  0.00     0.000 A 
ATOM     12  C   UNL     1       4.870   1.806   1.183  1.00  0.00     0.000 A 
ENDBRANCH   6   7
ENDBRANCH   1   6
TORSDOF 4
ENDMDL
MODEL 5
REMARK VINA RESULT:      -6.6      3.836      4.976
REMARK SMILES O=C(O)CCc1ccccc1
REMARK SMILES IDX 4 1 2 2 1 3 3 4 5 6 6 7 7 8 11 9 8 10 10 11 9 12
REMARK H PARENT 3 5
REMARK Flexibility Score: inf
ROOT
ATOM      1  C   UNL     1       5.635   3.001  -0.050  1.00  0.00     0.127 C 
ENDROOT
BRANCH   1   2
ATOM      2  C   UNL     1       6.378   3.954   0.815  1.00  0.00     0.303 C 
ATOM      3  O   UNL     1       7.229   4.774   0.385  1.00  0.00    -0.252 OA
BRANCH   2   4
ATOM      4  O   UNL     1       6.132   3.955   2.179  1.00  0.00    -0.481 OA
ATOM      5  H   UNL     1       5.455   4.645   2.512  1.00  0.00     0.296 HD
ENDBRANCH   2   4
ENDBRANCH   1   2
BRANCH   1   6
ATOM      6  C   UNL     1       4.999   1.944   0.805  1.00  0.00     0.047 C 
BRANCH   6   7
ATOM      7  C   UNL     1       5.755   0.696   0.884  1.00  0.00    -0.047 A 
ATOM      8  C   UNL     1       6.453   0.157  -0.168  1.00  0.00     0.004 A 
ATOM      9  C   UNL     1       5.779   0.010   2.073  1.00  0.00     0.004 A 
ATOM     10  C   UNL     1       7.159  -1.019  -0.076  1.00  0.00     0.000 A 
ATOM     11  C   UNL     1       6.474  -1.170   2.201  1.00  0.00     0.000 A 
ATOM     12  C   UNL     1       7.178  -1.701   1.121  1.00  0.00     0.000 A 
ENDBRANCH   6   7
ENDBRANCH   1   6
TORSDOF 4
ENDMDL
