@<TRIPOS>MOLECULE
/home/cewinharhar/GITHUB/reincatalyze/data/processed/docking_pred/2023-Apr-25-2140_maxeplen10_maxtrainstep200_exh16_gamma099_lrac3e-4_lrcr1e-3/2cf69de7cf34ef354308742c6722c88054a527ce_ligand_2.pdbqt
 12 12 0 0 0
SMALL
GASTEIGER

@<TRIPOS>ATOM
      1  C          8.4370   -0.5620   -2.2230 C.3     1  UNL1        0.1270
      2  C          8.5190   -1.8680   -2.9270 C.2     1  UNL1        0.3030
      3  O          9.5910   -2.4970   -3.1150 O.2     1  UNL1       -0.2520
      4  O          7.3540   -2.4430   -3.4110 O.3     1  UNL1       -0.4810
      5  H          6.9030   -3.1260   -2.7980 H       1  UNL1        0.2960
      6  C          7.0070   -0.1090   -2.1750 C.3     1  UNL1        0.0470
      7  C          6.4760    0.0720   -0.8270 C.2     1  UNL1       -0.0470
      8  C          5.8370    1.2120   -0.4030 C.2     1  UNL1        0.0040
      9  C          6.6150   -0.9470    0.0820 C.2     1  UNL1        0.0040
     10  C          5.3430    1.3650    0.8700 C.2     1  UNL1        0.0000
     11  C          6.1330   -0.8270    1.3650 C.2     1  UNL1        0.0000
     12  C          5.4870    0.3370    1.7770 C.2     1  UNL1        0.0000
@<TRIPOS>BOND
     1     4     2    1
     2     4     5    1
     3     3     2    2
     4     2     1    1
     5     1     6    1
     6     6     7    1
     7     7     8    2
     8     7     9    1
     9     8    10    1
    10     9    11    2
    11    10    12    2
    12    11    12    1
