@<TRIPOS>MOLECULE
/home/cewinharhar/GITHUB/reincatalyze/data/processed/docking_pred/2023-Apr-25-2140_maxeplen10_maxtrainstep200_exh16_gamma099_lrac3e-4_lrcr1e-3/2cf69de7cf34ef354308742c6722c88054a527ce_ligand_2.pdbqt
 12 12 0 0 0
SMALL
GASTEIGER

@<TRIPOS>ATOM
      1  C          8.2540    0.2670   -2.2390 C.3     1  UNL1        0.1270
      2  C          9.3620    0.3470   -1.2520 C.2     1  UNL1        0.3030
      3  O          9.4590   -0.3980   -0.2440 O.2     1  UNL1       -0.2520
      4  O         10.3580    1.2940   -1.4380 O.3     1  UNL1       -0.4810
      5  H         10.2150    1.9500   -2.2090 H       1  UNL1        0.2960
      6  C          7.1000   -0.4780   -1.6350 C.3     1  UNL1        0.0470
      7  C          6.3390    0.2840   -0.6470 C.2     1  UNL1       -0.0470
      8  C          6.1050   -0.1480    0.6350 C.2     1  UNL1        0.0040
      9  C          5.8220    1.5030   -1.0070 C.2     1  UNL1        0.0040
     10  C          5.3870    0.5820    1.5520 C.2     1  UNL1        0.0000
     11  C          5.0970    2.2600   -0.1150 C.2     1  UNL1        0.0000
     12  C          4.8700    1.8060    1.1830 C.2     1  UNL1        0.0000
@<TRIPOS>BOND
     1     1     6    1
     2     1     2    1
     3     5     4    1
     4     6     7    1
     5     4     2    1
     6     2     3    2
     7     9     7    2
     8     9    11    1
     9     7     8    1
    10    11    12    2
    11     8    10    2
    12    12    10    1
