@<TRIPOS>MOLECULE
/home/cewinharhar/GITHUB/reincatalyze/data/processed/docking_pred/2023-Apr-25-2140_maxeplen10_maxtrainstep200_exh16_gamma099_lrac3e-4_lrcr1e-3/2f41e52dfc6618f39d2325611a45b0a1c53476a0_ligand_2.pdbqt
 12 12 0 0 0
SMALL
GASTEIGER

@<TRIPOS>ATOM
      1  C          5.4290    2.8600    0.0870 C.3     1  UNL1        0.1270
      2  C          6.2180    3.8180    0.9050 C.2     1  UNL1        0.3030
      3  O          6.2360    3.8190    2.1620 O.2     1  UNL1       -0.2520
      4  O          6.9870    4.7750    0.2600 O.3     1  UNL1       -0.4810
      5  H          7.8720    5.0170    0.7110 H       1  UNL1        0.2960
      6  C          4.8970    1.7700    0.9710 C.3     1  UNL1        0.0470
      7  C          5.7180    0.5620    1.0000 C.2     1  UNL1       -0.0470
      8  C          5.7740   -0.2980    2.0700 C.2     1  UNL1        0.0040
      9  C          6.4840    0.2540   -0.0970 C.2     1  UNL1        0.0040
     10  C          6.5520   -1.4310    2.0810 C.2     1  UNL1        0.0000
     11  C          7.2750   -0.8710   -0.1200 C.2     1  UNL1        0.0000
     12  C          7.3190   -1.7320    0.9750 C.2     1  UNL1        0.0000
@<TRIPOS>BOND
     1    11     9    1
     2    11    12    2
     3     9     7    2
     4     1     2    1
     5     1     6    1
     6     4     5    1
     7     4     2    1
     8     2     3    2
     9     6     7    1
    10    12    10    1
    11     7     8    1
    12     8    10    2
