@<TRIPOS>MOLECULE
/home/cewinharhar/GITHUB/reincatalyze/data/processed/docking_pred/2023-Apr-25-2140_maxeplen10_maxtrainstep200_exh16_gamma099_lrac3e-4_lrcr1e-3/2f41e52dfc6618f39d2325611a45b0a1c53476a0_ligand_2.pdbqt
 12 12 0 0 0
SMALL
GASTEIGER

@<TRIPOS>ATOM
      1  C          8.4310   -0.5730   -2.2060 C.3     1  UNL1        0.1270
      2  C          8.5070   -1.8810   -2.9070 C.2     1  UNL1        0.3030
      3  O          9.5760   -2.5160   -3.0940 O.2     1  UNL1       -0.2520
      4  O          7.3390   -2.4510   -3.3920 O.3     1  UNL1       -0.4810
      5  H          7.3960   -3.4380   -3.6520 H       1  UNL1        0.2960
      6  C          7.0050   -0.1090   -2.1680 C.3     1  UNL1        0.0470
      7  C          6.4670    0.0800   -0.8230 C.2     1  UNL1       -0.0470
      8  C          5.8310    1.2250   -0.4080 C.2     1  UNL1        0.0040
      9  C          6.5980   -0.9350    0.0910 C.2     1  UNL1        0.0040
     10  C          5.3310    1.3860    0.8630 C.2     1  UNL1        0.0000
     11  C          6.1090   -0.8080    1.3710 C.2     1  UNL1        0.0000
     12  C          5.4660    0.3610    1.7750 C.2     1  UNL1        0.0000
@<TRIPOS>BOND
     1     5     4    1
     2     4     2    1
     3     3     2    2
     4     2     1    1
     5     1     6    1
     6     6     7    1
     7     7     8    2
     8     7     9    1
     9     8    10    1
    10     9    11    2
    11    10    12    2
    12    11    12    1
