@<TRIPOS>MOLECULE
/home/cewinharhar/GITHUB/reincatalyze/data/processed/docking_pred/2023-Apr-25-2140_maxeplen10_maxtrainstep200_exh16_gamma099_lrac3e-4_lrcr1e-3/2f41e52dfc6618f39d2325611a45b0a1c53476a0_ligand_2.pdbqt
 12 12 0 0 0
SMALL
GASTEIGER

@<TRIPOS>ATOM
      1  C          5.0260    1.8210    0.7240 C.3     1  UNL1        0.1270
      2  C          4.5090    1.1030    1.9180 C.2     1  UNL1        0.3030
      3  O          5.1270    0.1750    2.5000 O.2     1  UNL1       -0.2520
      4  O          3.2750    1.4640    2.4360 O.3     1  UNL1       -0.4810
      5  H          2.9070    2.3670    2.1290 H       1  UNL1        0.2960
      6  C          6.5260    1.7910    0.7340 C.3     1  UNL1        0.0470
      7  C          7.1220    1.0080   -0.3470 C.2     1  UNL1       -0.0470
      8  C          6.4390    0.0620   -1.0700 C.2     1  UNL1        0.0040
      9  C          8.4400    1.2180   -0.6680 C.2     1  UNL1        0.0040
     10  C          7.0150   -0.6660   -2.0840 C.2     1  UNL1        0.0000
     11  C          9.0480    0.5070   -1.6760 C.2     1  UNL1        0.0000
     12  C          8.3380   -0.4500   -2.4010 C.2     1  UNL1        0.0000
@<TRIPOS>BOND
     1    12    10    2
     2    12    11    1
     3    10     8    1
     4    11     9    2
     5     8     7    2
     6     9     7    1
     7     7     6    1
     8     1     6    1
     9     1     2    1
    10     2     4    1
    11     2     3    2
    12     5     4    1
