@<TRIPOS>MOLECULE
/home/cewinharhar/GITHUB/reincatalyze/data/processed/docking_pred/2023-Apr-25-2140_maxeplen10_maxtrainstep200_exh16_gamma099_lrac3e-4_lrcr1e-3/2f41e52dfc6618f39d2325611a45b0a1c53476a0_ligand_2.pdbqt
 12 12 0 0 0
SMALL
GASTEIGER

@<TRIPOS>ATOM
      1  C          8.2710    0.2180   -2.2020 C.3     1  UNL1        0.1270
      2  C          9.3760    0.3560   -1.2170 C.2     1  UNL1        0.3030
      3  O          9.5030   -0.3710   -0.1990 O.2     1  UNL1       -0.2520
      4  O         10.3330    1.3390   -1.4170 O.3     1  UNL1       -0.4810
      5  H         11.2980    1.0130   -1.5110 H       1  UNL1        0.2960
      6  C          7.1380   -0.5430   -1.5780 C.3     1  UNL1        0.0470
      7  C          6.3710    0.2160   -0.5930 C.2     1  UNL1       -0.0470
      8  C          6.1470   -0.2080    0.6940 C.2     1  UNL1        0.0040
      9  C          5.8340    1.4250   -0.9610 C.2     1  UNL1        0.0040
     10  C          5.4220    0.5200    1.6070 C.2     1  UNL1        0.0000
     11  C          5.1020    2.1790   -0.0730 C.2     1  UNL1        0.0000
     12  C          4.8860    1.7320    1.2300 C.2     1  UNL1        0.0000
@<TRIPOS>BOND
     1     1     6    1
     2     1     2    1
     3     6     7    1
     4     5     4    1
     5     4     2    1
     6     2     3    2
     7     9     7    2
     8     9    11    1
     9     7     8    1
    10    11    12    2
    11     8    10    2
    12    12    10    1
