MODEL 1
REMARK VINA RESULT:      -7.4      0.000      0.000
REMARK SMILES O=C(O)CCc1ccccc1
REMARK SMILES IDX 4 1 2 2 1 3 3 4 5 6 6 7 7 8 11 9 8 10 10 11 9 12
REMARK H PARENT 3 5
REMARK Flexibility Score: inf
ROOT
ATOM      1  C   UNL     1       8.431  -0.573  -2.206  1.00  0.00     0.127 C 
ENDROOT
BRANCH   1   2
ATOM      2  C   UNL     1       8.507  -1.881  -2.907  1.00  0.00     0.303 C 
ATOM      3  O   UNL     1       9.576  -2.516  -3.094  1.00  0.00    -0.252 OA
BRANCH   2   4
ATOM      4  O   UNL     1       7.339  -2.451  -3.392  1.00  0.00    -0.481 OA
ATOM      5  H   UNL     1       7.396  -3.438  -3.652  1.00  0.00     0.296 HD
ENDBRANCH   2   4
ENDBRANCH   1   2
BRANCH   1   6
ATOM      6  C   UNL     1       7.005  -0.109  -2.168  1.00  0.00     0.047 C 
BRANCH   6   7
ATOM      7  C   UNL     1       6.467   0.080  -0.823  1.00  0.00    -0.047 A 
ATOM      8  C   UNL     1       5.831   1.225  -0.408  1.00  0.00     0.004 A 
ATOM      9  C   UNL     1       6.598  -0.935   0.091  1.00  0.00     0.004 A 
ATOM     10  C   UNL     1       5.331   1.386   0.863  1.00  0.00     0.000 A 
ATOM     11  C   UNL     1       6.109  -0.808   1.371  1.00  0.00     0.000 A 
ATOM     12  C   UNL     1       5.466   0.361   1.775  1.00  0.00     0.000 A 
ENDBRANCH   6   7
ENDBRANCH   1   6
TORSDOF 4
ENDMDL
MODEL 2
REMARK VINA RESULT:      -7.4      0.054      1.425
REMARK SMILES O=C(O)CCc1ccccc1
REMARK SMILES IDX 4 1 2 2 1 3 3 4 5 6 6 7 7 8 11 9 8 10 10 11 9 12
REMARK H PARENT 3 5
REMARK Flexibility Score: inf
ROOT
ATOM      1  C   UNL     1       8.439  -0.555  -2.230  1.00  0.00     0.127 C 
ENDROOT
BRANCH   1   2
ATOM      2  C   UNL     1       8.506  -1.876  -2.908  1.00  0.00     0.303 C 
ATOM      3  O   UNL     1       9.567  -2.532  -3.064  1.00  0.00    -0.252 OA
BRANCH   2   4
ATOM      4  O   UNL     1       7.337  -2.435  -3.403  1.00  0.00    -0.481 OA
ATOM      5  H   UNL     1       7.281  -2.527  -4.420  1.00  0.00     0.296 HD
ENDBRANCH   2   4
ENDBRANCH   1   2
BRANCH   1   6
ATOM      6  C   UNL     1       7.011  -0.101  -2.161  1.00  0.00     0.047 C 
BRANCH   6   7
ATOM      7  C   UNL     1       6.491   0.052  -0.804  1.00  0.00    -0.047 A 
ATOM      8  C   UNL     1       6.583  -0.918   0.164  1.00  0.00     0.004 A 
ATOM      9  C   UNL     1       5.873   1.229  -0.460  1.00  0.00     0.004 A 
ATOM     10  C   UNL     1       6.088  -0.758   1.436  1.00  0.00     0.000 A 
ATOM     11  C   UNL     1       5.365   1.423   0.804  1.00  0.00     0.000 A 
ATOM     12  C   UNL     1       5.468   0.426   1.773  1.00  0.00     0.000 A 
ENDBRANCH   6   7
ENDBRANCH   1   6
TORSDOF 4
ENDMDL
MODEL 3
REMARK VINA RESULT:      -6.8      3.367      5.085
REMARK SMILES O=C(O)CCc1ccccc1
REMARK SMILES IDX 4 1 2 2 1 3 3 4 5 6 6 7 7 8 11 9 8 10 10 11 9 12
REMARK H PARENT 3 5
REMARK Flexibility Score: inf
ROOT
ATOM      1  C   UNL     1       5.026   1.821   0.724  1.00  0.00     0.127 C 
ENDROOT
BRANCH   1   2
ATOM      2  C   UNL     1       4.509   1.103   1.918  1.00  0.00     0.303 C 
ATOM      3  O   UNL     1       5.127   0.175   2.500  1.00  0.00    -0.252 OA
BRANCH   2   4
ATOM      4  O   UNL     1       3.275   1.464   2.436  1.00  0.00    -0.481 OA
ATOM      5  H   UNL     1       2.907   2.367   2.129  1.00  0.00     0.296 HD
ENDBRANCH   2   4
ENDBRANCH   1   2
BRANCH   1   6
ATOM      6  C   UNL     1       6.526   1.791   0.734  1.00  0.00     0.047 C 
BRANCH   6   7
ATOM      7  C   UNL     1       7.122   1.008  -0.347  1.00  0.00    -0.047 A 
ATOM      8  C   UNL     1       6.439   0.062  -1.070  1.00  0.00     0.004 A 
ATOM      9  C   UNL     1       8.440   1.218  -0.668  1.00  0.00     0.004 A 
ATOM     10  C   UNL     1       7.015  -0.666  -2.084  1.00  0.00     0.000 A 
ATOM     11  C   UNL     1       9.048   0.507  -1.676  1.00  0.00     0.000 A 
ATOM     12  C   UNL     1       8.338  -0.450  -2.401  1.00  0.00     0.000 A 
ENDBRANCH   6   7
ENDBRANCH   1   6
TORSDOF 4
ENDMDL
MODEL 4
REMARK VINA RESULT:      -6.7      1.935      2.639
REMARK SMILES O=C(O)CCc1ccccc1
REMARK SMILES IDX 4 1 2 2 1 3 3 4 5 6 6 7 7 8 11 9 8 10 10 11 9 12
REMARK H PARENT 3 5
REMARK Flexibility Score: inf
ROOT
ATOM      1  C   UNL     1       8.271   0.218  -2.202  1.00  0.00     0.127 C 
ENDROOT
BRANCH   1   2
ATOM      2  C   UNL     1       9.376   0.356  -1.217  1.00  0.00     0.303 C 
ATOM      3  O   UNL     1       9.503  -0.371  -0.199  1.00  0.00    -0.252 OA
BRANCH   2   4
ATOM      4  O   UNL     1      10.333   1.339  -1.417  1.00  0.00    -0.481 OA
ATOM      5  H   UNL     1      11.298   1.013  -1.511  1.00  0.00     0.296 HD
ENDBRANCH   2   4
ENDBRANCH   1   2
BRANCH   1   6
ATOM      6  C   UNL     1       7.138  -0.543  -1.578  1.00  0.00     0.047 C 
BRANCH   6   7
ATOM      7  C   UNL     1       6.371   0.216  -0.593  1.00  0.00    -0.047 A 
ATOM      8  C   UNL     1       6.147  -0.208   0.694  1.00  0.00     0.004 A 
ATOM      9  C   UNL     1       5.834   1.425  -0.961  1.00  0.00     0.004 A 
ATOM     10  C   UNL     1       5.422   0.520   1.607  1.00  0.00     0.000 A 
ATOM     11  C   UNL     1       5.102   2.179  -0.073  1.00  0.00     0.000 A 
ATOM     12  C   UNL     1       4.886   1.732   1.230  1.00  0.00     0.000 A 
ENDBRANCH   6   7
ENDBRANCH   1   6
TORSDOF 4
ENDMDL
MODEL 5
REMARK VINA RESULT:      -6.6      3.837      5.024
REMARK SMILES O=C(O)CCc1ccccc1
REMARK SMILES IDX 4 1 2 2 1 3 3 4 5 6 6 7 7 8 11 9 8 10 10 11 9 12
REMARK H PARENT 3 5
REMARK Flexibility Score: inf
ROOT
ATOM      1  C   UNL     1       5.429   2.860   0.087  1.00  0.00     0.127 C 
ENDROOT
BRANCH   1   2
ATOM      2  C   UNL     1       6.218   3.818   0.905  1.00  0.00     0.303 C 
ATOM      3  O   UNL     1       6.236   3.819   2.162  1.00  0.00    -0.252 OA
BRANCH   2   4
ATOM      4  O   UNL     1       6.987   4.775   0.260  1.00  0.00    -0.481 OA
ATOM      5  H   UNL     1       7.872   5.017   0.711  1.00  0.00     0.296 HD
ENDBRANCH   2   4
ENDBRANCH   1   2
BRANCH   1   6
ATOM      6  C   UNL     1       4.897   1.770   0.971  1.00  0.00     0.047 C 
BRANCH   6   7
ATOM      7  C   UNL     1       5.718   0.562   1.000  1.00  0.00    -0.047 A 
ATOM      8  C   UNL     1       5.774  -0.298   2.070  1.00  0.00     0.004 A 
ATOM      9  C   UNL     1       6.484   0.254  -0.097  1.00  0.00     0.004 A 
ATOM     10  C   UNL     1       6.552  -1.431   2.081  1.00  0.00     0.000 A 
ATOM     11  C   UNL     1       7.275  -0.871  -0.120  1.00  0.00     0.000 A 
ATOM     12  C   UNL     1       7.319  -1.732   0.975  1.00  0.00     0.000 A 
ENDBRANCH   6   7
ENDBRANCH   1   6
TORSDOF 4
ENDMDL
