@<TRIPOS>MOLECULE
/home/cewinharhar/GITHUB/reincatalyze/data/processed/docking_pred/2023-Apr-25-2140_maxeplen10_maxtrainstep200_exh16_gamma099_lrac3e-4_lrcr1e-3/2f41e52dfc6618f39d2325611a45b0a1c53476a0_ligand_2.pdbqt
 12 12 0 0 0
SMALL
GASTEIGER

@<TRIPOS>ATOM
      1  C          8.4390   -0.5550   -2.2300 C.3     1  UNL1        0.1270
      2  C          8.5060   -1.8760   -2.9080 C.2     1  UNL1        0.3030
      3  O          9.5670   -2.5320   -3.0640 O.2     1  UNL1       -0.2520
      4  O          7.3370   -2.4350   -3.4030 O.3     1  UNL1       -0.4810
      5  H          7.2810   -2.5270   -4.4200 H       1  UNL1        0.2960
      6  C          7.0110   -0.1010   -2.1610 C.3     1  UNL1        0.0470
      7  C          6.4910    0.0520   -0.8040 C.2     1  UNL1       -0.0470
      8  C          6.5830   -0.9180    0.1640 C.2     1  UNL1        0.0040
      9  C          5.8730    1.2290   -0.4600 C.2     1  UNL1        0.0040
     10  C          6.0880   -0.7580    1.4360 C.2     1  UNL1        0.0000
     11  C          5.3650    1.4230    0.8040 C.2     1  UNL1        0.0000
     12  C          5.4680    0.4260    1.7730 C.2     1  UNL1        0.0000
@<TRIPOS>BOND
     1     5     4    1
     2     4     2    1
     3     3     2    2
     4     2     1    1
     5     1     6    1
     6     6     7    1
     7     7     9    2
     8     7     8    1
     9     9    11    1
    10     8    10    2
    11    11    12    2
    12    10    12    1
