@<TRIPOS>MOLECULE
/home/cewinharhar/GITHUB/reincatalyze/data/processed/docking_pred/2023-Apr-25-2140_maxeplen10_maxtrainstep200_exh16_gamma099_lrac3e-4_lrcr1e-3/306d1dfeb5e1085b4f3e24b09348dc81ae645662_ligand_2.pdbqt
 12 12 0 0 0
SMALL
GASTEIGER

@<TRIPOS>ATOM
      1  C          8.5050    0.6400   -1.7030 C.3     1  UNL1        0.1270
      2  C          9.6280    0.2620   -0.8070 C.2     1  UNL1        0.3030
      3  O          9.5080   -0.5000    0.1850 O.2     1  UNL1       -0.2520
      4  O         10.8930    0.7690   -1.0670 O.3     1  UNL1       -0.4810
      5  H         10.9540    1.4550   -1.8220 H       1  UNL1        0.2960
      6  C          7.3160   -0.2260   -1.4060 C.3     1  UNL1        0.0470
      7  C          6.4370    0.2930   -0.3610 C.2     1  UNL1       -0.0470
      8  C          6.1810   -0.3630    0.8180 C.2     1  UNL1        0.0040
      9  C          5.8230    1.5060   -0.5540 C.2     1  UNL1        0.0040
     10  C          5.3510    0.1400    1.7910 C.2     1  UNL1        0.0000
     11  C          4.9850    2.0390    0.3990 C.2     1  UNL1        0.0000
     12  C          4.7380    1.3580    1.5900 C.2     1  UNL1        0.0000
@<TRIPOS>BOND
     1     5     4    1
     2     1     6    1
     3     1     2    1
     4     6     7    1
     5     4     2    1
     6     2     3    2
     7     9     7    2
     8     9    11    1
     9     7     8    1
    10    11    12    2
    11     8    10    2
    12    12    10    1
