MODEL 1
REMARK VINA RESULT:      -7.3      0.000      0.000
REMARK SMILES O=C(O)CCc1ccccc1
REMARK SMILES IDX 4 1 2 2 1 3 3 4 5 6 6 7 7 8 11 9 8 10 10 11 9 12
REMARK H PARENT 3 5
REMARK Flexibility Score: inf
ROOT
ATOM      1  C   UNL     1       8.442  -0.579  -2.178  1.00  0.00     0.127 C 
ENDROOT
BRANCH   1   2
ATOM      2  C   UNL     1       8.523  -1.872  -2.907  1.00  0.00     0.303 C 
ATOM      3  O   UNL     1       9.592  -2.506  -3.094  1.00  0.00    -0.252 OA
BRANCH   2   4
ATOM      4  O   UNL     1       7.360  -2.427  -3.419  1.00  0.00    -0.481 OA
ATOM      5  H   UNL     1       7.482  -3.223  -4.049  1.00  0.00     0.296 HD
ENDBRANCH   2   4
ENDBRANCH   1   2
BRANCH   1   6
ATOM      6  C   UNL     1       7.015  -0.119  -2.134  1.00  0.00     0.047 C 
BRANCH   6   7
ATOM      7  C   UNL     1       6.477   0.052  -0.786  1.00  0.00    -0.047 A 
ATOM      8  C   UNL     1       5.839   1.189  -0.357  1.00  0.00     0.004 A 
ATOM      9  C   UNL     1       6.612  -0.975   0.116  1.00  0.00     0.004 A 
ATOM     10  C   UNL     1       5.339   1.333   0.916  1.00  0.00     0.000 A 
ATOM     11  C   UNL     1       6.124  -0.864   1.397  1.00  0.00     0.000 A 
ATOM     12  C   UNL     1       5.478   0.298   1.815  1.00  0.00     0.000 A 
ENDBRANCH   6   7
ENDBRANCH   1   6
TORSDOF 4
ENDMDL
MODEL 2
REMARK VINA RESULT:      -7.3      0.072      1.427
REMARK SMILES O=C(O)CCc1ccccc1
REMARK SMILES IDX 4 1 2 2 1 3 3 4 5 6 6 7 7 8 11 9 8 10 10 11 9 12
REMARK H PARENT 3 5
REMARK Flexibility Score: inf
ROOT
ATOM      1  C   UNL     1       8.441  -0.530  -2.298  1.00  0.00     0.127 C 
ENDROOT
BRANCH   1   2
ATOM      2  C   UNL     1       8.518  -1.874  -2.927  1.00  0.00     0.303 C 
ATOM      3  O   UNL     1       9.585  -2.525  -3.061  1.00  0.00    -0.252 OA
BRANCH   2   4
ATOM      4  O   UNL     1       7.354  -2.461  -3.399  1.00  0.00    -0.481 OA
ATOM      5  H   UNL     1       7.392  -3.472  -3.552  1.00  0.00     0.296 HD
ENDBRANCH   2   4
ENDBRANCH   1   2
BRANCH   1   6
ATOM      6  C   UNL     1       7.004  -0.111  -2.190  1.00  0.00     0.047 C 
BRANCH   6   7
ATOM      7  C   UNL     1       6.511   0.007  -0.819  1.00  0.00    -0.047 A 
ATOM      8  C   UNL     1       6.607  -0.994   0.116  1.00  0.00     0.004 A 
ATOM      9  C   UNL     1       5.913   1.179  -0.429  1.00  0.00     0.004 A 
ATOM     10  C   UNL     1       6.138  -0.866   1.402  1.00  0.00     0.000 A 
ATOM     11  C   UNL     1       5.431   1.342   0.849  1.00  0.00     0.000 A 
ATOM     12  C   UNL     1       5.539   0.315   1.786  1.00  0.00     0.000 A 
ENDBRANCH   6   7
ENDBRANCH   1   6
TORSDOF 4
ENDMDL
MODEL 3
REMARK VINA RESULT:      -6.7      3.352      5.043
REMARK SMILES O=C(O)CCc1ccccc1
REMARK SMILES IDX 4 1 2 2 1 3 3 4 5 6 6 7 7 8 11 9 8 10 10 11 9 12
REMARK H PARENT 3 5
REMARK Flexibility Score: inf
ROOT
ATOM      1  C   UNL     1       5.016   1.771   0.687  1.00  0.00     0.127 C 
ENDROOT
BRANCH   1   2
ATOM      2  C   UNL     1       4.604   1.046   1.917  1.00  0.00     0.303 C 
ATOM      3  O   UNL     1       5.309   0.176   2.489  1.00  0.00    -0.252 OA
BRANCH   2   4
ATOM      4  O   UNL     1       3.371   1.333   2.483  1.00  0.00    -0.481 OA
ATOM      5  H   UNL     1       2.595   0.732   2.198  1.00  0.00     0.296 HD
ENDBRANCH   2   4
ENDBRANCH   1   2
BRANCH   1   6
ATOM      6  C   UNL     1       6.510   1.904   0.664  1.00  0.00     0.047 C 
BRANCH   6   7
ATOM      7  C   UNL     1       7.171   1.116  -0.374  1.00  0.00    -0.047 A 
ATOM      8  C   UNL     1       8.515   1.183  -0.646  1.00  0.00     0.004 A 
ATOM      9  C   UNL     1       6.417   0.253  -1.131  1.00  0.00     0.004 A 
ATOM     10  C   UNL     1       9.121   0.434  -1.626  1.00  0.00     0.000 A 
ATOM     11  C   UNL     1       6.990  -0.511  -2.121  1.00  0.00     0.000 A 
ATOM     12  C   UNL     1       8.357  -0.430  -2.381  1.00  0.00     0.000 A 
ENDBRANCH   6   7
ENDBRANCH   1   6
TORSDOF 4
ENDMDL
MODEL 4
REMARK VINA RESULT:      -6.5      2.083      2.723
REMARK SMILES O=C(O)CCc1ccccc1
REMARK SMILES IDX 4 1 2 2 1 3 3 4 5 6 6 7 7 8 11 9 8 10 10 11 9 12
REMARK H PARENT 3 5
REMARK Flexibility Score: inf
ROOT
ATOM      1  C   UNL     1       8.505   0.640  -1.703  1.00  0.00     0.127 C 
ENDROOT
BRANCH   1   2
ATOM      2  C   UNL     1       9.628   0.262  -0.807  1.00  0.00     0.303 C 
ATOM      3  O   UNL     1       9.508  -0.500   0.185  1.00  0.00    -0.252 OA
BRANCH   2   4
ATOM      4  O   UNL     1      10.893   0.769  -1.067  1.00  0.00    -0.481 OA
ATOM      5  H   UNL     1      10.954   1.455  -1.822  1.00  0.00     0.296 HD
ENDBRANCH   2   4
ENDBRANCH   1   2
BRANCH   1   6
ATOM      6  C   UNL     1       7.316  -0.226  -1.406  1.00  0.00     0.047 C 
BRANCH   6   7
ATOM      7  C   UNL     1       6.437   0.293  -0.361  1.00  0.00    -0.047 A 
ATOM      8  C   UNL     1       6.181  -0.363   0.818  1.00  0.00     0.004 A 
ATOM      9  C   UNL     1       5.823   1.506  -0.554  1.00  0.00     0.004 A 
ATOM     10  C   UNL     1       5.351   0.140   1.791  1.00  0.00     0.000 A 
ATOM     11  C   UNL     1       4.985   2.039   0.399  1.00  0.00     0.000 A 
ATOM     12  C   UNL     1       4.738   1.358   1.590  1.00  0.00     0.000 A 
ENDBRANCH   6   7
ENDBRANCH   1   6
TORSDOF 4
ENDMDL
MODEL 5
REMARK VINA RESULT:      -6.4      3.624      4.755
REMARK SMILES O=C(O)CCc1ccccc1
REMARK SMILES IDX 4 1 2 2 1 3 3 4 5 6 6 7 7 8 11 9 8 10 10 11 9 12
REMARK H PARENT 3 5
REMARK Flexibility Score: inf
ROOT
ATOM      1  C   UNL     1       4.980   2.827   0.392  1.00  0.00     0.127 C 
ENDROOT
BRANCH   1   2
ATOM      2  C   UNL     1       6.094   3.689   0.866  1.00  0.00     0.303 C 
ATOM      3  O   UNL     1       6.930   4.237   0.104  1.00  0.00    -0.252 OA
BRANCH   2   4
ATOM      4  O   UNL     1       6.235   3.913   2.228  1.00  0.00    -0.481 OA
ATOM      5  H   UNL     1       7.092   3.553   2.655  1.00  0.00     0.296 HD
ENDBRANCH   2   4
ENDBRANCH   1   2
BRANCH   1   6
ATOM      6  C   UNL     1       5.530   1.731  -0.473  1.00  0.00     0.047 C 
BRANCH   6   7
ATOM      7  C   UNL     1       5.986   0.554   0.261  1.00  0.00    -0.047 A 
ATOM      8  C   UNL     1       5.649   0.289   1.566  1.00  0.00     0.004 A 
ATOM      9  C   UNL     1       6.800  -0.350  -0.376  1.00  0.00     0.004 A 
ATOM     10  C   UNL     1       6.088  -0.824   2.242  1.00  0.00     0.000 A 
ATOM     11  C   UNL     1       7.258  -1.474   0.271  1.00  0.00     0.000 A 
ATOM     12  C   UNL     1       6.905  -1.727   1.596  1.00  0.00     0.000 A 
ENDBRANCH   6   7
ENDBRANCH   1   6
TORSDOF 4
ENDMDL
