@<TRIPOS>MOLECULE
/home/cewinharhar/GITHUB/reincatalyze/data/processed/docking_pred/2023-Apr-25-2140_maxeplen10_maxtrainstep200_exh16_gamma099_lrac3e-4_lrcr1e-3/306d1dfeb5e1085b4f3e24b09348dc81ae645662_ligand_2.pdbqt
 12 12 0 0 0
SMALL
GASTEIGER

@<TRIPOS>ATOM
      1  C          5.0160    1.7710    0.6870 C.3     1  UNL1        0.1270
      2  C          4.6040    1.0460    1.9170 C.2     1  UNL1        0.3030
      3  O          5.3090    0.1760    2.4890 O.2     1  UNL1       -0.2520
      4  O          3.3710    1.3330    2.4830 O.3     1  UNL1       -0.4810
      5  H          2.5950    0.7320    2.1980 H       1  UNL1        0.2960
      6  C          6.5100    1.9040    0.6640 C.3     1  UNL1        0.0470
      7  C          7.1710    1.1160   -0.3740 C.2     1  UNL1       -0.0470
      8  C          8.5150    1.1830   -0.6460 C.2     1  UNL1        0.0040
      9  C          6.4170    0.2530   -1.1310 C.2     1  UNL1        0.0040
     10  C          9.1210    0.4340   -1.6260 C.2     1  UNL1        0.0000
     11  C          6.9900   -0.5110   -2.1210 C.2     1  UNL1        0.0000
     12  C          8.3570   -0.4300   -2.3810 C.2     1  UNL1        0.0000
@<TRIPOS>BOND
     1    12    11    2
     2    12    10    1
     3    11     9    1
     4    10     8    2
     5     9     7    2
     6     8     7    1
     7     7     6    1
     8     6     1    1
     9     1     2    1
    10     2     4    1
    11     2     3    2
    12     5     4    1
