@<TRIPOS>MOLECULE
/home/cewinharhar/GITHUB/reincatalyze/data/processed/docking_pred/2023-Apr-25-2140_maxeplen10_maxtrainstep200_exh16_gamma099_lrac3e-4_lrcr1e-3/306d1dfeb5e1085b4f3e24b09348dc81ae645662_ligand_2.pdbqt
 12 12 0 0 0
SMALL
GASTEIGER

@<TRIPOS>ATOM
      1  C          8.4420   -0.5790   -2.1780 C.3     1  UNL1        0.1270
      2  C          8.5230   -1.8720   -2.9070 C.2     1  UNL1        0.3030
      3  O          9.5920   -2.5060   -3.0940 O.2     1  UNL1       -0.2520
      4  O          7.3600   -2.4270   -3.4190 O.3     1  UNL1       -0.4810
      5  H          7.4820   -3.2230   -4.0490 H       1  UNL1        0.2960
      6  C          7.0150   -0.1190   -2.1340 C.3     1  UNL1        0.0470
      7  C          6.4770    0.0520   -0.7860 C.2     1  UNL1       -0.0470
      8  C          5.8390    1.1890   -0.3570 C.2     1  UNL1        0.0040
      9  C          6.6120   -0.9750    0.1160 C.2     1  UNL1        0.0040
     10  C          5.3390    1.3330    0.9160 C.2     1  UNL1        0.0000
     11  C          6.1240   -0.8640    1.3970 C.2     1  UNL1        0.0000
     12  C          5.4780    0.2980    1.8150 C.2     1  UNL1        0.0000
@<TRIPOS>BOND
     1     5     4    1
     2     4     2    1
     3     3     2    2
     4     2     1    1
     5     1     6    1
     6     6     7    1
     7     7     8    2
     8     7     9    1
     9     8    10    1
    10     9    11    2
    11    10    12    2
    12    11    12    1
