@<TRIPOS>MOLECULE
/home/cewinharhar/GITHUB/reincatalyze/data/processed/docking_pred/2023-Apr-25-2140_maxeplen10_maxtrainstep200_exh16_gamma099_lrac3e-4_lrcr1e-3/306d1dfeb5e1085b4f3e24b09348dc81ae645662_ligand_2.pdbqt
 12 12 0 0 0
SMALL
GASTEIGER

@<TRIPOS>ATOM
      1  C          4.9800    2.8270    0.3920 C.3     1  UNL1        0.1270
      2  C          6.0940    3.6890    0.8660 C.2     1  UNL1        0.3030
      3  O          6.9300    4.2370    0.1040 O.2     1  UNL1       -0.2520
      4  O          6.2350    3.9130    2.2280 O.3     1  UNL1       -0.4810
      5  H          7.0920    3.5530    2.6550 H       1  UNL1        0.2960
      6  C          5.5300    1.7310   -0.4730 C.3     1  UNL1        0.0470
      7  C          5.9860    0.5540    0.2610 C.2     1  UNL1       -0.0470
      8  C          5.6490    0.2890    1.5660 C.2     1  UNL1        0.0040
      9  C          6.8000   -0.3500   -0.3760 C.2     1  UNL1        0.0040
     10  C          6.0880   -0.8240    2.2420 C.2     1  UNL1        0.0000
     11  C          7.2580   -1.4740    0.2710 C.2     1  UNL1        0.0000
     12  C          6.9050   -1.7270    1.5960 C.2     1  UNL1        0.0000
@<TRIPOS>BOND
     1     6     7    1
     2     6     1    1
     3     9     7    2
     4     9    11    1
     5     3     2    2
     6     7     8    1
     7    11    12    2
     8     1     2    1
     9     2     4    1
    10     8    10    2
    11    12    10    1
    12     4     5    1
