@<TRIPOS>MOLECULE
/home/cewinharhar/GITHUB/reincatalyze/data/processed/docking_pred/2023-Apr-25-2140_maxeplen10_maxtrainstep200_exh16_gamma099_lrac3e-4_lrcr1e-3/3110d36e974f17e9d190d2a4a051583463654b40_ligand_2.pdbqt
 12 12 0 0 0
SMALL
GASTEIGER

@<TRIPOS>ATOM
      1  C          5.3720    2.8300    0.0770 C.3     1  UNL1        0.1270
      2  C          6.2000    3.7510    0.8990 C.2     1  UNL1        0.3030
      3  O          6.3160    3.6630    2.1480 O.2     1  UNL1       -0.2520
      4  O          6.8910    4.7740    0.2690 O.3     1  UNL1       -0.4810
      5  H          7.8330    4.9620    0.6210 H       1  UNL1        0.2960
      6  C          5.2640    1.5030    0.7690 C.3     1  UNL1        0.0470
      7  C          6.0670    0.4410    0.1670 C.2     1  UNL1       -0.0470
      8  C          6.5670   -0.6290    0.8670 C.2     1  UNL1        0.0040
      9  C          6.3450    0.5020   -1.1760 C.2     1  UNL1        0.0040
     10  C          7.3200   -1.6200    0.2840 C.2     1  UNL1        0.0000
     11  C          7.0970   -0.4730   -1.7920 C.2     1  UNL1        0.0000
     12  C          7.5960   -1.5520   -1.0640 C.2     1  UNL1        0.0000
@<TRIPOS>BOND
     1    11     9    1
     2    11    12    2
     3     9     7    2
     4    12    10    1
     5     1     6    1
     6     1     2    1
     7     7     6    1
     8     7     8    1
     9     4     5    1
    10     4     2    1
    11    10     8    2
    12     2     3    2
