@<TRIPOS>MOLECULE
/home/cewinharhar/GITHUB/reincatalyze/data/processed/docking_pred/2023-Apr-25-2140_maxeplen10_maxtrainstep200_exh16_gamma099_lrac3e-4_lrcr1e-3/3110d36e974f17e9d190d2a4a051583463654b40_ligand_2.pdbqt
 12 12 0 0 0
SMALL
GASTEIGER

@<TRIPOS>ATOM
      1  C          8.4390   -0.5640   -2.2110 C.3     1  UNL1        0.1270
      2  C          8.5040   -1.8670   -2.9220 C.2     1  UNL1        0.3030
      3  O          9.5670   -2.5150   -3.1030 O.2     1  UNL1       -0.2520
      4  O          7.3340   -2.4180   -3.4220 O.3     1  UNL1       -0.4810
      5  H          7.4410   -3.0520   -4.2170 H       1  UNL1        0.2960
      6  C          7.0140   -0.0990   -2.1500 C.3     1  UNL1        0.0470
      7  C          6.4800    0.0370   -0.7970 C.2     1  UNL1       -0.0470
      8  C          6.5720   -0.9400    0.1630 C.2     1  UNL1        0.0040
      9  C          5.8470    1.2050   -0.4490 C.2     1  UNL1        0.0040
     10  C          6.0650   -0.7950    1.4320 C.2     1  UNL1        0.0000
     11  C          5.3270    1.3840    0.8120 C.2     1  UNL1        0.0000
     12  C          5.4300    0.3800    1.7740 C.2     1  UNL1        0.0000
@<TRIPOS>BOND
     1     5     4    1
     2     4     2    1
     3     3     2    2
     4     2     1    1
     5     1     6    1
     6     6     7    1
     7     7     9    2
     8     7     8    1
     9     9    11    1
    10     8    10    2
    11    11    12    2
    12    10    12    1
