@<TRIPOS>MOLECULE
/home/cewinharhar/GITHUB/reincatalyze/data/processed/docking_pred/2023-Apr-25-2140_maxeplen10_maxtrainstep200_exh16_gamma099_lrac3e-4_lrcr1e-3/3110d36e974f17e9d190d2a4a051583463654b40_ligand_2.pdbqt
 12 12 0 0 0
SMALL
GASTEIGER

@<TRIPOS>ATOM
      1  C          4.9890    1.8060    0.7000 C.3     1  UNL1        0.1270
      2  C          4.4920    1.1010    1.9110 C.2     1  UNL1        0.3030
      3  O          5.1210    0.1830    2.4950 O.2     1  UNL1       -0.2520
      4  O          3.2640    1.4660    2.4430 O.3     1  UNL1       -0.4810
      5  H          2.6720    0.6990    2.7700 H       1  UNL1        0.2960
      6  C          6.4890    1.8170    0.7090 C.3     1  UNL1        0.0470
      7  C          7.1050    1.0240   -0.3520 C.2     1  UNL1       -0.0470
      8  C          6.4410    0.0570   -1.0670 C.2     1  UNL1        0.0040
      9  C          8.4240    1.2450   -0.6640 C.2     1  UNL1        0.0040
     10  C          7.0360   -0.6800   -2.0620 C.2     1  UNL1        0.0000
     11  C          9.0510    0.5240   -1.6540 C.2     1  UNL1        0.0000
     12  C          8.3610   -0.4520   -2.3690 C.2     1  UNL1        0.0000
@<TRIPOS>BOND
     1    12    10    2
     2    12    11    1
     3    10     8    1
     4    11     9    2
     5     8     7    2
     6     9     7    1
     7     7     6    1
     8     1     6    1
     9     1     2    1
    10     2     4    1
    11     2     3    2
    12     4     5    1
