@<TRIPOS>MOLECULE
/home/cewinharhar/GITHUB/reincatalyze/data/processed/docking_pred/2023-Apr-25-2140_maxeplen10_maxtrainstep200_exh16_gamma099_lrac3e-4_lrcr1e-3/3110d36e974f17e9d190d2a4a051583463654b40_ligand_2.pdbqt
 12 12 0 0 0
SMALL
GASTEIGER

@<TRIPOS>ATOM
      1  C          8.5600    0.6550   -1.6900 C.3     1  UNL1        0.1270
      2  C          9.6780    0.2620   -0.7930 C.2     1  UNL1        0.3030
      3  O          9.5480   -0.4990    0.1990 O.2     1  UNL1       -0.2520
      4  O         10.9490    0.7550   -1.0510 O.3     1  UNL1       -0.4810
      5  H         11.6720    0.0560   -1.2320 H       1  UNL1        0.2960
      6  C          7.3620   -0.2020   -1.3990 C.3     1  UNL1        0.0470
      7  C          6.4600    0.3450   -0.3880 C.2     1  UNL1       -0.0470
      8  C          5.8010    1.5420   -0.5200 C.2     1  UNL1        0.0040
      9  C          6.2480   -0.3680    0.7660 C.2     1  UNL1        0.0040
     10  C          4.9550    2.0420    0.4410 C.2     1  UNL1        0.0000
     11  C          5.4090    0.1030    1.7490 C.2     1  UNL1        0.0000
     12  C          4.7480    1.3210    1.5970 C.2     1  UNL1        0.0000
@<TRIPOS>BOND
     1     1     6    1
     2     1     2    1
     3     6     7    1
     4     5     4    1
     5     4     2    1
     6     2     3    2
     7     8     7    2
     8     8    10    1
     9     7     9    1
    10    10    12    2
    11     9    11    2
    12    12    11    1
