@<TRIPOS>MOLECULE
/home/cewinharhar/GITHUB/reincatalyze/data/processed/docking_pred/2023-Apr-25-2140_maxeplen10_maxtrainstep200_exh16_gamma099_lrac3e-4_lrcr1e-3/3162da3d825baae428df1736f889259fa2bb10a2_ligand_2.pdbqt
 12 12 0 0 0
SMALL
GASTEIGER

@<TRIPOS>ATOM
      1  C          5.0660    1.7610    0.7040 C.3     1  UNL1        0.1270
      2  C          4.6250    1.0240    1.9170 C.2     1  UNL1        0.3030
      3  O          5.3090    0.1350    2.4850 O.2     1  UNL1       -0.2520
      4  O          3.3890    1.3220    2.4700 O.3     1  UNL1       -0.4810
      5  H          3.0540    0.6810    3.1930 H       1  UNL1        0.2960
      6  C          6.5660    1.8050    0.6650 C.3     1  UNL1        0.0470
      7  C          7.1660    0.9970   -0.3940 C.2     1  UNL1       -0.0470
      8  C          6.4750    0.0670   -1.1310 C.2     1  UNL1        0.0040
      9  C          8.4980    1.1640   -0.6800 C.2     1  UNL1        0.0040
     10  C          7.0550   -0.6850   -2.1230 C.2     1  UNL1        0.0000
     11  C          9.1120    0.4270   -1.6670 C.2     1  UNL1        0.0000
     12  C          8.3930   -0.5120   -2.4050 C.2     1  UNL1        0.0000
@<TRIPOS>BOND
     1    12    10    2
     2    12    11    1
     3    10     8    1
     4    11     9    2
     5     8     7    2
     6     9     7    1
     7     7     6    1
     8     6     1    1
     9     1     2    1
    10     2     4    1
    11     2     3    2
    12     4     5    1
