MODEL 1
REMARK VINA RESULT:      -7.4      0.000      0.000
REMARK SMILES O=C(O)CCc1ccccc1
REMARK SMILES IDX 4 1 2 2 1 3 3 4 5 6 6 7 7 8 11 9 8 10 10 11 9 12
REMARK H PARENT 3 5
REMARK Flexibility Score: inf
ROOT
ATOM      1  C   UNL     1       8.441  -0.579  -2.184  1.00  0.00     0.127 C 
ENDROOT
BRANCH   1   2
ATOM      2  C   UNL     1       8.514  -1.876  -2.907  1.00  0.00     0.303 C 
ATOM      3  O   UNL     1       9.580  -2.514  -3.095  1.00  0.00    -0.252 OA
BRANCH   2   4
ATOM      4  O   UNL     1       7.346  -2.430  -3.409  1.00  0.00    -0.481 OA
ATOM      5  H   UNL     1       6.478  -1.956  -3.151  1.00  0.00     0.296 HD
ENDBRANCH   2   4
ENDBRANCH   1   2
BRANCH   1   6
ATOM      6  C   UNL     1       7.019  -0.101  -2.158  1.00  0.00     0.047 C 
BRANCH   6   7
ATOM      7  C   UNL     1       6.470   0.090  -0.818  1.00  0.00    -0.047 A 
ATOM      8  C   UNL     1       5.832   1.236  -0.409  1.00  0.00     0.004 A 
ATOM      9  C   UNL     1       6.593  -0.924   0.099  1.00  0.00     0.004 A 
ATOM     10  C   UNL     1       5.321   1.399   0.856  1.00  0.00     0.000 A 
ATOM     11  C   UNL     1       6.094  -0.795   1.375  1.00  0.00     0.000 A 
ATOM     12  C   UNL     1       5.448   0.375   1.771  1.00  0.00     0.000 A 
ENDBRANCH   6   7
ENDBRANCH   1   6
TORSDOF 4
ENDMDL
MODEL 2
REMARK VINA RESULT:      -7.3      0.107      1.429
REMARK SMILES O=C(O)CCc1ccccc1
REMARK SMILES IDX 4 1 2 2 1 3 3 4 5 6 6 7 7 8 11 9 8 10 10 11 9 12
REMARK H PARENT 3 5
REMARK Flexibility Score: inf
ROOT
ATOM      1  C   UNL     1       8.459  -0.600  -2.194  1.00  0.00     0.127 C 
ENDROOT
BRANCH   1   2
ATOM      2  C   UNL     1       8.520  -1.894  -2.922  1.00  0.00     0.303 C 
ATOM      3  O   UNL     1       9.579  -2.546  -3.105  1.00  0.00    -0.252 OA
BRANCH   2   4
ATOM      4  O   UNL     1       7.349  -2.429  -3.438  1.00  0.00    -0.481 OA
ATOM      5  H   UNL     1       7.411  -3.387  -3.790  1.00  0.00     0.296 HD
ENDBRANCH   2   4
ENDBRANCH   1   2
BRANCH   1   6
ATOM      6  C   UNL     1       7.033  -0.140  -2.111  1.00  0.00     0.047 C 
BRANCH   6   7
ATOM      7  C   UNL     1       6.511  -0.033  -0.750  1.00  0.00    -0.047 A 
ATOM      8  C   UNL     1       6.621  -1.027   0.190  1.00  0.00     0.004 A 
ATOM      9  C   UNL     1       5.871   1.122  -0.376  1.00  0.00     0.004 A 
ATOM     10  C   UNL     1       6.124  -0.910   1.467  1.00  0.00     0.000 A 
ATOM     11  C   UNL     1       5.361   1.273   0.893  1.00  0.00     0.000 A 
ATOM     12  C   UNL     1       5.482   0.253   1.835  1.00  0.00     0.000 A 
ENDBRANCH   6   7
ENDBRANCH   1   6
TORSDOF 4
ENDMDL
MODEL 3
REMARK VINA RESULT:      -6.8      3.373      5.072
REMARK SMILES O=C(O)CCc1ccccc1
REMARK SMILES IDX 4 1 2 2 1 3 3 4 5 6 6 7 7 8 11 9 8 10 10 11 9 12
REMARK H PARENT 3 5
REMARK Flexibility Score: inf
ROOT
ATOM      1  C   UNL     1       4.987   1.800   0.698  1.00  0.00     0.127 C 
ENDROOT
BRANCH   1   2
ATOM      2  C   UNL     1       4.504   1.093   1.913  1.00  0.00     0.303 C 
ATOM      3  O   UNL     1       5.146   0.182   2.496  1.00  0.00    -0.252 OA
BRANCH   2   4
ATOM      4  O   UNL     1       3.276   1.447   2.451  1.00  0.00    -0.481 OA
ATOM      5  H   UNL     1       2.635   1.935   1.822  1.00  0.00     0.296 HD
ENDBRANCH   2   4
ENDBRANCH   1   2
BRANCH   1   6
ATOM      6  C   UNL     1       6.485   1.873   0.724  1.00  0.00     0.047 C 
BRANCH   6   7
ATOM      7  C   UNL     1       7.145   1.118  -0.338  1.00  0.00    -0.047 A 
ATOM      8  C   UNL     1       8.488   1.203  -0.615  1.00  0.00     0.004 A 
ATOM      9  C   UNL     1       6.393   0.272  -1.115  1.00  0.00     0.004 A 
ATOM     10  C   UNL     1       9.093   0.485  -1.619  1.00  0.00     0.000 A 
ATOM     11  C   UNL     1       6.966  -0.460  -2.129  1.00  0.00     0.000 A 
ATOM     12  C   UNL     1       8.331  -0.362  -2.395  1.00  0.00     0.000 A 
ENDBRANCH   6   7
ENDBRANCH   1   6
TORSDOF 4
ENDMDL
MODEL 4
REMARK VINA RESULT:      -6.7      3.329      5.044
REMARK SMILES O=C(O)CCc1ccccc1
REMARK SMILES IDX 4 1 2 2 1 3 3 4 5 6 6 7 7 8 11 9 8 10 10 11 9 12
REMARK H PARENT 3 5
REMARK Flexibility Score: inf
ROOT
ATOM      1  C   UNL     1       5.066   1.761   0.704  1.00  0.00     0.127 C 
ENDROOT
BRANCH   1   2
ATOM      2  C   UNL     1       4.625   1.024   1.917  1.00  0.00     0.303 C 
ATOM      3  O   UNL     1       5.309   0.135   2.485  1.00  0.00    -0.252 OA
BRANCH   2   4
ATOM      4  O   UNL     1       3.389   1.322   2.470  1.00  0.00    -0.481 OA
ATOM      5  H   UNL     1       3.054   0.681   3.193  1.00  0.00     0.296 HD
ENDBRANCH   2   4
ENDBRANCH   1   2
BRANCH   1   6
ATOM      6  C   UNL     1       6.566   1.805   0.665  1.00  0.00     0.047 C 
BRANCH   6   7
ATOM      7  C   UNL     1       7.166   0.997  -0.394  1.00  0.00    -0.047 A 
ATOM      8  C   UNL     1       6.475   0.067  -1.131  1.00  0.00     0.004 A 
ATOM      9  C   UNL     1       8.498   1.164  -0.680  1.00  0.00     0.004 A 
ATOM     10  C   UNL     1       7.055  -0.685  -2.123  1.00  0.00     0.000 A 
ATOM     11  C   UNL     1       9.112   0.427  -1.667  1.00  0.00     0.000 A 
ATOM     12  C   UNL     1       8.393  -0.512  -2.405  1.00  0.00     0.000 A 
ENDBRANCH   6   7
ENDBRANCH   1   6
TORSDOF 4
ENDMDL
MODEL 5
REMARK VINA RESULT:      -6.7      1.937      2.602
REMARK SMILES O=C(O)CCc1ccccc1
REMARK SMILES IDX 4 1 2 2 1 3 3 4 5 6 6 7 7 8 11 9 8 10 10 11 9 12
REMARK H PARENT 3 5
REMARK Flexibility Score: inf
ROOT
ATOM      1  C   UNL     1       8.184   0.256  -2.124  1.00  0.00     0.127 C 
ENDROOT
BRANCH   1   2
ATOM      2  C   UNL     1       9.345   0.343  -1.201  1.00  0.00     0.303 C 
ATOM      3  O   UNL     1       9.489  -0.383  -0.184  1.00  0.00    -0.252 OA
BRANCH   2   4
ATOM      4  O   UNL     1      10.339   1.275  -1.460  1.00  0.00    -0.481 OA
ATOM      5  H   UNL     1      11.161   0.927  -1.959  1.00  0.00     0.296 HD
ENDBRANCH   2   4
ENDBRANCH   1   2
BRANCH   1   6
ATOM      6  C   UNL     1       7.105  -0.574  -1.492  1.00  0.00     0.047 C 
BRANCH   6   7
ATOM      7  C   UNL     1       6.349   0.112  -0.447  1.00  0.00    -0.047 A 
ATOM      8  C   UNL     1       6.137  -0.405   0.807  1.00  0.00     0.004 A 
ATOM      9  C   UNL     1       5.813   1.346  -0.720  1.00  0.00     0.004 A 
ATOM     10  C   UNL     1       5.423   0.255   1.779  1.00  0.00     0.000 A 
ATOM     11  C   UNL     1       5.092   2.034   0.229  1.00  0.00     0.000 A 
ATOM     12  C   UNL     1       4.888   1.493   1.497  1.00  0.00     0.000 A 
ENDBRANCH   6   7
ENDBRANCH   1   6
TORSDOF 4
ENDMDL
