@<TRIPOS>MOLECULE
/home/cewinharhar/GITHUB/reincatalyze/data/processed/docking_pred/2023-Apr-25-2140_maxeplen10_maxtrainstep200_exh16_gamma099_lrac3e-4_lrcr1e-3/3162da3d825baae428df1736f889259fa2bb10a2_ligand_2.pdbqt
 12 12 0 0 0
SMALL
GASTEIGER

@<TRIPOS>ATOM
      1  C          4.9870    1.8000    0.6980 C.3     1  UNL1        0.1270
      2  C          4.5040    1.0930    1.9130 C.2     1  UNL1        0.3030
      3  O          5.1460    0.1820    2.4960 O.2     1  UNL1       -0.2520
      4  O          3.2760    1.4470    2.4510 O.3     1  UNL1       -0.4810
      5  H          2.6350    1.9350    1.8220 H       1  UNL1        0.2960
      6  C          6.4850    1.8730    0.7240 C.3     1  UNL1        0.0470
      7  C          7.1450    1.1180   -0.3380 C.2     1  UNL1       -0.0470
      8  C          8.4880    1.2030   -0.6150 C.2     1  UNL1        0.0040
      9  C          6.3930    0.2720   -1.1150 C.2     1  UNL1        0.0040
     10  C          9.0930    0.4850   -1.6190 C.2     1  UNL1        0.0000
     11  C          6.9660   -0.4600   -2.1290 C.2     1  UNL1        0.0000
     12  C          8.3310   -0.3620   -2.3950 C.2     1  UNL1        0.0000
@<TRIPOS>BOND
     1    12    11    2
     2    12    10    1
     3    11     9    1
     4    10     8    2
     5     9     7    2
     6     8     7    1
     7     7     6    1
     8     1     6    1
     9     1     2    1
    10     5     4    1
    11     2     4    1
    12     2     3    2
