@<TRIPOS>MOLECULE
/home/cewinharhar/GITHUB/reincatalyze/data/processed/docking_pred/2023-Apr-25-2140_maxeplen10_maxtrainstep200_exh16_gamma099_lrac3e-4_lrcr1e-3/3162da3d825baae428df1736f889259fa2bb10a2_ligand_2.pdbqt
 12 12 0 0 0
SMALL
GASTEIGER

@<TRIPOS>ATOM
      1  C          8.4410   -0.5790   -2.1840 C.3     1  UNL1        0.1270
      2  C          8.5140   -1.8760   -2.9070 C.2     1  UNL1        0.3030
      3  O          9.5800   -2.5140   -3.0950 O.2     1  UNL1       -0.2520
      4  O          7.3460   -2.4300   -3.4090 O.3     1  UNL1       -0.4810
      5  H          6.4780   -1.9560   -3.1510 H       1  UNL1        0.2960
      6  C          7.0190   -0.1010   -2.1580 C.3     1  UNL1        0.0470
      7  C          6.4700    0.0900   -0.8180 C.2     1  UNL1       -0.0470
      8  C          5.8320    1.2360   -0.4090 C.2     1  UNL1        0.0040
      9  C          6.5930   -0.9240    0.0990 C.2     1  UNL1        0.0040
     10  C          5.3210    1.3990    0.8560 C.2     1  UNL1        0.0000
     11  C          6.0940   -0.7950    1.3750 C.2     1  UNL1        0.0000
     12  C          5.4480    0.3750    1.7710 C.2     1  UNL1        0.0000
@<TRIPOS>BOND
     1     4     5    1
     2     4     2    1
     3     3     2    2
     4     2     1    1
     5     1     6    1
     6     6     7    1
     7     7     8    2
     8     7     9    1
     9     8    10    1
    10     9    11    2
    11    10    12    2
    12    11    12    1
