@<TRIPOS>MOLECULE
/home/cewinharhar/GITHUB/reincatalyze/data/processed/docking_pred/2023-Apr-25-2140_maxeplen10_maxtrainstep200_exh16_gamma099_lrac3e-4_lrcr1e-3/3162da3d825baae428df1736f889259fa2bb10a2_ligand_2.pdbqt
 12 12 0 0 0
SMALL
GASTEIGER

@<TRIPOS>ATOM
      1  C          8.1840    0.2560   -2.1240 C.3     1  UNL1        0.1270
      2  C          9.3450    0.3430   -1.2010 C.2     1  UNL1        0.3030
      3  O          9.4890   -0.3830   -0.1840 O.2     1  UNL1       -0.2520
      4  O         10.3390    1.2750   -1.4600 O.3     1  UNL1       -0.4810
      5  H         11.1610    0.9270   -1.9590 H       1  UNL1        0.2960
      6  C          7.1050   -0.5740   -1.4920 C.3     1  UNL1        0.0470
      7  C          6.3490    0.1120   -0.4470 C.2     1  UNL1       -0.0470
      8  C          6.1370   -0.4050    0.8070 C.2     1  UNL1        0.0040
      9  C          5.8130    1.3460   -0.7200 C.2     1  UNL1        0.0040
     10  C          5.4230    0.2550    1.7790 C.2     1  UNL1        0.0000
     11  C          5.0920    2.0340    0.2290 C.2     1  UNL1        0.0000
     12  C          4.8880    1.4930    1.4970 C.2     1  UNL1        0.0000
@<TRIPOS>BOND
     1     1     6    1
     2     1     2    1
     3     5     4    1
     4     6     7    1
     5     4     2    1
     6     2     3    2
     7     9     7    2
     8     9    11    1
     9     7     8    1
    10    11    12    2
    11     8    10    2
    12    12    10    1
