@<TRIPOS>MOLECULE
/home/cewinharhar/GITHUB/reincatalyze/data/processed/docking_pred/2023-Apr-25-2140_maxeplen10_maxtrainstep200_exh16_gamma099_lrac3e-4_lrcr1e-3/3162da3d825baae428df1736f889259fa2bb10a2_ligand_2.pdbqt
 12 12 0 0 0
SMALL
GASTEIGER

@<TRIPOS>ATOM
      1  C          8.4590   -0.6000   -2.1940 C.3     1  UNL1        0.1270
      2  C          8.5200   -1.8940   -2.9220 C.2     1  UNL1        0.3030
      3  O          9.5790   -2.5460   -3.1050 O.2     1  UNL1       -0.2520
      4  O          7.3490   -2.4290   -3.4380 O.3     1  UNL1       -0.4810
      5  H          7.4110   -3.3870   -3.7900 H       1  UNL1        0.2960
      6  C          7.0330   -0.1400   -2.1110 C.3     1  UNL1        0.0470
      7  C          6.5110   -0.0330   -0.7500 C.2     1  UNL1       -0.0470
      8  C          6.6210   -1.0270    0.1900 C.2     1  UNL1        0.0040
      9  C          5.8710    1.1220   -0.3760 C.2     1  UNL1        0.0040
     10  C          6.1240   -0.9100    1.4670 C.2     1  UNL1        0.0000
     11  C          5.3610    1.2730    0.8930 C.2     1  UNL1        0.0000
     12  C          5.4820    0.2530    1.8350 C.2     1  UNL1        0.0000
@<TRIPOS>BOND
     1     5     4    1
     2     4     2    1
     3     3     2    2
     4     2     1    1
     5     1     6    1
     6     6     7    1
     7     7     9    2
     8     7     8    1
     9     9    11    1
    10     8    10    2
    11    11    12    2
    12    10    12    1
