MODEL 1
REMARK VINA RESULT:      -7.1      0.000      0.000
REMARK SMILES O=C(O)CCc1ccccc1
REMARK SMILES IDX 4 1 2 2 1 3 3 4 5 6 6 7 7 8 11 9 8 10 10 11 9 12
REMARK H PARENT 3 5
REMARK Flexibility Score: inf
ROOT
ATOM      1  C   UNL     1       8.505  -0.594  -2.178  1.00  0.00     0.127 C 
ENDROOT
BRANCH   1   2
ATOM      2  C   UNL     1       8.549  -1.892  -2.900  1.00  0.00     0.303 C 
ATOM      3  O   UNL     1       9.604  -2.545  -3.103  1.00  0.00    -0.252 OA
BRANCH   2   4
ATOM      4  O   UNL     1       7.367  -2.430  -3.385  1.00  0.00    -0.481 OA
ATOM      5  H   UNL     1       7.465  -3.198  -4.053  1.00  0.00     0.296 HD
ENDBRANCH   2   4
ENDBRANCH   1   2
BRANCH   1   6
ATOM      6  C   UNL     1       7.102  -0.060  -2.195  1.00  0.00     0.047 C 
BRANCH   6   7
ATOM      7  C   UNL     1       6.513   0.134  -0.873  1.00  0.00    -0.047 A 
ATOM      8  C   UNL     1       5.840   1.269  -0.494  1.00  0.00     0.004 A 
ATOM      9  C   UNL     1       6.631  -0.869   0.058  1.00  0.00     0.004 A 
ATOM     10  C   UNL     1       5.292   1.435   0.755  1.00  0.00     0.000 A 
ATOM     11  C   UNL     1       6.096  -0.736   1.318  1.00  0.00     0.000 A 
ATOM     12  C   UNL     1       5.415   0.424   1.684  1.00  0.00     0.000 A 
ENDBRANCH   6   7
ENDBRANCH   1   6
TORSDOF 4
ENDMDL
MODEL 2
REMARK VINA RESULT:      -7.1      0.086      1.428
REMARK SMILES O=C(O)CCc1ccccc1
REMARK SMILES IDX 4 1 2 2 1 3 3 4 5 6 6 7 7 8 11 9 8 10 10 11 9 12
REMARK H PARENT 3 5
REMARK Flexibility Score: inf
ROOT
ATOM      1  C   UNL     1       8.427  -0.545  -2.243  1.00  0.00     0.127 C 
ENDROOT
BRANCH   1   2
ATOM      2  C   UNL     1       8.489  -1.867  -2.920  1.00  0.00     0.303 C 
ATOM      3  O   UNL     1       9.551  -2.518  -3.091  1.00  0.00    -0.252 OA
BRANCH   2   4
ATOM      4  O   UNL     1       7.316  -2.431  -3.397  1.00  0.00    -0.481 OA
ATOM      5  H   UNL     1       6.674  -1.795  -3.874  1.00  0.00     0.296 HD
ENDBRANCH   2   4
ENDBRANCH   1   2
BRANCH   1   6
ATOM      6  C   UNL     1       7.001  -0.084  -2.177  1.00  0.00     0.047 C 
BRANCH   6   7
ATOM      7  C   UNL     1       6.474   0.059  -0.822  1.00  0.00    -0.047 A 
ATOM      8  C   UNL     1       6.559  -0.920   0.138  1.00  0.00     0.004 A 
ATOM      9  C   UNL     1       5.855   1.233  -0.472  1.00  0.00     0.004 A 
ATOM     10  C   UNL     1       6.058  -0.769   1.409  1.00  0.00     0.000 A 
ATOM     11  C   UNL     1       5.341   1.418   0.791  1.00  0.00     0.000 A 
ATOM     12  C   UNL     1       5.438   0.413   1.752  1.00  0.00     0.000 A 
ENDBRANCH   6   7
ENDBRANCH   1   6
TORSDOF 4
ENDMDL
MODEL 3
REMARK VINA RESULT:      -6.8      0.652      1.875
REMARK SMILES O=C(O)CCc1ccccc1
REMARK SMILES IDX 4 1 2 2 1 3 3 4 5 6 6 7 7 8 11 9 8 10 10 11 9 12
REMARK H PARENT 3 5
REMARK Flexibility Score: inf
ROOT
ATOM      1  C   UNL     1       8.276  -0.985  -1.738  1.00  0.00     0.127 C 
ENDROOT
BRANCH   1   2
ATOM      2  C   UNL     1       8.296  -2.004  -2.819  1.00  0.00     0.303 C 
ATOM      3  O   UNL     1       7.263  -2.455  -3.377  1.00  0.00    -0.252 OA
BRANCH   2   4
ATOM      4  O   UNL     1       9.517  -2.499  -3.252  1.00  0.00    -0.481 OA
ATOM      5  H   UNL     1       9.636  -2.574  -4.265  1.00  0.00     0.296 HD
ENDBRANCH   2   4
ENDBRANCH   1   2
BRANCH   1   6
ATOM      6  C   UNL     1       7.324  -1.417  -0.662  1.00  0.00     0.047 C 
BRANCH   6   7
ATOM      7  C   UNL     1       6.523  -0.335  -0.094  1.00  0.00    -0.047 A 
ATOM      8  C   UNL     1       6.047  -0.331   1.194  1.00  0.00     0.004 A 
ATOM      9  C   UNL     1       6.218   0.747  -0.882  1.00  0.00     0.004 A 
ATOM     10  C   UNL     1       5.295   0.696   1.712  1.00  0.00     0.000 A 
ATOM     11  C   UNL     1       5.466   1.792  -0.396  1.00  0.00     0.000 A 
ATOM     12  C   UNL     1       4.993   1.779   0.915  1.00  0.00     0.000 A 
ENDBRANCH   6   7
ENDBRANCH   1   6
TORSDOF 4
ENDMDL
MODEL 4
REMARK VINA RESULT:      -6.6      3.352      5.071
REMARK SMILES O=C(O)CCc1ccccc1
REMARK SMILES IDX 4 1 2 2 1 3 3 4 5 6 6 7 7 8 11 9 8 10 10 11 9 12
REMARK H PARENT 3 5
REMARK Flexibility Score: inf
ROOT
ATOM      1  C   UNL     1       5.001   1.815   0.661  1.00  0.00     0.127 C 
ENDROOT
BRANCH   1   2
ATOM      2  C   UNL     1       4.522   1.122   1.885  1.00  0.00     0.303 C 
ATOM      3  O   UNL     1       5.170   0.225   2.482  1.00  0.00    -0.252 OA
BRANCH   2   4
ATOM      4  O   UNL     1       3.290   1.474   2.416  1.00  0.00    -0.481 OA
ATOM      5  H   UNL     1       2.688   2.040   1.814  1.00  0.00     0.296 HD
ENDBRANCH   2   4
ENDBRANCH   1   2
BRANCH   1   6
ATOM      6  C   UNL     1       6.502   1.840   0.656  1.00  0.00     0.047 C 
BRANCH   6   7
ATOM      7  C   UNL     1       7.116   1.030  -0.393  1.00  0.00    -0.047 A 
ATOM      8  C   UNL     1       6.432   0.106  -1.144  1.00  0.00     0.004 A 
ATOM      9  C   UNL     1       8.455   1.188  -0.654  1.00  0.00     0.004 A 
ATOM     10  C   UNL     1       7.026  -0.649  -2.128  1.00  0.00     0.000 A 
ATOM     11  C   UNL     1       9.081   0.449  -1.630  1.00  0.00     0.000 A 
ATOM     12  C   UNL     1       8.370  -0.484  -2.383  1.00  0.00     0.000 A 
ENDBRANCH   6   7
ENDBRANCH   1   6
TORSDOF 4
ENDMDL
MODEL 5
REMARK VINA RESULT:      -6.5      2.502      3.775
REMARK SMILES O=C(O)CCc1ccccc1
REMARK SMILES IDX 4 1 2 2 1 3 3 4 5 6 6 7 7 8 11 9 8 10 10 11 9 12
REMARK H PARENT 3 5
REMARK Flexibility Score: inf
ROOT
ATOM      1  C   UNL     1       8.229  -1.404   2.611  1.00  0.00     0.127 C 
ENDROOT
BRANCH   1   2
ATOM      2  C   UNL     1       9.213  -2.263   1.903  1.00  0.00     0.303 C 
ATOM      3  O   UNL     1       8.895  -3.186   1.111  1.00  0.00    -0.252 OA
BRANCH   2   4
ATOM      4  O   UNL     1      10.566  -2.047   2.114  1.00  0.00    -0.481 OA
ATOM      5  H   UNL     1      11.024  -1.402   1.467  1.00  0.00     0.296 HD
ENDBRANCH   2   4
ENDBRANCH   1   2
BRANCH   1   6
ATOM      6  C   UNL     1       6.867  -1.607   2.015  1.00  0.00     0.047 C 
BRANCH   6   7
ATOM      7  C   UNL     1       6.403  -0.503   1.178  1.00  0.00    -0.047 A 
ATOM      8  C   UNL     1       6.741  -0.353  -0.145  1.00  0.00     0.004 A 
ATOM      9  C   UNL     1       5.582   0.448   1.731  1.00  0.00     0.004 A 
ATOM     10  C   UNL     1       6.296   0.692  -0.918  1.00  0.00     0.000 A 
ATOM     11  C   UNL     1       5.119   1.507   0.986  1.00  0.00     0.000 A 
ATOM     12  C   UNL     1       5.472   1.643  -0.356  1.00  0.00     0.000 A 
ENDBRANCH   6   7
ENDBRANCH   1   6
TORSDOF 4
ENDMDL
