@<TRIPOS>MOLECULE
/home/cewinharhar/GITHUB/reincatalyze/data/processed/docking_pred/2023-Apr-25-2140_maxeplen10_maxtrainstep200_exh16_gamma099_lrac3e-4_lrcr1e-3/31638bda67923b1bb66f4f033a77b51352de91e4_ligand_2.pdbqt
 12 12 0 0 0
SMALL
GASTEIGER

@<TRIPOS>ATOM
      1  C          8.2760   -0.9850   -1.7380 C.3     1  UNL1        0.1270
      2  C          8.2960   -2.0040   -2.8190 C.2     1  UNL1        0.3030
      3  O          7.2630   -2.4550   -3.3770 O.2     1  UNL1       -0.2520
      4  O          9.5170   -2.4990   -3.2520 O.3     1  UNL1       -0.4810
      5  H          9.6360   -2.5740   -4.2650 H       1  UNL1        0.2960
      6  C          7.3240   -1.4170   -0.6620 C.3     1  UNL1        0.0470
      7  C          6.5230   -0.3350   -0.0940 C.2     1  UNL1       -0.0470
      8  C          6.0470   -0.3310    1.1940 C.2     1  UNL1        0.0040
      9  C          6.2180    0.7470   -0.8820 C.2     1  UNL1        0.0040
     10  C          5.2950    0.6960    1.7120 C.2     1  UNL1        0.0000
     11  C          5.4660    1.7920   -0.3960 C.2     1  UNL1        0.0000
     12  C          4.9930    1.7790    0.9150 C.2     1  UNL1        0.0000
@<TRIPOS>BOND
     1     5     4    1
     2     3     2    2
     3     4     2    1
     4     2     1    1
     5     1     6    1
     6     9    11    1
     7     9     7    2
     8     6     7    1
     9    11    12    2
    10     7     8    1
    11    12    10    1
    12     8    10    2
