@<TRIPOS>MOLECULE
/home/cewinharhar/GITHUB/reincatalyze/data/processed/docking_pred/2023-Apr-25-2140_maxeplen10_maxtrainstep200_exh16_gamma099_lrac3e-4_lrcr1e-3/31638bda67923b1bb66f4f033a77b51352de91e4_ligand_2.pdbqt
 12 12 0 0 0
SMALL
GASTEIGER

@<TRIPOS>ATOM
      1  C          5.0010    1.8150    0.6610 C.3     1  UNL1        0.1270
      2  C          4.5220    1.1220    1.8850 C.2     1  UNL1        0.3030
      3  O          5.1700    0.2250    2.4820 O.2     1  UNL1       -0.2520
      4  O          3.2900    1.4740    2.4160 O.3     1  UNL1       -0.4810
      5  H          2.6880    2.0400    1.8140 H       1  UNL1        0.2960
      6  C          6.5020    1.8400    0.6560 C.3     1  UNL1        0.0470
      7  C          7.1160    1.0300   -0.3930 C.2     1  UNL1       -0.0470
      8  C          6.4320    0.1060   -1.1440 C.2     1  UNL1        0.0040
      9  C          8.4550    1.1880   -0.6540 C.2     1  UNL1        0.0040
     10  C          7.0260   -0.6490   -2.1280 C.2     1  UNL1        0.0000
     11  C          9.0810    0.4490   -1.6300 C.2     1  UNL1        0.0000
     12  C          8.3700   -0.4840   -2.3830 C.2     1  UNL1        0.0000
@<TRIPOS>BOND
     1    12    10    2
     2    12    11    1
     3    10     8    1
     4    11     9    2
     5     8     7    2
     6     9     7    1
     7     7     6    1
     8     6     1    1
     9     1     2    1
    10     5     4    1
    11     2     4    1
    12     2     3    2
