@<TRIPOS>MOLECULE
/home/cewinharhar/GITHUB/reincatalyze/data/processed/docking_pred/2023-Apr-25-2140_maxeplen10_maxtrainstep200_exh16_gamma099_lrac3e-4_lrcr1e-3/31638bda67923b1bb66f4f033a77b51352de91e4_ligand_2.pdbqt
 12 12 0 0 0
SMALL
GASTEIGER

@<TRIPOS>ATOM
      1  C          8.2290   -1.4040    2.6110 C.3     1  UNL1        0.1270
      2  C          9.2130   -2.2630    1.9030 C.2     1  UNL1        0.3030
      3  O          8.8950   -3.1860    1.1110 O.2     1  UNL1       -0.2520
      4  O         10.5660   -2.0470    2.1140 O.3     1  UNL1       -0.4810
      5  H         11.0240   -1.4020    1.4670 H       1  UNL1        0.2960
      6  C          6.8670   -1.6070    2.0150 C.3     1  UNL1        0.0470
      7  C          6.4030   -0.5030    1.1780 C.2     1  UNL1       -0.0470
      8  C          6.7410   -0.3530   -0.1450 C.2     1  UNL1        0.0040
      9  C          5.5820    0.4480    1.7310 C.2     1  UNL1        0.0040
     10  C          6.2960    0.6920   -0.9180 C.2     1  UNL1        0.0000
     11  C          5.1190    1.5070    0.9860 C.2     1  UNL1        0.0000
     12  C          5.4720    1.6430   -0.3560 C.2     1  UNL1        0.0000
@<TRIPOS>BOND
     1    10    12    2
     2    10     8    1
     3    12    11    1
     4     8     7    2
     5    11     9    2
     6     3     2    2
     7     7     9    1
     8     7     6    1
     9     5     4    1
    10     2     4    1
    11     2     1    1
    12     6     1    1
