@<TRIPOS>MOLECULE
/home/cewinharhar/GITHUB/reincatalyze/data/processed/docking_pred/2023-Apr-25-2140_maxeplen10_maxtrainstep200_exh16_gamma099_lrac3e-4_lrcr1e-3/31638bda67923b1bb66f4f033a77b51352de91e4_ligand_2.pdbqt
 12 12 0 0 0
SMALL
GASTEIGER

@<TRIPOS>ATOM
      1  C          8.5050   -0.5940   -2.1780 C.3     1  UNL1        0.1270
      2  C          8.5490   -1.8920   -2.9000 C.2     1  UNL1        0.3030
      3  O          9.6040   -2.5450   -3.1030 O.2     1  UNL1       -0.2520
      4  O          7.3670   -2.4300   -3.3850 O.3     1  UNL1       -0.4810
      5  H          7.4650   -3.1980   -4.0530 H       1  UNL1        0.2960
      6  C          7.1020   -0.0600   -2.1950 C.3     1  UNL1        0.0470
      7  C          6.5130    0.1340   -0.8730 C.2     1  UNL1       -0.0470
      8  C          5.8400    1.2690   -0.4940 C.2     1  UNL1        0.0040
      9  C          6.6310   -0.8690    0.0580 C.2     1  UNL1        0.0040
     10  C          5.2920    1.4350    0.7550 C.2     1  UNL1        0.0000
     11  C          6.0960   -0.7360    1.3180 C.2     1  UNL1        0.0000
     12  C          5.4150    0.4240    1.6840 C.2     1  UNL1        0.0000
@<TRIPOS>BOND
     1     5     4    1
     2     4     2    1
     3     3     2    2
     4     2     1    1
     5     6     1    1
     6     6     7    1
     7     7     8    2
     8     7     9    1
     9     8    10    1
    10     9    11    2
    11    10    12    2
    12    11    12    1
