@<TRIPOS>MOLECULE
/home/cewinharhar/GITHUB/reincatalyze/data/processed/docking_pred/2023-Apr-25-2140_maxeplen10_maxtrainstep200_exh16_gamma099_lrac3e-4_lrcr1e-3/31638bda67923b1bb66f4f033a77b51352de91e4_ligand_2.pdbqt
 12 12 0 0 0
SMALL
GASTEIGER

@<TRIPOS>ATOM
      1  C          8.4270   -0.5450   -2.2430 C.3     1  UNL1        0.1270
      2  C          8.4890   -1.8670   -2.9200 C.2     1  UNL1        0.3030
      3  O          9.5510   -2.5180   -3.0910 O.2     1  UNL1       -0.2520
      4  O          7.3160   -2.4310   -3.3970 O.3     1  UNL1       -0.4810
      5  H          6.6740   -1.7950   -3.8740 H       1  UNL1        0.2960
      6  C          7.0010   -0.0840   -2.1770 C.3     1  UNL1        0.0470
      7  C          6.4740    0.0590   -0.8220 C.2     1  UNL1       -0.0470
      8  C          6.5590   -0.9200    0.1380 C.2     1  UNL1        0.0040
      9  C          5.8550    1.2330   -0.4720 C.2     1  UNL1        0.0040
     10  C          6.0580   -0.7690    1.4090 C.2     1  UNL1        0.0000
     11  C          5.3410    1.4180    0.7910 C.2     1  UNL1        0.0000
     12  C          5.4380    0.4130    1.7520 C.2     1  UNL1        0.0000
@<TRIPOS>BOND
     1     5     4    1
     2     4     2    1
     3     3     2    2
     4     2     1    1
     5     1     6    1
     6     6     7    1
     7     7     9    2
     8     7     8    1
     9     9    11    1
    10     8    10    2
    11    11    12    2
    12    10    12    1
