@<TRIPOS>MOLECULE
/home/cewinharhar/GITHUB/reincatalyze/data/processed/docking_pred/2023-Apr-25-2140_maxeplen10_maxtrainstep200_exh16_gamma099_lrac3e-4_lrcr1e-3/31de0aabf4a391366091aaa04775d5537fef7eaf_ligand_2.pdbqt
 12 12 0 0 0
SMALL
GASTEIGER

@<TRIPOS>ATOM
      1  C          8.4350   -0.5260   -2.1010 C.3     1  UNL1        0.1270
      2  C          8.4370   -1.8180   -2.8350 C.2     1  UNL1        0.3030
      3  O          7.4000   -2.3720   -3.2800 O.2     1  UNL1       -0.2520
      4  O          9.6450   -2.4640   -3.0530 O.3     1  UNL1       -0.4810
      5  H         10.1190   -2.2430   -3.9310 H       1  UNL1        0.2960
      6  C          7.0500    0.0490   -2.1050 C.3     1  UNL1        0.0470
      7  C          6.4580    0.2090   -0.7780 C.2     1  UNL1       -0.0470
      8  C          5.7680    1.3270   -0.3780 C.2     1  UNL1        0.0040
      9  C          6.5920   -0.8090    0.1330 C.2     1  UNL1        0.0040
     10  C          5.2180    1.4610    0.8740 C.2     1  UNL1        0.0000
     11  C          6.0550   -0.7080    1.3960 C.2     1  UNL1        0.0000
     12  C          5.3570    0.4350    1.7840 C.2     1  UNL1        0.0000
@<TRIPOS>BOND
     1     5     4    1
     2     3     2    2
     3     4     2    1
     4     2     1    1
     5     6     1    1
     6     6     7    1
     7     7     8    2
     8     7     9    1
     9     8    10    1
    10     9    11    2
    11    10    12    2
    12    11    12    1
