@<TRIPOS>MOLECULE
/home/cewinharhar/GITHUB/reincatalyze/data/processed/docking_pred/2023-Apr-25-2140_maxeplen10_maxtrainstep200_exh16_gamma099_lrac3e-4_lrcr1e-3/31de0aabf4a391366091aaa04775d5537fef7eaf_ligand_2.pdbqt
 12 12 0 0 0
SMALL
GASTEIGER

@<TRIPOS>ATOM
      1  C          8.3580   -0.3550   -2.2230 C.3     1  UNL1        0.1270
      2  C          8.4870   -1.6940   -2.8550 C.2     1  UNL1        0.3030
      3  O          9.5760   -2.3080   -2.9810 O.2     1  UNL1       -0.2520
      4  O          7.3470   -2.3190   -3.3400 O.3     1  UNL1       -0.4810
      5  H          6.7080   -1.7300   -3.8780 H       1  UNL1        0.2960
      6  C          6.9060    0.0030   -2.1020 C.3     1  UNL1        0.0470
      7  C          6.4160    0.0820   -0.7280 C.2     1  UNL1       -0.0470
      8  C          6.5440   -0.9330    0.1890 C.2     1  UNL1        0.0040
      9  C          5.7870    1.2300   -0.3130 C.2     1  UNL1        0.0040
     10  C          6.0770   -0.8420    1.4780 C.2     1  UNL1        0.0000
     11  C          5.3070    1.3540    0.9700 C.2     1  UNL1        0.0000
     12  C          5.4470    0.3140    1.8870 C.2     1  UNL1        0.0000
@<TRIPOS>BOND
     1     5     4    1
     2     4     2    1
     3     3     2    2
     4     2     1    1
     5     1     6    1
     6     6     7    1
     7     7     9    2
     8     7     8    1
     9     9    11    1
    10     8    10    2
    11    11    12    2
    12    10    12    1
