@<TRIPOS>MOLECULE
/home/cewinharhar/GITHUB/reincatalyze/data/processed/docking_pred/2023-Apr-25-2140_maxeplen10_maxtrainstep200_exh16_gamma099_lrac3e-4_lrcr1e-3/31de0aabf4a391366091aaa04775d5537fef7eaf_ligand_2.pdbqt
 12 12 0 0 0
SMALL
GASTEIGER

@<TRIPOS>ATOM
      1  C          5.4210    2.8690   -0.0290 C.3     1  UNL1        0.1270
      2  C          6.2140    3.8540    0.7500 C.2     1  UNL1        0.3030
      3  O          6.8960    4.7740    0.2300 O.2     1  UNL1       -0.2520
      4  O          6.2140    3.7710    2.1340 O.3     1  UNL1       -0.4810
      5  H          6.6840    2.9560    2.5350 H       1  UNL1        0.2960
      6  C          4.9210    1.7920    0.8890 C.3     1  UNL1        0.0470
      7  C          5.7280    0.5740    0.8870 C.2     1  UNL1       -0.0470
      8  C          6.4360    0.1280   -0.2010 C.2     1  UNL1        0.0040
      9  C          5.7930   -0.1790    2.0330 C.2     1  UNL1        0.0040
     10  C          7.1910   -1.0210   -0.1850 C.2     1  UNL1        0.0000
     11  C          6.5380   -1.3340    2.0840 C.2     1  UNL1        0.0000
     12  C          7.2500   -1.7720    0.9690 C.2     1  UNL1        0.0000
@<TRIPOS>BOND
     1     8    10    1
     2     8     7    2
     3    10    12    2
     4     1     2    1
     5     1     6    1
     6     3     2    2
     7     2     4    1
     8     7     6    1
     9     7     9    1
    10    12    11    1
    11     9    11    2
    12     4     5    1
