@<TRIPOS>MOLECULE
/home/cewinharhar/GITHUB/reincatalyze/data/processed/docking_pred/2023-Apr-25-2140_maxeplen10_maxtrainstep200_exh16_gamma099_lrac3e-4_lrcr1e-3/31de0aabf4a391366091aaa04775d5537fef7eaf_ligand_2.pdbqt
 12 12 0 0 0
SMALL
GASTEIGER

@<TRIPOS>ATOM
      1  C          8.3180    0.2560   -2.3380 C.3     1  UNL1        0.1270
      2  C          8.2630   -1.2080   -2.5840 C.2     1  UNL1        0.3030
      3  O          9.2730   -1.9170   -2.8250 O.2     1  UNL1       -0.2520
      4  O          7.0330   -1.8480   -2.5510 O.3     1  UNL1       -0.4810
      5  H          6.2270   -1.2870   -2.8370 H       1  UNL1        0.2960
      6  C          8.6730    0.5080   -0.9020 C.3     1  UNL1        0.0470
      7  C          7.5410    0.4540    0.0190 C.2     1  UNL1       -0.0470
      8  C          7.4670   -0.4030    1.0910 C.2     1  UNL1        0.0040
      9  C          6.4800    1.3010   -0.1850 C.2     1  UNL1        0.0040
     10  C          6.3940   -0.4410    1.9480 C.2     1  UNL1        0.0000
     11  C          5.3890    1.2890    0.6530 C.2     1  UNL1        0.0000
     12  C          5.3320    0.4130    1.7360 C.2     1  UNL1        0.0000
@<TRIPOS>BOND
     1     5     4    1
     2     3     2    2
     3     2     4    1
     4     2     1    1
     5     1     6    1
     6     6     7    1
     7     9     7    2
     8     9    11    1
     9     7     8    1
    10    11    12    2
    11     8    10    2
    12    12    10    1
