MODEL 1
REMARK VINA RESULT:      -6.7      0.000      0.000
REMARK SMILES O=C(O)CCc1ccccc1
REMARK SMILES IDX 4 1 2 2 1 3 3 4 5 6 6 7 7 8 11 9 8 10 10 11 9 12
REMARK H PARENT 3 5
REMARK Flexibility Score: inf
ROOT
ATOM      1  C   UNL     1       8.435  -0.526  -2.101  1.00  0.00     0.127 C 
ENDROOT
BRANCH   1   2
ATOM      2  C   UNL     1       8.437  -1.818  -2.835  1.00  0.00     0.303 C 
ATOM      3  O   UNL     1       7.400  -2.372  -3.280  1.00  0.00    -0.252 OA
BRANCH   2   4
ATOM      4  O   UNL     1       9.645  -2.464  -3.053  1.00  0.00    -0.481 OA
ATOM      5  H   UNL     1      10.119  -2.243  -3.931  1.00  0.00     0.296 HD
ENDBRANCH   2   4
ENDBRANCH   1   2
BRANCH   1   6
ATOM      6  C   UNL     1       7.050   0.049  -2.105  1.00  0.00     0.047 C 
BRANCH   6   7
ATOM      7  C   UNL     1       6.458   0.209  -0.778  1.00  0.00    -0.047 A 
ATOM      8  C   UNL     1       5.768   1.327  -0.378  1.00  0.00     0.004 A 
ATOM      9  C   UNL     1       6.592  -0.809   0.133  1.00  0.00     0.004 A 
ATOM     10  C   UNL     1       5.218   1.461   0.874  1.00  0.00     0.000 A 
ATOM     11  C   UNL     1       6.055  -0.708   1.396  1.00  0.00     0.000 A 
ATOM     12  C   UNL     1       5.357   0.435   1.784  1.00  0.00     0.000 A 
ENDBRANCH   6   7
ENDBRANCH   1   6
TORSDOF 4
ENDMDL
MODEL 2
REMARK VINA RESULT:      -6.7      0.159      1.727
REMARK SMILES O=C(O)CCc1ccccc1
REMARK SMILES IDX 4 1 2 2 1 3 3 4 5 6 6 7 7 8 11 9 8 10 10 11 9 12
REMARK H PARENT 3 5
REMARK Flexibility Score: inf
ROOT
ATOM      1  C   UNL     1       8.358  -0.355  -2.223  1.00  0.00     0.127 C 
ENDROOT
BRANCH   1   2
ATOM      2  C   UNL     1       8.487  -1.694  -2.855  1.00  0.00     0.303 C 
ATOM      3  O   UNL     1       9.576  -2.308  -2.981  1.00  0.00    -0.252 OA
BRANCH   2   4
ATOM      4  O   UNL     1       7.347  -2.319  -3.340  1.00  0.00    -0.481 OA
ATOM      5  H   UNL     1       6.708  -1.730  -3.878  1.00  0.00     0.296 HD
ENDBRANCH   2   4
ENDBRANCH   1   2
BRANCH   1   6
ATOM      6  C   UNL     1       6.906   0.003  -2.102  1.00  0.00     0.047 C 
BRANCH   6   7
ATOM      7  C   UNL     1       6.416   0.082  -0.728  1.00  0.00    -0.047 A 
ATOM      8  C   UNL     1       6.544  -0.933   0.189  1.00  0.00     0.004 A 
ATOM      9  C   UNL     1       5.787   1.230  -0.313  1.00  0.00     0.004 A 
ATOM     10  C   UNL     1       6.077  -0.842   1.478  1.00  0.00     0.000 A 
ATOM     11  C   UNL     1       5.307   1.354   0.970  1.00  0.00     0.000 A 
ATOM     12  C   UNL     1       5.447   0.314   1.887  1.00  0.00     0.000 A 
ENDBRANCH   6   7
ENDBRANCH   1   6
TORSDOF 4
ENDMDL
MODEL 3
REMARK VINA RESULT:      -6.7      3.283      5.094
REMARK SMILES O=C(O)CCc1ccccc1
REMARK SMILES IDX 4 1 2 2 1 3 3 4 5 6 6 7 7 8 11 9 8 10 10 11 9 12
REMARK H PARENT 3 5
REMARK Flexibility Score: inf
ROOT
ATOM      1  C   UNL     1       5.017   1.752   0.686  1.00  0.00     0.127 C 
ENDROOT
BRANCH   1   2
ATOM      2  C   UNL     1       4.612   1.031   1.921  1.00  0.00     0.303 C 
ATOM      3  O   UNL     1       5.325   0.171   2.497  1.00  0.00    -0.252 OA
BRANCH   2   4
ATOM      4  O   UNL     1       3.376   1.310   2.486  1.00  0.00    -0.481 OA
ATOM      5  H   UNL     1       2.856   2.084   2.066  1.00  0.00     0.296 HD
ENDBRANCH   2   4
ENDBRANCH   1   2
BRANCH   1   6
ATOM      6  C   UNL     1       6.513   1.841   0.628  1.00  0.00     0.047 C 
BRANCH   6   7
ATOM      7  C   UNL     1       7.128   1.017  -0.409  1.00  0.00    -0.047 A 
ATOM      8  C   UNL     1       6.449   0.068  -1.134  1.00  0.00     0.004 A 
ATOM      9  C   UNL     1       8.461   1.188  -0.688  1.00  0.00     0.004 A 
ATOM     10  C   UNL     1       7.043  -0.699  -2.107  1.00  0.00     0.000 A 
ATOM     11  C   UNL     1       9.088   0.436  -1.655  1.00  0.00     0.000 A 
ATOM     12  C   UNL     1       8.382  -0.522  -2.381  1.00  0.00     0.000 A 
ENDBRANCH   6   7
ENDBRANCH   1   6
TORSDOF 4
ENDMDL
MODEL 4
REMARK VINA RESULT:      -6.6      3.783      4.899
REMARK SMILES O=C(O)CCc1ccccc1
REMARK SMILES IDX 4 1 2 2 1 3 3 4 5 6 6 7 7 8 11 9 8 10 10 11 9 12
REMARK H PARENT 3 5
REMARK Flexibility Score: inf
ROOT
ATOM      1  C   UNL     1       5.421   2.869  -0.029  1.00  0.00     0.127 C 
ENDROOT
BRANCH   1   2
ATOM      2  C   UNL     1       6.214   3.854   0.750  1.00  0.00     0.303 C 
ATOM      3  O   UNL     1       6.896   4.774   0.230  1.00  0.00    -0.252 OA
BRANCH   2   4
ATOM      4  O   UNL     1       6.214   3.771   2.134  1.00  0.00    -0.481 OA
ATOM      5  H   UNL     1       6.684   2.956   2.535  1.00  0.00     0.296 HD
ENDBRANCH   2   4
ENDBRANCH   1   2
BRANCH   1   6
ATOM      6  C   UNL     1       4.921   1.792   0.889  1.00  0.00     0.047 C 
BRANCH   6   7
ATOM      7  C   UNL     1       5.728   0.574   0.887  1.00  0.00    -0.047 A 
ATOM      8  C   UNL     1       6.436   0.128  -0.201  1.00  0.00     0.004 A 
ATOM      9  C   UNL     1       5.793  -0.179   2.033  1.00  0.00     0.004 A 
ATOM     10  C   UNL     1       7.191  -1.021  -0.185  1.00  0.00     0.000 A 
ATOM     11  C   UNL     1       6.538  -1.334   2.084  1.00  0.00     0.000 A 
ATOM     12  C   UNL     1       7.250  -1.772   0.969  1.00  0.00     0.000 A 
ENDBRANCH   6   7
ENDBRANCH   1   6
TORSDOF 4
ENDMDL
MODEL 5
REMARK VINA RESULT:      -6.6      0.953      1.964
REMARK SMILES O=C(O)CCc1ccccc1
REMARK SMILES IDX 4 1 2 2 1 3 3 4 5 6 6 7 7 8 11 9 8 10 10 11 9 12
REMARK H PARENT 3 5
REMARK Flexibility Score: inf
ROOT
ATOM      1  C   UNL     1       8.318   0.256  -2.338  1.00  0.00     0.127 C 
ENDROOT
BRANCH   1   2
ATOM      2  C   UNL     1       8.263  -1.208  -2.584  1.00  0.00     0.303 C 
ATOM      3  O   UNL     1       9.273  -1.917  -2.825  1.00  0.00    -0.252 OA
BRANCH   2   4
ATOM      4  O   UNL     1       7.033  -1.848  -2.551  1.00  0.00    -0.481 OA
ATOM      5  H   UNL     1       6.227  -1.287  -2.837  1.00  0.00     0.296 HD
ENDBRANCH   2   4
ENDBRANCH   1   2
BRANCH   1   6
ATOM      6  C   UNL     1       8.673   0.508  -0.902  1.00  0.00     0.047 C 
BRANCH   6   7
ATOM      7  C   UNL     1       7.541   0.454   0.019  1.00  0.00    -0.047 A 
ATOM      8  C   UNL     1       7.467  -0.403   1.091  1.00  0.00     0.004 A 
ATOM      9  C   UNL     1       6.480   1.301  -0.185  1.00  0.00     0.004 A 
ATOM     10  C   UNL     1       6.394  -0.441   1.948  1.00  0.00     0.000 A 
ATOM     11  C   UNL     1       5.389   1.289   0.653  1.00  0.00     0.000 A 
ATOM     12  C   UNL     1       5.332   0.413   1.736  1.00  0.00     0.000 A 
ENDBRANCH   6   7
ENDBRANCH   1   6
TORSDOF 4
ENDMDL
