@<TRIPOS>MOLECULE
/home/cewinharhar/GITHUB/reincatalyze/data/processed/docking_pred/2023-Apr-25-2140_maxeplen10_maxtrainstep200_exh16_gamma099_lrac3e-4_lrcr1e-3/31de0aabf4a391366091aaa04775d5537fef7eaf_ligand_2.pdbqt
 12 12 0 0 0
SMALL
GASTEIGER

@<TRIPOS>ATOM
      1  C          5.0170    1.7520    0.6860 C.3     1  UNL1        0.1270
      2  C          4.6120    1.0310    1.9210 C.2     1  UNL1        0.3030
      3  O          5.3250    0.1710    2.4970 O.2     1  UNL1       -0.2520
      4  O          3.3760    1.3100    2.4860 O.3     1  UNL1       -0.4810
      5  H          2.8560    2.0840    2.0660 H       1  UNL1        0.2960
      6  C          6.5130    1.8410    0.6280 C.3     1  UNL1        0.0470
      7  C          7.1280    1.0170   -0.4090 C.2     1  UNL1       -0.0470
      8  C          6.4490    0.0680   -1.1340 C.2     1  UNL1        0.0040
      9  C          8.4610    1.1880   -0.6880 C.2     1  UNL1        0.0040
     10  C          7.0430   -0.6990   -2.1070 C.2     1  UNL1        0.0000
     11  C          9.0880    0.4360   -1.6550 C.2     1  UNL1        0.0000
     12  C          8.3820   -0.5220   -2.3810 C.2     1  UNL1        0.0000
@<TRIPOS>BOND
     1    12    10    2
     2    12    11    1
     3    10     8    1
     4    11     9    2
     5     8     7    2
     6     9     7    1
     7     7     6    1
     8     6     1    1
     9     1     2    1
    10     2     4    1
    11     2     3    2
    12     5     4    1
