@<TRIPOS>MOLECULE
/home/cewinharhar/GITHUB/reincatalyze/data/processed/docking_pred/2023-Apr-25-2140_maxeplen10_maxtrainstep200_exh16_gamma099_lrac3e-4_lrcr1e-3/354626f0a3e222b5e9865005b72eb67019ec4e19_ligand_2.pdbqt
 12 12 0 0 0
SMALL
GASTEIGER

@<TRIPOS>ATOM
      1  C          8.2620    0.2610   -2.2000 C.3     1  UNL1        0.1270
      2  C          9.3740    0.3620   -1.2200 C.2     1  UNL1        0.3030
      3  O          9.4870   -0.3760   -0.2090 O.2     1  UNL1       -0.2520
      4  O         10.3560    1.3220   -1.4170 O.3     1  UNL1       -0.4810
      5  H         11.0980    1.0750   -2.0760 H       1  UNL1        0.2960
      6  C          7.1260   -0.5060   -1.5880 C.3     1  UNL1        0.0470
      7  C          6.3620    0.2390   -0.5910 C.2     1  UNL1       -0.0470
      8  C          6.1360   -0.2070    0.6880 C.2     1  UNL1        0.0040
      9  C          5.8320    1.4570   -0.9360 C.2     1  UNL1        0.0040
     10  C          5.4150    0.5070    1.6150 C.2     1  UNL1        0.0000
     11  C          5.1030    2.1980   -0.0340 C.2     1  UNL1        0.0000
     12  C          4.8850    1.7290    1.2600 C.2     1  UNL1        0.0000
@<TRIPOS>BOND
     1     1     6    1
     2     1     2    1
     3     5     4    1
     4     6     7    1
     5     4     2    1
     6     2     3    2
     7     9     7    2
     8     9    11    1
     9     7     8    1
    10    11    12    2
    11     8    10    2
    12    12    10    1
