MODEL 1
REMARK VINA RESULT:      -7.3      0.000      0.000
REMARK SMILES O=C(O)CCc1ccccc1
REMARK SMILES IDX 4 1 2 2 1 3 3 4 5 6 6 7 7 8 11 9 8 10 10 11 9 12
REMARK H PARENT 3 5
REMARK Flexibility Score: inf
ROOT
ATOM      1  C   UNL     1       8.448  -0.544  -2.242  1.00  0.00     0.127 C 
ENDROOT
BRANCH   1   2
ATOM      2  C   UNL     1       8.524  -1.858  -2.932  1.00  0.00     0.303 C 
ATOM      3  O   UNL     1       9.594  -2.490  -3.120  1.00  0.00    -0.252 OA
BRANCH   2   4
ATOM      4  O   UNL     1       7.355  -2.438  -3.402  1.00  0.00    -0.481 OA
ATOM      5  H   UNL     1       7.439  -2.981  -4.264  1.00  0.00     0.296 HD
ENDBRANCH   2   4
ENDBRANCH   1   2
BRANCH   1   6
ATOM      6  C   UNL     1       7.015  -0.105  -2.160  1.00  0.00     0.047 C 
BRANCH   6   7
ATOM      7  C   UNL     1       6.498   0.016  -0.799  1.00  0.00    -0.047 A 
ATOM      8  C   UNL     1       6.612  -0.967   0.152  1.00  0.00     0.004 A 
ATOM      9  C   UNL     1       5.857   1.174  -0.435  1.00  0.00     0.004 A 
ATOM     10  C   UNL     1       6.119  -0.836   1.429  1.00  0.00     0.000 A 
ATOM     11  C   UNL     1       5.351   1.339   0.833  1.00  0.00     0.000 A 
ATOM     12  C   UNL     1       5.477   0.330   1.786  1.00  0.00     0.000 A 
ENDBRANCH   6   7
ENDBRANCH   1   6
TORSDOF 4
ENDMDL
MODEL 2
REMARK VINA RESULT:      -7.3      0.065      1.426
REMARK SMILES O=C(O)CCc1ccccc1
REMARK SMILES IDX 4 1 2 2 1 3 3 4 5 6 6 7 7 8 11 9 8 10 10 11 9 12
REMARK H PARENT 3 5
REMARK Flexibility Score: inf
ROOT
ATOM      1  C   UNL     1       8.421  -0.536  -2.261  1.00  0.00     0.127 C 
ENDROOT
BRANCH   1   2
ATOM      2  C   UNL     1       8.503  -1.859  -2.933  1.00  0.00     0.303 C 
ATOM      3  O   UNL     1       9.570  -2.508  -3.075  1.00  0.00    -0.252 OA
BRANCH   2   4
ATOM      4  O   UNL     1       7.343  -2.427  -3.439  1.00  0.00    -0.481 OA
ATOM      5  H   UNL     1       6.828  -3.038  -2.800  1.00  0.00     0.296 HD
ENDBRANCH   2   4
ENDBRANCH   1   2
BRANCH   1   6
ATOM      6  C   UNL     1       6.989  -0.093  -2.204  1.00  0.00     0.047 C 
BRANCH   6   7
ATOM      7  C   UNL     1       6.467   0.091  -0.851  1.00  0.00    -0.047 A 
ATOM      8  C   UNL     1       5.833   1.232  -0.425  1.00  0.00     0.004 A 
ATOM      9  C   UNL     1       6.611  -0.928   0.058  1.00  0.00     0.004 A 
ATOM     10  C   UNL     1       5.348   1.388   0.852  1.00  0.00     0.000 A 
ATOM     11  C   UNL     1       6.139  -0.805   1.344  1.00  0.00     0.000 A 
ATOM     12  C   UNL     1       5.497   0.361   1.759  1.00  0.00     0.000 A 
ENDBRANCH   6   7
ENDBRANCH   1   6
TORSDOF 4
ENDMDL
MODEL 3
REMARK VINA RESULT:      -6.8      3.343      5.038
REMARK SMILES O=C(O)CCc1ccccc1
REMARK SMILES IDX 4 1 2 2 1 3 3 4 5 6 6 7 7 8 11 9 8 10 10 11 9 12
REMARK H PARENT 3 5
REMARK Flexibility Score: inf
ROOT
ATOM      1  C   UNL     1       5.020   1.756   0.682  1.00  0.00     0.127 C 
ENDROOT
BRANCH   1   2
ATOM      2  C   UNL     1       4.594   1.043   1.915  1.00  0.00     0.303 C 
ATOM      3  O   UNL     1       5.289   0.173   2.498  1.00  0.00    -0.252 OA
BRANCH   2   4
ATOM      4  O   UNL     1       3.359   1.344   2.469  1.00  0.00    -0.481 OA
ATOM      5  H   UNL     1       2.901   2.187   2.115  1.00  0.00     0.296 HD
ENDBRANCH   2   4
ENDBRANCH   1   2
BRANCH   1   6
ATOM      6  C   UNL     1       6.519   1.828   0.640  1.00  0.00     0.047 C 
BRANCH   6   7
ATOM      7  C   UNL     1       7.134   1.015  -0.406  1.00  0.00    -0.047 A 
ATOM      8  C   UNL     1       6.452   0.083  -1.149  1.00  0.00     0.004 A 
ATOM      9  C   UNL     1       8.470   1.179  -0.673  1.00  0.00     0.004 A 
ATOM     10  C   UNL     1       7.046  -0.675  -2.130  1.00  0.00     0.000 A 
ATOM     11  C   UNL     1       9.097   0.438  -1.648  1.00  0.00     0.000 A 
ATOM     12  C   UNL     1       8.388  -0.504  -2.393  1.00  0.00     0.000 A 
ENDBRANCH   6   7
ENDBRANCH   1   6
TORSDOF 4
ENDMDL
MODEL 4
REMARK VINA RESULT:      -6.7      1.938      2.292
REMARK SMILES O=C(O)CCc1ccccc1
REMARK SMILES IDX 4 1 2 2 1 3 3 4 5 6 6 7 7 8 11 9 8 10 10 11 9 12
REMARK H PARENT 3 5
REMARK Flexibility Score: inf
ROOT
ATOM      1  C   UNL     1       8.262   0.261  -2.200  1.00  0.00     0.127 C 
ENDROOT
BRANCH   1   2
ATOM      2  C   UNL     1       9.374   0.362  -1.220  1.00  0.00     0.303 C 
ATOM      3  O   UNL     1       9.487  -0.376  -0.209  1.00  0.00    -0.252 OA
BRANCH   2   4
ATOM      4  O   UNL     1      10.356   1.322  -1.417  1.00  0.00    -0.481 OA
ATOM      5  H   UNL     1      11.098   1.075  -2.076  1.00  0.00     0.296 HD
ENDBRANCH   2   4
ENDBRANCH   1   2
BRANCH   1   6
ATOM      6  C   UNL     1       7.126  -0.506  -1.588  1.00  0.00     0.047 C 
BRANCH   6   7
ATOM      7  C   UNL     1       6.362   0.239  -0.591  1.00  0.00    -0.047 A 
ATOM      8  C   UNL     1       6.136  -0.207   0.688  1.00  0.00     0.004 A 
ATOM      9  C   UNL     1       5.832   1.457  -0.936  1.00  0.00     0.004 A 
ATOM     10  C   UNL     1       5.415   0.507   1.615  1.00  0.00     0.000 A 
ATOM     11  C   UNL     1       5.103   2.198  -0.034  1.00  0.00     0.000 A 
ATOM     12  C   UNL     1       4.885   1.729   1.260  1.00  0.00     0.000 A 
ENDBRANCH   6   7
ENDBRANCH   1   6
TORSDOF 4
ENDMDL
MODEL 5
REMARK VINA RESULT:      -6.7      3.844      4.961
REMARK SMILES O=C(O)CCc1ccccc1
REMARK SMILES IDX 4 1 2 2 1 3 3 4 5 6 6 7 7 8 11 9 8 10 10 11 9 12
REMARK H PARENT 3 5
REMARK Flexibility Score: inf
ROOT
ATOM      1  C   UNL     1       5.427   2.910  -0.027  1.00  0.00     0.127 C 
ENDROOT
BRANCH   1   2
ATOM      2  C   UNL     1       6.257   3.859   0.761  1.00  0.00     0.303 C 
ATOM      3  O   UNL     1       6.951   4.774   0.250  1.00  0.00    -0.252 OA
BRANCH   2   4
ATOM      4  O   UNL     1       6.277   3.744   2.143  1.00  0.00    -0.481 OA
ATOM      5  H   UNL     1       5.552   4.261   2.646  1.00  0.00     0.296 HD
ENDBRANCH   2   4
ENDBRANCH   1   2
BRANCH   1   6
ATOM      6  C   UNL     1       4.889   1.845   0.881  1.00  0.00     0.047 C 
BRANCH   6   7
ATOM      7  C   UNL     1       5.692   0.625   0.924  1.00  0.00    -0.047 A 
ATOM      8  C   UNL     1       6.512   0.214  -0.097  1.00  0.00     0.004 A 
ATOM      9  C   UNL     1       5.633  -0.168   2.043  1.00  0.00     0.004 A 
ATOM     10  C   UNL     1       7.261  -0.937  -0.040  1.00  0.00     0.000 A 
ATOM     11  C   UNL     1       6.369  -1.327   2.134  1.00  0.00     0.000 A 
ATOM     12  C   UNL     1       7.197  -1.728   1.087  1.00  0.00     0.000 A 
ENDBRANCH   6   7
ENDBRANCH   1   6
TORSDOF 4
ENDMDL
