@<TRIPOS>MOLECULE
/home/cewinharhar/GITHUB/reincatalyze/data/processed/docking_pred/2023-Apr-25-2140_maxeplen10_maxtrainstep200_exh16_gamma099_lrac3e-4_lrcr1e-3/354626f0a3e222b5e9865005b72eb67019ec4e19_ligand_2.pdbqt
 12 12 0 0 0
SMALL
GASTEIGER

@<TRIPOS>ATOM
      1  C          5.0200    1.7560    0.6820 C.3     1  UNL1        0.1270
      2  C          4.5940    1.0430    1.9150 C.2     1  UNL1        0.3030
      3  O          5.2890    0.1730    2.4980 O.2     1  UNL1       -0.2520
      4  O          3.3590    1.3440    2.4690 O.3     1  UNL1       -0.4810
      5  H          2.9010    2.1870    2.1150 H       1  UNL1        0.2960
      6  C          6.5190    1.8280    0.6400 C.3     1  UNL1        0.0470
      7  C          7.1340    1.0150   -0.4060 C.2     1  UNL1       -0.0470
      8  C          6.4520    0.0830   -1.1490 C.2     1  UNL1        0.0040
      9  C          8.4700    1.1790   -0.6730 C.2     1  UNL1        0.0040
     10  C          7.0460   -0.6750   -2.1300 C.2     1  UNL1        0.0000
     11  C          9.0970    0.4380   -1.6480 C.2     1  UNL1        0.0000
     12  C          8.3880   -0.5040   -2.3930 C.2     1  UNL1        0.0000
@<TRIPOS>BOND
     1    12    10    2
     2    12    11    1
     3    10     8    1
     4    11     9    2
     5     8     7    2
     6     9     7    1
     7     7     6    1
     8     6     1    1
     9     1     2    1
    10     2     4    1
    11     2     3    2
    12     5     4    1
