@<TRIPOS>MOLECULE
/home/cewinharhar/GITHUB/reincatalyze/data/processed/docking_pred/2023-Apr-25-2140_maxeplen10_maxtrainstep200_exh16_gamma099_lrac3e-4_lrcr1e-3/354626f0a3e222b5e9865005b72eb67019ec4e19_ligand_2.pdbqt
 12 12 0 0 0
SMALL
GASTEIGER

@<TRIPOS>ATOM
      1  C          8.4210   -0.5360   -2.2610 C.3     1  UNL1        0.1270
      2  C          8.5030   -1.8590   -2.9330 C.2     1  UNL1        0.3030
      3  O          9.5700   -2.5080   -3.0750 O.2     1  UNL1       -0.2520
      4  O          7.3430   -2.4270   -3.4390 O.3     1  UNL1       -0.4810
      5  H          6.8280   -3.0380   -2.8000 H       1  UNL1        0.2960
      6  C          6.9890   -0.0930   -2.2040 C.3     1  UNL1        0.0470
      7  C          6.4670    0.0910   -0.8510 C.2     1  UNL1       -0.0470
      8  C          5.8330    1.2320   -0.4250 C.2     1  UNL1        0.0040
      9  C          6.6110   -0.9280    0.0580 C.2     1  UNL1        0.0040
     10  C          5.3480    1.3880    0.8520 C.2     1  UNL1        0.0000
     11  C          6.1390   -0.8050    1.3440 C.2     1  UNL1        0.0000
     12  C          5.4970    0.3610    1.7590 C.2     1  UNL1        0.0000
@<TRIPOS>BOND
     1     4     2    1
     2     4     5    1
     3     3     2    2
     4     2     1    1
     5     1     6    1
     6     6     7    1
     7     7     8    2
     8     7     9    1
     9     8    10    1
    10     9    11    2
    11    10    12    2
    12    11    12    1
