@<TRIPOS>MOLECULE
/home/cewinharhar/GITHUB/reincatalyze/data/processed/docking_pred/2023-Apr-25-2140_maxeplen10_maxtrainstep200_exh16_gamma099_lrac3e-4_lrcr1e-3/354626f0a3e222b5e9865005b72eb67019ec4e19_ligand_2.pdbqt
 12 12 0 0 0
SMALL
GASTEIGER

@<TRIPOS>ATOM
      1  C          5.4270    2.9100   -0.0270 C.3     1  UNL1        0.1270
      2  C          6.2570    3.8590    0.7610 C.2     1  UNL1        0.3030
      3  O          6.9510    4.7740    0.2500 O.2     1  UNL1       -0.2520
      4  O          6.2770    3.7440    2.1430 O.3     1  UNL1       -0.4810
      5  H          5.5520    4.2610    2.6460 H       1  UNL1        0.2960
      6  C          4.8890    1.8450    0.8810 C.3     1  UNL1        0.0470
      7  C          5.6920    0.6250    0.9240 C.2     1  UNL1       -0.0470
      8  C          6.5120    0.2140   -0.0970 C.2     1  UNL1        0.0040
      9  C          5.6330   -0.1680    2.0430 C.2     1  UNL1        0.0040
     10  C          7.2610   -0.9370   -0.0400 C.2     1  UNL1        0.0000
     11  C          6.3690   -1.3270    2.1340 C.2     1  UNL1        0.0000
     12  C          7.1970   -1.7280    1.0870 C.2     1  UNL1        0.0000
@<TRIPOS>BOND
     1     8    10    1
     2     8     7    2
     3    10    12    2
     4     1     2    1
     5     1     6    1
     6     3     2    2
     7     2     4    1
     8     6     7    1
     9     7     9    1
    10    12    11    1
    11     9    11    2
    12     4     5    1
