@<TRIPOS>MOLECULE
/home/cewinharhar/GITHUB/reincatalyze/data/processed/docking_pred/2023-Apr-25-2140_maxeplen10_maxtrainstep200_exh16_gamma099_lrac3e-4_lrcr1e-3/354626f0a3e222b5e9865005b72eb67019ec4e19_ligand_2.pdbqt
 12 12 0 0 0
SMALL
GASTEIGER

@<TRIPOS>ATOM
      1  C          8.4480   -0.5440   -2.2420 C.3     1  UNL1        0.1270
      2  C          8.5240   -1.8580   -2.9320 C.2     1  UNL1        0.3030
      3  O          9.5940   -2.4900   -3.1200 O.2     1  UNL1       -0.2520
      4  O          7.3550   -2.4380   -3.4020 O.3     1  UNL1       -0.4810
      5  H          7.4390   -2.9810   -4.2640 H       1  UNL1        0.2960
      6  C          7.0150   -0.1050   -2.1600 C.3     1  UNL1        0.0470
      7  C          6.4980    0.0160   -0.7990 C.2     1  UNL1       -0.0470
      8  C          6.6120   -0.9670    0.1520 C.2     1  UNL1        0.0040
      9  C          5.8570    1.1740   -0.4350 C.2     1  UNL1        0.0040
     10  C          6.1190   -0.8360    1.4290 C.2     1  UNL1        0.0000
     11  C          5.3510    1.3390    0.8330 C.2     1  UNL1        0.0000
     12  C          5.4770    0.3300    1.7860 C.2     1  UNL1        0.0000
@<TRIPOS>BOND
     1     5     4    1
     2     4     2    1
     3     3     2    2
     4     2     1    1
     5     1     6    1
     6     6     7    1
     7     7     9    2
     8     7     8    1
     9     9    11    1
    10     8    10    2
    11    11    12    2
    12    10    12    1
