@<TRIPOS>MOLECULE
/home/cewinharhar/GITHUB/reincatalyze/data/processed/docking_pred/2023-Apr-25-2140_maxeplen10_maxtrainstep200_exh16_gamma099_lrac3e-4_lrcr1e-3/37a8b72800122466266a4bb22cdda1f56f02b914_ligand_2.pdbqt
 12 12 0 0 0
SMALL
GASTEIGER

@<TRIPOS>ATOM
      1  C          8.4690   -0.6090   -2.1610 C.3     1  UNL1        0.1270
      2  C          8.5230   -1.8960   -2.9030 C.2     1  UNL1        0.3030
      3  O          9.5810   -2.5410   -3.1110 O.2     1  UNL1       -0.2520
      4  O          7.3450   -2.4320   -3.4010 O.3     1  UNL1       -0.4810
      5  H          7.2370   -3.4450   -3.3040 H       1  UNL1        0.2960
      6  C          7.0530   -0.1130   -2.1250 C.3     1  UNL1        0.0470
      7  C          6.4990    0.0340   -0.7810 C.2     1  UNL1       -0.0470
      8  C          6.5890   -0.9310    0.1920 C.2     1  UNL1        0.0040
      9  C          5.8460    1.1970   -0.4570 C.2     1  UNL1        0.0040
     10  C          6.0610   -0.7770    1.4510 C.2     1  UNL1        0.0000
     11  C          5.3050    1.3840    0.7940 C.2     1  UNL1        0.0000
     12  C          5.4060    0.3930    1.7690 C.2     1  UNL1        0.0000
@<TRIPOS>BOND
     1     4     5    1
     2     4     2    1
     3     3     2    2
     4     2     1    1
     5     1     6    1
     6     6     7    1
     7     7     9    2
     8     7     8    1
     9     9    11    1
    10     8    10    2
    11    11    12    2
    12    10    12    1
