@<TRIPOS>MOLECULE
/home/cewinharhar/GITHUB/reincatalyze/data/processed/docking_pred/2023-Apr-25-2140_maxeplen10_maxtrainstep200_exh16_gamma099_lrac3e-4_lrcr1e-3/37a8b72800122466266a4bb22cdda1f56f02b914_ligand_2.pdbqt
 12 12 0 0 0
SMALL
GASTEIGER

@<TRIPOS>ATOM
      1  C          8.3930   -0.5060   -2.2670 C.3     1  UNL1        0.1270
      2  C          8.4940   -1.8320   -2.9310 C.2     1  UNL1        0.3030
      3  O          9.5750   -2.4480   -3.1070 O.2     1  UNL1       -0.2520
      4  O          7.3350   -2.4420   -3.3900 O.3     1  UNL1       -0.4810
      5  H          7.3980   -3.4470   -3.5680 H       1  UNL1        0.2960
      6  C          6.9570   -0.0730   -2.2310 C.3     1  UNL1        0.0470
      7  C          6.4290    0.1570   -0.8880 C.2     1  UNL1       -0.0470
      8  C          5.8090    1.3190   -0.5000 C.2     1  UNL1        0.0040
      9  C          6.5530   -0.8360    0.0510 C.2     1  UNL1        0.0040
     10  C          5.3180    1.5190    0.7680 C.2     1  UNL1        0.0000
     11  C          6.0740   -0.6690    1.3300 C.2     1  UNL1        0.0000
     12  C          5.4470    0.5180    1.7060 C.2     1  UNL1        0.0000
@<TRIPOS>BOND
     1     5     4    1
     2     4     2    1
     3     3     2    2
     4     2     1    1
     5     1     6    1
     6     6     7    1
     7     7     8    2
     8     7     9    1
     9     8    10    1
    10     9    11    2
    11    10    12    2
    12    11    12    1
