@<TRIPOS>MOLECULE
/home/cewinharhar/GITHUB/reincatalyze/data/processed/docking_pred/2023-Apr-25-2140_maxeplen10_maxtrainstep200_exh16_gamma099_lrac3e-4_lrcr1e-3/37a8b72800122466266a4bb22cdda1f56f02b914_ligand_2.pdbqt
 12 12 0 0 0
SMALL
GASTEIGER

@<TRIPOS>ATOM
      1  C          5.3490    2.9140    0.0730 C.3     1  UNL1        0.1270
      2  C          6.2140    3.8730    0.8100 C.2     1  UNL1        0.3030
      3  O          6.8910    4.7750    0.2550 O.2     1  UNL1       -0.2520
      4  O          6.2900    3.7820    2.1920 O.3     1  UNL1       -0.4810
      5  H          5.4880    4.1490    2.7100 H       1  UNL1        0.2960
      6  C          5.3620    1.5880    0.7760 C.3     1  UNL1        0.0470
      7  C          6.0990    0.5400    0.0740 C.2     1  UNL1       -0.0470
      8  C          6.3620    0.5620   -1.2740 C.2     1  UNL1        0.0040
      9  C          6.5630   -0.5360    0.7890 C.2     1  UNL1        0.0040
     10  C          7.0570   -0.4330   -1.9180 C.2     1  UNL1        0.0000
     11  C          7.2620   -1.5500    0.1760 C.2     1  UNL1        0.0000
     12  C          7.5190   -1.5100   -1.1930 C.2     1  UNL1        0.0000
@<TRIPOS>BOND
     1    10     8    1
     2    10    12    2
     3     8     7    2
     4    12    11    1
     5     1     6    1
     6     1     2    1
     7     7     6    1
     8     7     9    1
     9    11     9    2
    10     3     2    2
    11     2     4    1
    12     4     5    1
