MODEL 1
REMARK VINA RESULT:      -7.4      0.000      0.000
REMARK SMILES O=C(O)CCc1ccccc1
REMARK SMILES IDX 4 1 2 2 1 3 3 4 5 6 6 7 7 8 11 9 8 10 10 11 9 12
REMARK H PARENT 3 5
REMARK Flexibility Score: inf
ROOT
ATOM      1  C   UNL     1       8.469  -0.609  -2.161  1.00  0.00     0.127 C 
ENDROOT
BRANCH   1   2
ATOM      2  C   UNL     1       8.523  -1.896  -2.903  1.00  0.00     0.303 C 
ATOM      3  O   UNL     1       9.581  -2.541  -3.111  1.00  0.00    -0.252 OA
BRANCH   2   4
ATOM      4  O   UNL     1       7.345  -2.432  -3.401  1.00  0.00    -0.481 OA
ATOM      5  H   UNL     1       7.237  -3.445  -3.304  1.00  0.00     0.296 HD
ENDBRANCH   2   4
ENDBRANCH   1   2
BRANCH   1   6
ATOM      6  C   UNL     1       7.053  -0.113  -2.125  1.00  0.00     0.047 C 
BRANCH   6   7
ATOM      7  C   UNL     1       6.499   0.034  -0.781  1.00  0.00    -0.047 A 
ATOM      8  C   UNL     1       6.589  -0.931   0.192  1.00  0.00     0.004 A 
ATOM      9  C   UNL     1       5.846   1.197  -0.457  1.00  0.00     0.004 A 
ATOM     10  C   UNL     1       6.061  -0.777   1.451  1.00  0.00     0.000 A 
ATOM     11  C   UNL     1       5.305   1.384   0.794  1.00  0.00     0.000 A 
ATOM     12  C   UNL     1       5.406   0.393   1.769  1.00  0.00     0.000 A 
ENDBRANCH   6   7
ENDBRANCH   1   6
TORSDOF 4
ENDMDL
MODEL 2
REMARK VINA RESULT:      -7.3      0.139      1.432
REMARK SMILES O=C(O)CCc1ccccc1
REMARK SMILES IDX 4 1 2 2 1 3 3 4 5 6 6 7 7 8 11 9 8 10 10 11 9 12
REMARK H PARENT 3 5
REMARK Flexibility Score: inf
ROOT
ATOM      1  C   UNL     1       8.393  -0.506  -2.267  1.00  0.00     0.127 C 
ENDROOT
BRANCH   1   2
ATOM      2  C   UNL     1       8.494  -1.832  -2.931  1.00  0.00     0.303 C 
ATOM      3  O   UNL     1       9.575  -2.448  -3.107  1.00  0.00    -0.252 OA
BRANCH   2   4
ATOM      4  O   UNL     1       7.335  -2.442  -3.390  1.00  0.00    -0.481 OA
ATOM      5  H   UNL     1       7.398  -3.447  -3.568  1.00  0.00     0.296 HD
ENDBRANCH   2   4
ENDBRANCH   1   2
BRANCH   1   6
ATOM      6  C   UNL     1       6.957  -0.073  -2.231  1.00  0.00     0.047 C 
BRANCH   6   7
ATOM      7  C   UNL     1       6.429   0.157  -0.888  1.00  0.00    -0.047 A 
ATOM      8  C   UNL     1       5.809   1.319  -0.500  1.00  0.00     0.004 A 
ATOM      9  C   UNL     1       6.553  -0.836   0.051  1.00  0.00     0.004 A 
ATOM     10  C   UNL     1       5.318   1.519   0.768  1.00  0.00     0.000 A 
ATOM     11  C   UNL     1       6.074  -0.669   1.330  1.00  0.00     0.000 A 
ATOM     12  C   UNL     1       5.447   0.518   1.706  1.00  0.00     0.000 A 
ENDBRANCH   6   7
ENDBRANCH   1   6
TORSDOF 4
ENDMDL
MODEL 3
REMARK VINA RESULT:      -6.8      1.032      1.604
REMARK SMILES O=C(O)CCc1ccccc1
REMARK SMILES IDX 4 1 2 2 1 3 3 4 5 6 6 7 7 8 11 9 8 10 10 11 9 12
REMARK H PARENT 3 5
REMARK Flexibility Score: inf
ROOT
ATOM      1  C   UNL     1       7.336  -1.424  -2.101  1.00  0.00     0.127 C 
ENDROOT
BRANCH   1   2
ATOM      2  C   UNL     1       8.768  -1.421  -2.498  1.00  0.00     0.303 C 
ATOM      3  O   UNL     1       9.304  -2.318  -3.198  1.00  0.00    -0.252 OA
BRANCH   2   4
ATOM      4  O   UNL     1       9.577  -0.374  -2.082  1.00  0.00    -0.481 OA
ATOM      5  H   UNL     1      10.470  -0.638  -1.661  1.00  0.00     0.296 HD
ENDBRANCH   2   4
ENDBRANCH   1   2
BRANCH   1   6
ATOM      6  C   UNL     1       7.233  -1.421  -0.604  1.00  0.00     0.047 C 
BRANCH   6   7
ATOM      7  C   UNL     1       6.450  -0.316  -0.055  1.00  0.00    -0.047 A 
ATOM      8  C   UNL     1       5.945  -0.297   1.221  1.00  0.00     0.004 A 
ATOM      9  C   UNL     1       6.196   0.774  -0.850  1.00  0.00     0.004 A 
ATOM     10  C   UNL     1       5.210   0.751   1.722  1.00  0.00     0.000 A 
ATOM     11  C   UNL     1       5.463   1.841  -0.382  1.00  0.00     0.000 A 
ATOM     12  C   UNL     1       4.959   1.842   0.918  1.00  0.00     0.000 A 
ENDBRANCH   6   7
ENDBRANCH   1   6
TORSDOF 4
ENDMDL
MODEL 4
REMARK VINA RESULT:      -6.7      3.340      5.043
REMARK SMILES O=C(O)CCc1ccccc1
REMARK SMILES IDX 4 1 2 2 1 3 3 4 5 6 6 7 7 8 11 9 8 10 10 11 9 12
REMARK H PARENT 3 5
REMARK Flexibility Score: inf
ROOT
ATOM      1  C   UNL     1       5.042   1.753   0.729  1.00  0.00     0.127 C 
ENDROOT
BRANCH   1   2
ATOM      2  C   UNL     1       4.584   1.021   1.938  1.00  0.00     0.303 C 
ATOM      3  O   UNL     1       5.253   0.123   2.510  1.00  0.00    -0.252 OA
BRANCH   2   4
ATOM      4  O   UNL     1       3.348   1.334   2.484  1.00  0.00    -0.481 OA
ATOM      5  H   UNL     1       3.349   2.047   3.217  1.00  0.00     0.296 HD
ENDBRANCH   2   4
ENDBRANCH   1   2
BRANCH   1   6
ATOM      6  C   UNL     1       6.542   1.782   0.701  1.00  0.00     0.047 C 
BRANCH   6   7
ATOM      7  C   UNL     1       7.142   0.989  -0.369  1.00  0.00    -0.047 A 
ATOM      8  C   UNL     1       6.466   0.025  -1.076  1.00  0.00     0.004 A 
ATOM      9  C   UNL     1       8.457   1.208  -0.698  1.00  0.00     0.004 A 
ATOM     10  C   UNL     1       7.046  -0.712  -2.081  1.00  0.00     0.000 A 
ATOM     11  C   UNL     1       9.069   0.487  -1.698  1.00  0.00     0.000 A 
ATOM     12  C   UNL     1       8.367  -0.487  -2.405  1.00  0.00     0.000 A 
ENDBRANCH   6   7
ENDBRANCH   1   6
TORSDOF 4
ENDMDL
MODEL 5
REMARK VINA RESULT:      -6.5      3.716      5.131
REMARK SMILES O=C(O)CCc1ccccc1
REMARK SMILES IDX 4 1 2 2 1 3 3 4 5 6 6 7 7 8 11 9 8 10 10 11 9 12
REMARK H PARENT 3 5
REMARK Flexibility Score: inf
ROOT
ATOM      1  C   UNL     1       5.349   2.914   0.073  1.00  0.00     0.127 C 
ENDROOT
BRANCH   1   2
ATOM      2  C   UNL     1       6.214   3.873   0.810  1.00  0.00     0.303 C 
ATOM      3  O   UNL     1       6.891   4.775   0.255  1.00  0.00    -0.252 OA
BRANCH   2   4
ATOM      4  O   UNL     1       6.290   3.782   2.192  1.00  0.00    -0.481 OA
ATOM      5  H   UNL     1       5.488   4.149   2.710  1.00  0.00     0.296 HD
ENDBRANCH   2   4
ENDBRANCH   1   2
BRANCH   1   6
ATOM      6  C   UNL     1       5.362   1.588   0.776  1.00  0.00     0.047 C 
BRANCH   6   7
ATOM      7  C   UNL     1       6.099   0.540   0.074  1.00  0.00    -0.047 A 
ATOM      8  C   UNL     1       6.362   0.562  -1.274  1.00  0.00     0.004 A 
ATOM      9  C   UNL     1       6.563  -0.536   0.789  1.00  0.00     0.004 A 
ATOM     10  C   UNL     1       7.057  -0.433  -1.918  1.00  0.00     0.000 A 
ATOM     11  C   UNL     1       7.262  -1.550   0.176  1.00  0.00     0.000 A 
ATOM     12  C   UNL     1       7.519  -1.510  -1.193  1.00  0.00     0.000 A 
ENDBRANCH   6   7
ENDBRANCH   1   6
TORSDOF 4
ENDMDL
