@<TRIPOS>MOLECULE
/home/cewinharhar/GITHUB/reincatalyze/data/processed/docking_pred/2023-Apr-25-2140_maxeplen10_maxtrainstep200_exh16_gamma099_lrac3e-4_lrcr1e-3/37a8b72800122466266a4bb22cdda1f56f02b914_ligand_2.pdbqt
 12 12 0 0 0
SMALL
GASTEIGER

@<TRIPOS>ATOM
      1  C          5.0420    1.7530    0.7290 C.3     1  UNL1        0.1270
      2  C          4.5840    1.0210    1.9380 C.2     1  UNL1        0.3030
      3  O          5.2530    0.1230    2.5100 O.2     1  UNL1       -0.2520
      4  O          3.3480    1.3340    2.4840 O.3     1  UNL1       -0.4810
      5  H          3.3490    2.0470    3.2170 H       1  UNL1        0.2960
      6  C          6.5420    1.7820    0.7010 C.3     1  UNL1        0.0470
      7  C          7.1420    0.9890   -0.3690 C.2     1  UNL1       -0.0470
      8  C          6.4660    0.0250   -1.0760 C.2     1  UNL1        0.0040
      9  C          8.4570    1.2080   -0.6980 C.2     1  UNL1        0.0040
     10  C          7.0460   -0.7120   -2.0810 C.2     1  UNL1        0.0000
     11  C          9.0690    0.4870   -1.6980 C.2     1  UNL1        0.0000
     12  C          8.3670   -0.4870   -2.4050 C.2     1  UNL1        0.0000
@<TRIPOS>BOND
     1    12    10    2
     2    12    11    1
     3    10     8    1
     4    11     9    2
     5     8     7    2
     6     9     7    1
     7     7     6    1
     8     6     1    1
     9     1     2    1
    10     2     4    1
    11     2     3    2
    12     4     5    1
