@<TRIPOS>MOLECULE
/home/cewinharhar/GITHUB/reincatalyze/data/processed/docking_pred/2023-Apr-25-2140_maxeplen10_maxtrainstep200_exh16_gamma099_lrac3e-4_lrcr1e-3/37a8b72800122466266a4bb22cdda1f56f02b914_ligand_2.pdbqt
 12 12 0 0 0
SMALL
GASTEIGER

@<TRIPOS>ATOM
      1  C          7.3360   -1.4240   -2.1010 C.3     1  UNL1        0.1270
      2  C          8.7680   -1.4210   -2.4980 C.2     1  UNL1        0.3030
      3  O          9.3040   -2.3180   -3.1980 O.2     1  UNL1       -0.2520
      4  O          9.5770   -0.3740   -2.0820 O.3     1  UNL1       -0.4810
      5  H         10.4700   -0.6380   -1.6610 H       1  UNL1        0.2960
      6  C          7.2330   -1.4210   -0.6040 C.3     1  UNL1        0.0470
      7  C          6.4500   -0.3160   -0.0550 C.2     1  UNL1       -0.0470
      8  C          5.9450   -0.2970    1.2210 C.2     1  UNL1        0.0040
      9  C          6.1960    0.7740   -0.8500 C.2     1  UNL1        0.0040
     10  C          5.2100    0.7510    1.7220 C.2     1  UNL1        0.0000
     11  C          5.4630    1.8410   -0.3820 C.2     1  UNL1        0.0000
     12  C          4.9590    1.8420    0.9180 C.2     1  UNL1        0.0000
@<TRIPOS>BOND
     1     3     2    2
     2     2     1    1
     3     2     4    1
     4     1     6    1
     5     4     5    1
     6     9    11    1
     7     9     7    2
     8     6     7    1
     9    11    12    2
    10     7     8    1
    11    12    10    1
    12     8    10    2
