@<TRIPOS>MOLECULE
/home/cewinharhar/GITHUB/reincatalyze/data/processed/docking_pred/2023-Apr-25-2140_maxeplen10_maxtrainstep200_exh16_gamma099_lrac3e-4_lrcr1e-3/3b11ad51370e6150fddf32b3aa65dd5e24197163_ligand_2.pdbqt
 12 12 0 0 0
SMALL
GASTEIGER

@<TRIPOS>ATOM
      1  C          5.0850    1.7980    0.7170 C.3     1  UNL1        0.1270
      2  C          4.6350    1.1880    1.9950 C.2     1  UNL1        0.3030
      3  O          3.5820    1.5170    2.5970 O.2     1  UNL1       -0.2520
      4  O          5.4100    0.1930    2.5730 O.3     1  UNL1       -0.4810
      5  H          4.9140   -0.4720    3.1700 H       1  UNL1        0.2960
      6  C          6.5850    1.8580    0.6920 C.3     1  UNL1        0.0470
      7  C          7.2030    1.0760   -0.3760 C.2     1  UNL1       -0.0470
      8  C          8.5190    1.1970   -0.7480 C.2     1  UNL1        0.0040
      9  C          6.4360    0.1640   -1.0580 C.2     1  UNL1        0.0040
     10  C          9.0850    0.4540   -1.7560 C.2     1  UNL1        0.0000
     11  C          6.9690   -0.5960   -2.0740 C.2     1  UNL1        0.0000
     12  C          8.3080   -0.4600   -2.4370 C.2     1  UNL1        0.0000
@<TRIPOS>BOND
     1    12    11    2
     2    12    10    1
     3    11     9    1
     4    10     8    2
     5     9     7    2
     6     8     7    1
     7     7     6    1
     8     6     1    1
     9     1     2    1
    10     2     4    1
    11     2     3    2
    12     4     5    1
