@<TRIPOS>MOLECULE
/home/cewinharhar/GITHUB/reincatalyze/data/processed/docking_pred/2023-Apr-25-2140_maxeplen10_maxtrainstep200_exh16_gamma099_lrac3e-4_lrcr1e-3/3b11ad51370e6150fddf32b3aa65dd5e24197163_ligand_2.pdbqt
 12 12 0 0 0
SMALL
GASTEIGER

@<TRIPOS>ATOM
      1  C          8.4510    0.4950   -1.8680 C.3     1  UNL1        0.1270
      2  C          9.1090   -0.0890   -3.0660 C.2     1  UNL1        0.3030
      3  O          9.9900   -0.9840   -3.0150 O.2     1  UNL1       -0.2520
      4  O          8.7430    0.3680   -4.3220 O.3     1  UNL1       -0.4810
      5  H          8.0080    1.0790   -4.3440 H       1  UNL1        0.2960
      6  C          7.0580   -0.0510   -1.7480 C.3     1  UNL1        0.0470
      7  C          6.3400    0.3830   -0.5520 C.2     1  UNL1       -0.0470
      8  C          5.6340    1.5580   -0.4690 C.2     1  UNL1        0.0040
      9  C          6.3640   -0.4180    0.5630 C.2     1  UNL1        0.0040
     10  C          4.9640    1.9520    0.6640 C.2     1  UNL1        0.0000
     11  C          5.7050   -0.0540    1.7150 C.2     1  UNL1        0.0000
     12  C          4.9930    1.1420    1.7790 C.2     1  UNL1        0.0000
@<TRIPOS>BOND
     1     5     4    1
     2     4     2    1
     3     2     3    2
     4     2     1    1
     5     1     6    1
     6     6     7    1
     7     7     8    2
     8     7     9    1
     9     8    10    1
    10     9    11    2
    11    10    12    2
    12    11    12    1
