@<TRIPOS>MOLECULE
/home/cewinharhar/GITHUB/reincatalyze/data/processed/docking_pred/2023-Apr-25-2140_maxeplen10_maxtrainstep200_exh16_gamma099_lrac3e-4_lrcr1e-3/3b11ad51370e6150fddf32b3aa65dd5e24197163_ligand_2.pdbqt
 12 12 0 0 0
SMALL
GASTEIGER

@<TRIPOS>ATOM
      1  C          5.0850    1.7970    0.7320 C.3     1  UNL1        0.1270
      2  C          4.6790    1.1040    1.9830 C.2     1  UNL1        0.3030
      3  O          5.3230    0.1550    2.4990 O.2     1  UNL1       -0.2520
      4  O          3.5260    1.5150    2.6330 O.3     1  UNL1       -0.4810
      5  H          2.8030    0.8020    2.7580 H       1  UNL1        0.2960
      6  C          6.5830    1.8540    0.6560 C.3     1  UNL1        0.0470
      7  C          7.1650    1.0280   -0.3990 C.2     1  UNL1       -0.0470
      8  C          6.4630    0.0810   -1.1040 C.2     1  UNL1        0.0040
      9  C          8.4910    1.1950   -0.7150 C.2     1  UNL1        0.0040
     10  C          7.0270   -0.6880   -2.0940 C.2     1  UNL1        0.0000
     11  C          9.0880    0.4420   -1.6990 C.2     1  UNL1        0.0000
     12  C          8.3590   -0.5140   -2.4050 C.2     1  UNL1        0.0000
@<TRIPOS>BOND
     1    12    10    2
     2    12    11    1
     3    10     8    1
     4    11     9    2
     5     8     7    2
     6     9     7    1
     7     7     6    1
     8     6     1    1
     9     1     2    1
    10     2     3    2
    11     2     4    1
    12     4     5    1
