@<TRIPOS>MOLECULE
/home/cewinharhar/GITHUB/reincatalyze/data/processed/docking_pred/2023-Apr-25-2140_maxeplen10_maxtrainstep200_exh16_gamma099_lrac3e-4_lrcr1e-3/3b11ad51370e6150fddf32b3aa65dd5e24197163_ligand_2.pdbqt
 12 12 0 0 0
SMALL
GASTEIGER

@<TRIPOS>ATOM
      1  C          6.9330   -1.1870   -2.1700 C.3     1  UNL1        0.1270
      2  C          8.1520   -2.0340   -2.1050 C.2     1  UNL1        0.3030
      3  O          9.1550   -1.8800   -2.8480 O.2     1  UNL1       -0.2520
      4  O          8.2060   -3.0620   -1.1750 O.3     1  UNL1       -0.4810
      5  H          7.9460   -2.8130   -0.2170 H       1  UNL1        0.2960
      6  C          7.2180    0.1470   -1.5440 C.3     1  UNL1        0.0470
      7  C          6.4250    0.4360   -0.3510 C.2     1  UNL1       -0.0470
      8  C          6.3480   -0.4000    0.7360 C.2     1  UNL1        0.0040
      9  C          5.7090    1.6060   -0.3000 C.2     1  UNL1        0.0040
     10  C          5.5960   -0.1120    1.8500 C.2     1  UNL1        0.0000
     11  C          4.9450    1.9250    0.7990 C.2     1  UNL1        0.0000
     12  C          4.8790    1.0640    1.8940 C.2     1  UNL1        0.0000
@<TRIPOS>BOND
     1     3     2    2
     2     1     2    1
     3     1     6    1
     4     2     4    1
     5     6     7    1
     6     4     5    1
     7     7     9    2
     8     7     8    1
     9     9    11    1
    10     8    10    2
    11    11    12    2
    12    10    12    1
