MODEL 1
REMARK VINA RESULT:      -6.8      0.000      0.000
REMARK SMILES O=C(O)CCc1ccccc1
REMARK SMILES IDX 4 1 2 2 1 3 3 4 5 6 6 7 7 8 11 9 8 10 10 11 9 12
REMARK H PARENT 3 5
REMARK Flexibility Score: inf
ROOT
ATOM      1  C   UNL     1       8.451   0.495  -1.868  1.00  0.00     0.127 C 
ENDROOT
BRANCH   1   2
ATOM      2  C   UNL     1       9.109  -0.089  -3.066  1.00  0.00     0.303 C 
ATOM      3  O   UNL     1       9.990  -0.984  -3.015  1.00  0.00    -0.252 OA
BRANCH   2   4
ATOM      4  O   UNL     1       8.743   0.368  -4.322  1.00  0.00    -0.481 OA
ATOM      5  H   UNL     1       8.008   1.079  -4.344  1.00  0.00     0.296 HD
ENDBRANCH   2   4
ENDBRANCH   1   2
BRANCH   1   6
ATOM      6  C   UNL     1       7.058  -0.051  -1.748  1.00  0.00     0.047 C 
BRANCH   6   7
ATOM      7  C   UNL     1       6.340   0.383  -0.552  1.00  0.00    -0.047 A 
ATOM      8  C   UNL     1       5.634   1.558  -0.469  1.00  0.00     0.004 A 
ATOM      9  C   UNL     1       6.364  -0.418   0.563  1.00  0.00     0.004 A 
ATOM     10  C   UNL     1       4.964   1.952   0.664  1.00  0.00     0.000 A 
ATOM     11  C   UNL     1       5.705  -0.054   1.715  1.00  0.00     0.000 A 
ATOM     12  C   UNL     1       4.993   1.142   1.779  1.00  0.00     0.000 A 
ENDBRANCH   6   7
ENDBRANCH   1   6
TORSDOF 4
ENDMDL
MODEL 2
REMARK VINA RESULT:      -6.8      0.153      1.432
REMARK SMILES O=C(O)CCc1ccccc1
REMARK SMILES IDX 4 1 2 2 1 3 3 4 5 6 6 7 7 8 11 9 8 10 10 11 9 12
REMARK H PARENT 3 5
REMARK Flexibility Score: inf
ROOT
ATOM      1  C   UNL     1       8.388   0.421  -1.944  1.00  0.00     0.127 C 
ENDROOT
BRANCH   1   2
ATOM      2  C   UNL     1       9.026  -0.249  -3.106  1.00  0.00     0.303 C 
ATOM      3  O   UNL     1       9.782  -1.249  -3.011  1.00  0.00    -0.252 OA
BRANCH   2   4
ATOM      4  O   UNL     1       8.784   0.244  -4.380  1.00  0.00    -0.481 OA
ATOM      5  H   UNL     1       8.513   1.228  -4.436  1.00  0.00     0.296 HD
ENDBRANCH   2   4
ENDBRANCH   1   2
BRANCH   1   6
ATOM      6  C   UNL     1       6.964  -0.037  -1.823  1.00  0.00     0.047 C 
BRANCH   6   7
ATOM      7  C   UNL     1       6.301   0.374  -0.587  1.00  0.00    -0.047 A 
ATOM      8  C   UNL     1       6.264  -0.392   0.551  1.00  0.00     0.004 A 
ATOM      9  C   UNL     1       5.672   1.594  -0.547  1.00  0.00     0.004 A 
ATOM     10  C   UNL     1       5.634   0.010   1.706  1.00  0.00     0.000 A 
ATOM     11  C   UNL     1       5.032   2.028   0.591  1.00  0.00     0.000 A 
ATOM     12  C   UNL     1       5.006   1.236   1.738  1.00  0.00     0.000 A 
ENDBRANCH   6   7
ENDBRANCH   1   6
TORSDOF 4
ENDMDL
MODEL 3
REMARK VINA RESULT:      -6.8      3.546      5.163
REMARK SMILES O=C(O)CCc1ccccc1
REMARK SMILES IDX 4 1 2 2 1 3 3 4 5 6 6 7 7 8 11 9 8 10 10 11 9 12
REMARK H PARENT 3 5
REMARK Flexibility Score: inf
ROOT
ATOM      1  C   UNL     1       5.085   1.797   0.732  1.00  0.00     0.127 C 
ENDROOT
BRANCH   1   2
ATOM      2  C   UNL     1       4.679   1.104   1.983  1.00  0.00     0.303 C 
ATOM      3  O   UNL     1       5.323   0.155   2.499  1.00  0.00    -0.252 OA
BRANCH   2   4
ATOM      4  O   UNL     1       3.526   1.515   2.633  1.00  0.00    -0.481 OA
ATOM      5  H   UNL     1       2.803   0.802   2.758  1.00  0.00     0.296 HD
ENDBRANCH   2   4
ENDBRANCH   1   2
BRANCH   1   6
ATOM      6  C   UNL     1       6.583   1.854   0.656  1.00  0.00     0.047 C 
BRANCH   6   7
ATOM      7  C   UNL     1       7.165   1.028  -0.399  1.00  0.00    -0.047 A 
ATOM      8  C   UNL     1       6.463   0.081  -1.104  1.00  0.00     0.004 A 
ATOM      9  C   UNL     1       8.491   1.195  -0.715  1.00  0.00     0.004 A 
ATOM     10  C   UNL     1       7.027  -0.688  -2.094  1.00  0.00     0.000 A 
ATOM     11  C   UNL     1       9.088   0.442  -1.699  1.00  0.00     0.000 A 
ATOM     12  C   UNL     1       8.359  -0.514  -2.405  1.00  0.00     0.000 A 
ENDBRANCH   6   7
ENDBRANCH   1   6
TORSDOF 4
ENDMDL
MODEL 4
REMARK VINA RESULT:      -6.8      3.533      5.220
REMARK SMILES O=C(O)CCc1ccccc1
REMARK SMILES IDX 4 1 2 2 1 3 3 4 5 6 6 7 7 8 11 9 8 10 10 11 9 12
REMARK H PARENT 3 5
REMARK Flexibility Score: inf
ROOT
ATOM      1  C   UNL     1       5.085   1.798   0.717  1.00  0.00     0.127 C 
ENDROOT
BRANCH   1   2
ATOM      2  C   UNL     1       4.635   1.188   1.995  1.00  0.00     0.303 C 
ATOM      3  O   UNL     1       3.582   1.517   2.597  1.00  0.00    -0.252 OA
BRANCH   2   4
ATOM      4  O   UNL     1       5.410   0.193   2.573  1.00  0.00    -0.481 OA
ATOM      5  H   UNL     1       4.914  -0.472   3.170  1.00  0.00     0.296 HD
ENDBRANCH   2   4
ENDBRANCH   1   2
BRANCH   1   6
ATOM      6  C   UNL     1       6.585   1.858   0.692  1.00  0.00     0.047 C 
BRANCH   6   7
ATOM      7  C   UNL     1       7.203   1.076  -0.376  1.00  0.00    -0.047 A 
ATOM      8  C   UNL     1       8.519   1.197  -0.748  1.00  0.00     0.004 A 
ATOM      9  C   UNL     1       6.436   0.164  -1.058  1.00  0.00     0.004 A 
ATOM     10  C   UNL     1       9.085   0.454  -1.756  1.00  0.00     0.000 A 
ATOM     11  C   UNL     1       6.969  -0.596  -2.074  1.00  0.00     0.000 A 
ATOM     12  C   UNL     1       8.308  -0.460  -2.437  1.00  0.00     0.000 A 
ENDBRANCH   6   7
ENDBRANCH   1   6
TORSDOF 4
ENDMDL
MODEL 5
REMARK VINA RESULT:      -6.7      1.330      2.276
REMARK SMILES O=C(O)CCc1ccccc1
REMARK SMILES IDX 4 1 2 2 1 3 3 4 5 6 6 7 7 8 11 9 8 10 10 11 9 12
REMARK H PARENT 3 5
REMARK Flexibility Score: inf
ROOT
ATOM      1  C   UNL     1       6.933  -1.187  -2.170  1.00  0.00     0.127 C 
ENDROOT
BRANCH   1   2
ATOM      2  C   UNL     1       8.152  -2.034  -2.105  1.00  0.00     0.303 C 
ATOM      3  O   UNL     1       9.155  -1.880  -2.848  1.00  0.00    -0.252 OA
BRANCH   2   4
ATOM      4  O   UNL     1       8.206  -3.062  -1.175  1.00  0.00    -0.481 OA
ATOM      5  H   UNL     1       7.946  -2.813  -0.217  1.00  0.00     0.296 HD
ENDBRANCH   2   4
ENDBRANCH   1   2
BRANCH   1   6
ATOM      6  C   UNL     1       7.218   0.147  -1.544  1.00  0.00     0.047 C 
BRANCH   6   7
ATOM      7  C   UNL     1       6.425   0.436  -0.351  1.00  0.00    -0.047 A 
ATOM      8  C   UNL     1       6.348  -0.400   0.736  1.00  0.00     0.004 A 
ATOM      9  C   UNL     1       5.709   1.606  -0.300  1.00  0.00     0.004 A 
ATOM     10  C   UNL     1       5.596  -0.112   1.850  1.00  0.00     0.000 A 
ATOM     11  C   UNL     1       4.945   1.925   0.799  1.00  0.00     0.000 A 
ATOM     12  C   UNL     1       4.879   1.064   1.894  1.00  0.00     0.000 A 
ENDBRANCH   6   7
ENDBRANCH   1   6
TORSDOF 4
ENDMDL
