@<TRIPOS>MOLECULE
/home/cewinharhar/GITHUB/reincatalyze/data/processed/docking_pred/2023-Apr-25-2140_maxeplen10_maxtrainstep200_exh16_gamma099_lrac3e-4_lrcr1e-3/3b29dc4ebb7ee5049f43ecb42d98a580ffb6b5da_ligand_2.pdbqt
 12 12 0 0 0
SMALL
GASTEIGER

@<TRIPOS>ATOM
      1  C          8.4180   -0.6290   -2.1170 C.3     1  UNL1        0.1270
      2  C          8.3660   -1.8910   -2.9010 C.2     1  UNL1        0.3030
      3  O          7.3000   -2.4400   -3.2760 O.2     1  UNL1       -0.2520
      4  O          9.5560   -2.5130   -3.2500 O.3     1  UNL1       -0.4810
      5  H          9.9180   -3.1960   -2.5810 H       1  UNL1        0.2960
      6  C          7.0580    0.0020   -2.0960 C.3     1  UNL1        0.0470
      7  C          6.4780    0.1450   -0.7630 C.2     1  UNL1       -0.0470
      8  C          5.8040    1.2630   -0.3380 C.2     1  UNL1        0.0040
      9  C          6.6080   -0.8900    0.1300 C.2     1  UNL1        0.0040
     10  C          5.2650    1.3810    0.9210 C.2     1  UNL1        0.0000
     11  C          6.0820   -0.8060    1.3980 C.2     1  UNL1        0.0000
     12  C          5.4000    0.3380    1.8110 C.2     1  UNL1        0.0000
@<TRIPOS>BOND
     1     3     2    2
     2     4     2    1
     3     4     5    1
     4     2     1    1
     5     1     6    1
     6     6     7    1
     7     7     8    2
     8     7     9    1
     9     8    10    1
    10     9    11    2
    11    10    12    2
    12    11    12    1
