@<TRIPOS>MOLECULE
/home/cewinharhar/GITHUB/reincatalyze/data/processed/docking_pred/2023-Apr-25-2140_maxeplen10_maxtrainstep200_exh16_gamma099_lrac3e-4_lrcr1e-3/3b29dc4ebb7ee5049f43ecb42d98a580ffb6b5da_ligand_2.pdbqt
 12 12 0 0 0
SMALL
GASTEIGER

@<TRIPOS>ATOM
      1  C          7.2870   -1.2970   -2.1340 C.3     1  UNL1        0.1270
      2  C          8.7300   -1.3810   -2.4790 C.2     1  UNL1        0.3030
      3  O          9.2350   -2.3070   -3.1640 O.2     1  UNL1       -0.2520
      4  O          9.5870   -0.3880   -2.0290 O.3     1  UNL1       -0.4810
      5  H          9.1880    0.5520   -1.9630 H       1  UNL1        0.2960
      6  C          7.1250   -1.3760   -0.6440 C.3     1  UNL1        0.0470
      7  C          6.3680   -0.2710   -0.0600 C.2     1  UNL1       -0.0470
      8  C          5.8660   -0.2800    1.2180 C.2     1  UNL1        0.0040
      9  C          6.1380    0.8490   -0.8200 C.2     1  UNL1        0.0040
     10  C          5.1560    0.7680    1.7520 C.2     1  UNL1        0.0000
     11  C          5.4300    1.9160   -0.3180 C.2     1  UNL1        0.0000
     12  C          4.9280    1.8890    0.9830 C.2     1  UNL1        0.0000
@<TRIPOS>BOND
     1     3     2    2
     2     2     1    1
     3     2     4    1
     4     1     6    1
     5     4     5    1
     6     9    11    1
     7     9     7    2
     8     6     7    1
     9    11    12    2
    10     7     8    1
    11    12    10    1
    12     8    10    2
