@<TRIPOS>MOLECULE
/home/cewinharhar/GITHUB/reincatalyze/data/processed/docking_pred/2023-Apr-25-2140_maxeplen10_maxtrainstep200_exh16_gamma099_lrac3e-4_lrcr1e-3/3b29dc4ebb7ee5049f43ecb42d98a580ffb6b5da_ligand_2.pdbqt
 12 12 0 0 0
SMALL
GASTEIGER

@<TRIPOS>ATOM
      1  C          5.0000    1.8250    0.6990 C.3     1  UNL1        0.1270
      2  C          4.5170    1.1050    1.9060 C.2     1  UNL1        0.3030
      3  O          5.1610    0.1940    2.4840 O.2     1  UNL1       -0.2520
      4  O          3.2830    1.4460    2.4410 O.3     1  UNL1       -0.4810
      5  H          2.5820    0.7030    2.4600 H       1  UNL1        0.2960
      6  C          6.5000    1.8420    0.6950 C.3     1  UNL1        0.0470
      7  C          7.1110    1.0420   -0.3640 C.2     1  UNL1       -0.0470
      8  C          6.4320    0.1020   -1.0990 C.2     1  UNL1        0.0040
      9  C          8.4400    1.2270   -0.6510 C.2     1  UNL1        0.0040
     10  C          7.0220   -0.6430   -2.0920 C.2     1  UNL1        0.0000
     11  C          9.0630    0.4980   -1.6380 C.2     1  UNL1        0.0000
     12  C          8.3570   -0.4510   -2.3750 C.2     1  UNL1        0.0000
@<TRIPOS>BOND
     1    12    10    2
     2    12    11    1
     3    10     8    1
     4    11     9    2
     5     8     7    2
     6     9     7    1
     7     7     6    1
     8     6     1    1
     9     1     2    1
    10     2     4    1
    11     2     3    2
    12     4     5    1
