MODEL 1
REMARK VINA RESULT:      -7.3      0.000      0.000
REMARK SMILES O=C(O)CCc1ccccc1
REMARK SMILES IDX 4 1 2 2 1 3 3 4 5 6 6 7 7 8 11 9 8 10 10 11 9 12
REMARK H PARENT 3 5
REMARK Flexibility Score: inf
ROOT
ATOM      1  C   UNL     1       8.433  -0.524  -2.280  1.00  0.00     0.127 C 
ENDROOT
BRANCH   1   2
ATOM      2  C   UNL     1       8.503  -1.865  -2.918  1.00  0.00     0.303 C 
ATOM      3  O   UNL     1       9.566  -2.521  -3.055  1.00  0.00    -0.252 OA
BRANCH   2   4
ATOM      4  O   UNL     1       7.335  -2.442  -3.394  1.00  0.00    -0.481 OA
ATOM      5  H   UNL     1       7.404  -3.422  -3.680  1.00  0.00     0.296 HD
ENDBRANCH   2   4
ENDBRANCH   1   2
BRANCH   1   6
ATOM      6  C   UNL     1       6.999  -0.089  -2.188  1.00  0.00     0.047 C 
BRANCH   6   7
ATOM      7  C   UNL     1       6.492   0.032  -0.823  1.00  0.00    -0.047 A 
ATOM      8  C   UNL     1       6.587  -0.963   0.119  1.00  0.00     0.004 A 
ATOM      9  C   UNL     1       5.883   1.202  -0.444  1.00  0.00     0.004 A 
ATOM     10  C   UNL     1       6.104  -0.832   1.399  1.00  0.00     0.000 A 
ATOM     11  C   UNL     1       5.387   1.367   0.829  1.00  0.00     0.000 A 
ATOM     12  C   UNL     1       5.493   0.346   1.771  1.00  0.00     0.000 A 
ENDBRANCH   6   7
ENDBRANCH   1   6
TORSDOF 4
ENDMDL
MODEL 2
REMARK VINA RESULT:      -7.3      0.138      1.722
REMARK SMILES O=C(O)CCc1ccccc1
REMARK SMILES IDX 4 1 2 2 1 3 3 4 5 6 6 7 7 8 11 9 8 10 10 11 9 12
REMARK H PARENT 3 5
REMARK Flexibility Score: inf
ROOT
ATOM      1  C   UNL     1       8.418  -0.629  -2.117  1.00  0.00     0.127 C 
ENDROOT
BRANCH   1   2
ATOM      2  C   UNL     1       8.366  -1.891  -2.901  1.00  0.00     0.303 C 
ATOM      3  O   UNL     1       7.300  -2.440  -3.276  1.00  0.00    -0.252 OA
BRANCH   2   4
ATOM      4  O   UNL     1       9.556  -2.513  -3.250  1.00  0.00    -0.481 OA
ATOM      5  H   UNL     1       9.918  -3.196  -2.581  1.00  0.00     0.296 HD
ENDBRANCH   2   4
ENDBRANCH   1   2
BRANCH   1   6
ATOM      6  C   UNL     1       7.058   0.002  -2.096  1.00  0.00     0.047 C 
BRANCH   6   7
ATOM      7  C   UNL     1       6.478   0.145  -0.763  1.00  0.00    -0.047 A 
ATOM      8  C   UNL     1       5.804   1.263  -0.338  1.00  0.00     0.004 A 
ATOM      9  C   UNL     1       6.608  -0.890   0.130  1.00  0.00     0.004 A 
ATOM     10  C   UNL     1       5.265   1.381   0.921  1.00  0.00     0.000 A 
ATOM     11  C   UNL     1       6.082  -0.806   1.398  1.00  0.00     0.000 A 
ATOM     12  C   UNL     1       5.400   0.338   1.811  1.00  0.00     0.000 A 
ENDBRANCH   6   7
ENDBRANCH   1   6
TORSDOF 4
ENDMDL
MODEL 3
REMARK VINA RESULT:      -6.8      1.029      1.638
REMARK SMILES O=C(O)CCc1ccccc1
REMARK SMILES IDX 4 1 2 2 1 3 3 4 5 6 6 7 7 8 11 9 8 10 10 11 9 12
REMARK H PARENT 3 5
REMARK Flexibility Score: inf
ROOT
ATOM      1  C   UNL     1       7.287  -1.297  -2.134  1.00  0.00     0.127 C 
ENDROOT
BRANCH   1   2
ATOM      2  C   UNL     1       8.730  -1.381  -2.479  1.00  0.00     0.303 C 
ATOM      3  O   UNL     1       9.235  -2.307  -3.164  1.00  0.00    -0.252 OA
BRANCH   2   4
ATOM      4  O   UNL     1       9.587  -0.388  -2.029  1.00  0.00    -0.481 OA
ATOM      5  H   UNL     1       9.188   0.552  -1.963  1.00  0.00     0.296 HD
ENDBRANCH   2   4
ENDBRANCH   1   2
BRANCH   1   6
ATOM      6  C   UNL     1       7.125  -1.376  -0.644  1.00  0.00     0.047 C 
BRANCH   6   7
ATOM      7  C   UNL     1       6.368  -0.271  -0.060  1.00  0.00    -0.047 A 
ATOM      8  C   UNL     1       5.866  -0.280   1.218  1.00  0.00     0.004 A 
ATOM      9  C   UNL     1       6.138   0.849  -0.820  1.00  0.00     0.004 A 
ATOM     10  C   UNL     1       5.156   0.768   1.752  1.00  0.00     0.000 A 
ATOM     11  C   UNL     1       5.430   1.916  -0.318  1.00  0.00     0.000 A 
ATOM     12  C   UNL     1       4.928   1.889   0.983  1.00  0.00     0.000 A 
ENDBRANCH   6   7
ENDBRANCH   1   6
TORSDOF 4
ENDMDL
MODEL 4
REMARK VINA RESULT:      -6.8      3.362      5.043
REMARK SMILES O=C(O)CCc1ccccc1
REMARK SMILES IDX 4 1 2 2 1 3 3 4 5 6 6 7 7 8 11 9 8 10 10 11 9 12
REMARK H PARENT 3 5
REMARK Flexibility Score: inf
ROOT
ATOM      1  C   UNL     1       5.000   1.825   0.699  1.00  0.00     0.127 C 
ENDROOT
BRANCH   1   2
ATOM      2  C   UNL     1       4.517   1.105   1.906  1.00  0.00     0.303 C 
ATOM      3  O   UNL     1       5.161   0.194   2.484  1.00  0.00    -0.252 OA
BRANCH   2   4
ATOM      4  O   UNL     1       3.283   1.446   2.441  1.00  0.00    -0.481 OA
ATOM      5  H   UNL     1       2.582   0.703   2.460  1.00  0.00     0.296 HD
ENDBRANCH   2   4
ENDBRANCH   1   2
BRANCH   1   6
ATOM      6  C   UNL     1       6.500   1.842   0.695  1.00  0.00     0.047 C 
BRANCH   6   7
ATOM      7  C   UNL     1       7.111   1.042  -0.364  1.00  0.00    -0.047 A 
ATOM      8  C   UNL     1       6.432   0.102  -1.099  1.00  0.00     0.004 A 
ATOM      9  C   UNL     1       8.440   1.227  -0.651  1.00  0.00     0.004 A 
ATOM     10  C   UNL     1       7.022  -0.643  -2.092  1.00  0.00     0.000 A 
ATOM     11  C   UNL     1       9.063   0.498  -1.638  1.00  0.00     0.000 A 
ATOM     12  C   UNL     1       8.357  -0.451  -2.375  1.00  0.00     0.000 A 
ENDBRANCH   6   7
ENDBRANCH   1   6
TORSDOF 4
ENDMDL
MODEL 5
REMARK VINA RESULT:      -6.6      3.697      4.910
REMARK SMILES O=C(O)CCc1ccccc1
REMARK SMILES IDX 4 1 2 2 1 3 3 4 5 6 6 7 7 8 11 9 8 10 10 11 9 12
REMARK H PARENT 3 5
REMARK Flexibility Score: inf
ROOT
ATOM      1  C   UNL     1       5.314   2.928   0.101  1.00  0.00     0.127 C 
ENDROOT
BRANCH   1   2
ATOM      2  C   UNL     1       6.290   3.776   0.834  1.00  0.00     0.303 C 
ATOM      3  O   UNL     1       6.866   4.775   0.333  1.00  0.00    -0.252 OA
BRANCH   2   4
ATOM      4  O   UNL     1       6.595   3.462   2.150  1.00  0.00    -0.481 OA
ATOM      5  H   UNL     1       7.135   4.162   2.664  1.00  0.00     0.296 HD
ENDBRANCH   2   4
ENDBRANCH   1   2
BRANCH   1   6
ATOM      6  C   UNL     1       5.188   1.601   0.790  1.00  0.00     0.047 C 
BRANCH   6   7
ATOM      7  C   UNL     1       5.996   0.536   0.200  1.00  0.00    -0.047 A 
ATOM      8  C   UNL     1       6.493  -0.528   0.911  1.00  0.00     0.004 A 
ATOM      9  C   UNL     1       6.283   0.588  -1.141  1.00  0.00     0.004 A 
ATOM     10  C   UNL     1       7.252  -1.522   0.340  1.00  0.00     0.000 A 
ATOM     11  C   UNL     1       7.040  -0.389  -1.745  1.00  0.00     0.000 A 
ATOM     12  C   UNL     1       7.536  -1.463  -1.008  1.00  0.00     0.000 A 
ENDBRANCH   6   7
ENDBRANCH   1   6
TORSDOF 4
ENDMDL
