@<TRIPOS>MOLECULE
/home/cewinharhar/GITHUB/reincatalyze/data/processed/docking_pred/2023-Apr-25-2140_maxeplen10_maxtrainstep200_exh16_gamma099_lrac3e-4_lrcr1e-3/3b29dc4ebb7ee5049f43ecb42d98a580ffb6b5da_ligand_2.pdbqt
 12 12 0 0 0
SMALL
GASTEIGER

@<TRIPOS>ATOM
      1  C          8.4330   -0.5240   -2.2800 C.3     1  UNL1        0.1270
      2  C          8.5030   -1.8650   -2.9180 C.2     1  UNL1        0.3030
      3  O          9.5660   -2.5210   -3.0550 O.2     1  UNL1       -0.2520
      4  O          7.3350   -2.4420   -3.3940 O.3     1  UNL1       -0.4810
      5  H          7.4040   -3.4220   -3.6800 H       1  UNL1        0.2960
      6  C          6.9990   -0.0890   -2.1880 C.3     1  UNL1        0.0470
      7  C          6.4920    0.0320   -0.8230 C.2     1  UNL1       -0.0470
      8  C          6.5870   -0.9630    0.1190 C.2     1  UNL1        0.0040
      9  C          5.8830    1.2020   -0.4440 C.2     1  UNL1        0.0040
     10  C          6.1040   -0.8320    1.3990 C.2     1  UNL1        0.0000
     11  C          5.3870    1.3670    0.8290 C.2     1  UNL1        0.0000
     12  C          5.4930    0.3460    1.7710 C.2     1  UNL1        0.0000
@<TRIPOS>BOND
     1     5     4    1
     2     4     2    1
     3     3     2    2
     4     2     1    1
     5     1     6    1
     6     6     7    1
     7     7     9    2
     8     7     8    1
     9     9    11    1
    10     8    10    2
    11    11    12    2
    12    10    12    1
