@<TRIPOS>MOLECULE
/home/cewinharhar/GITHUB/reincatalyze/data/processed/docking_pred/2023-Apr-25-2140_maxeplen10_maxtrainstep200_exh16_gamma099_lrac3e-4_lrcr1e-3/3dd20a82ca316ee4e9168eadca9f8684e5881f32_ligand_2.pdbqt
 12 12 0 0 0
SMALL
GASTEIGER

@<TRIPOS>ATOM
      1  C          5.3260    2.9240    0.0760 C.3     1  UNL1        0.1270
      2  C          6.2080    3.8680    0.8110 C.2     1  UNL1        0.3030
      3  O          6.8970    4.7610    0.2560 O.2     1  UNL1       -0.2520
      4  O          6.2890    3.7720    2.1920 O.3     1  UNL1       -0.4810
      5  H          6.9780    3.1110    2.5560 H       1  UNL1        0.2960
      6  C          5.2740    1.6160    0.8080 C.3     1  UNL1        0.0470
      7  C          6.0470    0.5440    0.1850 C.2     1  UNL1       -0.0470
      8  C          6.5080   -0.5580    0.8610 C.2     1  UNL1        0.0040
      9  C          6.3390    0.6300   -1.1540 C.2     1  UNL1        0.0040
     10  C          7.2350   -1.5580    0.2590 C.2     1  UNL1        0.0000
     11  C          7.0650   -0.3520   -1.7890 C.2     1  UNL1        0.0000
     12  C          7.5240   -1.4640   -1.0850 C.2     1  UNL1        0.0000
@<TRIPOS>BOND
     1    11     9    1
     2    11    12    2
     3     9     7    2
     4    12    10    1
     5     1     6    1
     6     1     2    1
     7     7     6    1
     8     7     8    1
     9     3     2    2
    10    10     8    2
    11     2     4    1
    12     4     5    1
