@<TRIPOS>MOLECULE
/home/cewinharhar/GITHUB/reincatalyze/data/processed/docking_pred/2023-Apr-25-2140_maxeplen10_maxtrainstep200_exh16_gamma099_lrac3e-4_lrcr1e-3/3dd20a82ca316ee4e9168eadca9f8684e5881f32_ligand_2.pdbqt
 12 12 0 0 0
SMALL
GASTEIGER

@<TRIPOS>ATOM
      1  C          8.4400   -0.5250   -2.2750 C.3     1  UNL1        0.1270
      2  C          8.5170   -1.8640   -2.9160 C.2     1  UNL1        0.3030
      3  O          9.5860   -2.5090   -3.0660 O.2     1  UNL1       -0.2520
      4  O          7.3510   -2.4530   -3.3810 O.3     1  UNL1       -0.4810
      5  H          6.5670   -1.8190   -3.5530 H       1  UNL1        0.2960
      6  C          7.0060   -0.0940   -2.1910 C.3     1  UNL1        0.0470
      7  C          6.4950    0.0430   -0.8290 C.2     1  UNL1       -0.0470
      8  C          6.5910   -0.9390    0.1250 C.2     1  UNL1        0.0040
      9  C          5.8800    1.2160   -0.4670 C.2     1  UNL1        0.0040
     10  C          6.1050   -0.7940    1.4030 C.2     1  UNL1        0.0000
     11  C          5.3810    1.3960    0.8030 C.2     1  UNL1        0.0000
     12  C          5.4880    0.3870    1.7590 C.2     1  UNL1        0.0000
@<TRIPOS>BOND
     1     5     4    1
     2     4     2    1
     3     3     2    2
     4     2     1    1
     5     1     6    1
     6     6     7    1
     7     7     9    2
     8     7     8    1
     9     9    11    1
    10     8    10    2
    11    11    12    2
    12    10    12    1
