MODEL 1
REMARK VINA RESULT:      -7.4      0.000      0.000
REMARK SMILES O=C(O)CCc1ccccc1
REMARK SMILES IDX 4 1 2 2 1 3 3 4 5 6 6 7 7 8 11 9 8 10 10 11 9 12
REMARK H PARENT 3 5
REMARK Flexibility Score: inf
ROOT
ATOM      1  C   UNL     1       8.441  -0.601  -2.157  1.00  0.00     0.127 C 
ENDROOT
BRANCH   1   2
ATOM      2  C   UNL     1       8.507  -1.885  -2.903  1.00  0.00     0.303 C 
ATOM      3  O   UNL     1       9.571  -2.522  -3.109  1.00  0.00    -0.252 OA
BRANCH   2   4
ATOM      4  O   UNL     1       7.336  -2.428  -3.410  1.00  0.00    -0.481 OA
ATOM      5  H   UNL     1       6.541  -1.789  -3.483  1.00  0.00     0.296 HD
ENDBRANCH   2   4
ENDBRANCH   1   2
BRANCH   1   6
ATOM      6  C   UNL     1       7.025  -0.105  -2.143  1.00  0.00     0.047 C 
BRANCH   6   7
ATOM      7  C   UNL     1       6.467   0.091  -0.807  1.00  0.00    -0.047 A 
ATOM      8  C   UNL     1       5.828   1.239  -0.406  1.00  0.00     0.004 A 
ATOM      9  C   UNL     1       6.581  -0.921   0.114  1.00  0.00     0.004 A 
ATOM     10  C   UNL     1       5.309   1.407   0.856  1.00  0.00     0.000 A 
ATOM     11  C   UNL     1       6.074  -0.787   1.386  1.00  0.00     0.000 A 
ATOM     12  C   UNL     1       5.428   0.386   1.774  1.00  0.00     0.000 A 
ENDBRANCH   6   7
ENDBRANCH   1   6
TORSDOF 4
ENDMDL
MODEL 2
REMARK VINA RESULT:      -7.3      0.068      1.427
REMARK SMILES O=C(O)CCc1ccccc1
REMARK SMILES IDX 4 1 2 2 1 3 3 4 5 6 6 7 7 8 11 9 8 10 10 11 9 12
REMARK H PARENT 3 5
REMARK Flexibility Score: inf
ROOT
ATOM      1  C   UNL     1       8.440  -0.525  -2.275  1.00  0.00     0.127 C 
ENDROOT
BRANCH   1   2
ATOM      2  C   UNL     1       8.517  -1.864  -2.916  1.00  0.00     0.303 C 
ATOM      3  O   UNL     1       9.586  -2.509  -3.066  1.00  0.00    -0.252 OA
BRANCH   2   4
ATOM      4  O   UNL     1       7.351  -2.453  -3.381  1.00  0.00    -0.481 OA
ATOM      5  H   UNL     1       6.567  -1.819  -3.553  1.00  0.00     0.296 HD
ENDBRANCH   2   4
ENDBRANCH   1   2
BRANCH   1   6
ATOM      6  C   UNL     1       7.006  -0.094  -2.191  1.00  0.00     0.047 C 
BRANCH   6   7
ATOM      7  C   UNL     1       6.495   0.043  -0.829  1.00  0.00    -0.047 A 
ATOM      8  C   UNL     1       6.591  -0.939   0.125  1.00  0.00     0.004 A 
ATOM      9  C   UNL     1       5.880   1.216  -0.467  1.00  0.00     0.004 A 
ATOM     10  C   UNL     1       6.105  -0.794   1.403  1.00  0.00     0.000 A 
ATOM     11  C   UNL     1       5.381   1.396   0.803  1.00  0.00     0.000 A 
ATOM     12  C   UNL     1       5.488   0.387   1.759  1.00  0.00     0.000 A 
ENDBRANCH   6   7
ENDBRANCH   1   6
TORSDOF 4
ENDMDL
MODEL 3
REMARK VINA RESULT:      -6.8      3.367      5.065
REMARK SMILES O=C(O)CCc1ccccc1
REMARK SMILES IDX 4 1 2 2 1 3 3 4 5 6 6 7 7 8 11 9 8 10 10 11 9 12
REMARK H PARENT 3 5
REMARK Flexibility Score: inf
ROOT
ATOM      1  C   UNL     1       4.973   1.791   0.687  1.00  0.00     0.127 C 
ENDROOT
BRANCH   1   2
ATOM      2  C   UNL     1       4.484   1.090   1.903  1.00  0.00     0.303 C 
ATOM      3  O   UNL     1       5.112   0.166   2.480  1.00  0.00    -0.252 OA
BRANCH   2   4
ATOM      4  O   UNL     1       3.265   1.464   2.449  1.00  0.00    -0.481 OA
ATOM      5  H   UNL     1       2.533   0.751   2.442  1.00  0.00     0.296 HD
ENDBRANCH   2   4
ENDBRANCH   1   2
BRANCH   1   6
ATOM      6  C   UNL     1       6.472   1.853   0.715  1.00  0.00     0.047 C 
BRANCH   6   7
ATOM      7  C   UNL     1       7.128   1.086  -0.341  1.00  0.00    -0.047 A 
ATOM      8  C   UNL     1       8.458   1.207  -0.661  1.00  0.00     0.004 A 
ATOM      9  C   UNL     1       6.384   0.188  -1.067  1.00  0.00     0.004 A 
ATOM     10  C   UNL     1       9.059   0.478  -1.658  1.00  0.00     0.000 A 
ATOM     11  C   UNL     1       6.954  -0.558  -2.073  1.00  0.00     0.000 A 
ATOM     12  C   UNL     1       8.306  -0.422  -2.382  1.00  0.00     0.000 A 
ENDBRANCH   6   7
ENDBRANCH   1   6
TORSDOF 4
ENDMDL
MODEL 4
REMARK VINA RESULT:      -6.6      1.986      2.669
REMARK SMILES O=C(O)CCc1ccccc1
REMARK SMILES IDX 4 1 2 2 1 3 3 4 5 6 6 7 7 8 11 9 8 10 10 11 9 12
REMARK H PARENT 3 5
REMARK Flexibility Score: inf
ROOT
ATOM      1  C   UNL     1       8.399   0.306  -2.025  1.00  0.00     0.127 C 
ENDROOT
BRANCH   1   2
ATOM      2  C   UNL     1       9.479   0.198  -1.010  1.00  0.00     0.303 C 
ATOM      3  O   UNL     1       9.413  -0.535   0.009  1.00  0.00    -0.252 OA
BRANCH   2   4
ATOM      4  O   UNL     1      10.636   0.944  -1.180  1.00  0.00    -0.481 OA
ATOM      5  H   UNL     1      11.335   0.863  -0.438  1.00  0.00     0.296 HD
ENDBRANCH   2   4
ENDBRANCH   1   2
BRANCH   1   6
ATOM      6  C   UNL     1       7.184  -0.431  -1.542  1.00  0.00     0.047 C 
BRANCH   6   7
ATOM      7  C   UNL     1       6.373   0.309  -0.578  1.00  0.00    -0.047 A 
ATOM      8  C   UNL     1       6.106  -0.132   0.695  1.00  0.00     0.004 A 
ATOM      9  C   UNL     1       5.838   1.517  -0.952  1.00  0.00     0.004 A 
ATOM     10  C   UNL     1       5.341   0.577   1.589  1.00  0.00     0.000 A 
ATOM     11  C   UNL     1       5.066   2.252  -0.083  1.00  0.00     0.000 A 
ATOM     12  C   UNL     1       4.807   1.789   1.206  1.00  0.00     0.000 A 
ENDBRANCH   6   7
ENDBRANCH   1   6
TORSDOF 4
ENDMDL
MODEL 5
REMARK VINA RESULT:      -6.6      3.711      5.110
REMARK SMILES O=C(O)CCc1ccccc1
REMARK SMILES IDX 4 1 2 2 1 3 3 4 5 6 6 7 7 8 11 9 8 10 10 11 9 12
REMARK H PARENT 3 5
REMARK Flexibility Score: inf
ROOT
ATOM      1  C   UNL     1       5.326   2.924   0.076  1.00  0.00     0.127 C 
ENDROOT
BRANCH   1   2
ATOM      2  C   UNL     1       6.208   3.868   0.811  1.00  0.00     0.303 C 
ATOM      3  O   UNL     1       6.897   4.761   0.256  1.00  0.00    -0.252 OA
BRANCH   2   4
ATOM      4  O   UNL     1       6.289   3.772   2.192  1.00  0.00    -0.481 OA
ATOM      5  H   UNL     1       6.978   3.111   2.556  1.00  0.00     0.296 HD
ENDBRANCH   2   4
ENDBRANCH   1   2
BRANCH   1   6
ATOM      6  C   UNL     1       5.274   1.616   0.808  1.00  0.00     0.047 C 
BRANCH   6   7
ATOM      7  C   UNL     1       6.047   0.544   0.185  1.00  0.00    -0.047 A 
ATOM      8  C   UNL     1       6.508  -0.558   0.861  1.00  0.00     0.004 A 
ATOM      9  C   UNL     1       6.339   0.630  -1.154  1.00  0.00     0.004 A 
ATOM     10  C   UNL     1       7.235  -1.558   0.259  1.00  0.00     0.000 A 
ATOM     11  C   UNL     1       7.065  -0.352  -1.789  1.00  0.00     0.000 A 
ATOM     12  C   UNL     1       7.524  -1.464  -1.085  1.00  0.00     0.000 A 
ENDBRANCH   6   7
ENDBRANCH   1   6
TORSDOF 4
ENDMDL
