@<TRIPOS>MOLECULE
/home/cewinharhar/GITHUB/reincatalyze/data/processed/docking_pred/2023-Apr-25-2140_maxeplen10_maxtrainstep200_exh16_gamma099_lrac3e-4_lrcr1e-3/3dd20a82ca316ee4e9168eadca9f8684e5881f32_ligand_2.pdbqt
 12 12 0 0 0
SMALL
GASTEIGER

@<TRIPOS>ATOM
      1  C          8.4410   -0.6010   -2.1570 C.3     1  UNL1        0.1270
      2  C          8.5070   -1.8850   -2.9030 C.2     1  UNL1        0.3030
      3  O          9.5710   -2.5220   -3.1090 O.2     1  UNL1       -0.2520
      4  O          7.3360   -2.4280   -3.4100 O.3     1  UNL1       -0.4810
      5  H          6.5410   -1.7890   -3.4830 H       1  UNL1        0.2960
      6  C          7.0250   -0.1050   -2.1430 C.3     1  UNL1        0.0470
      7  C          6.4670    0.0910   -0.8070 C.2     1  UNL1       -0.0470
      8  C          5.8280    1.2390   -0.4060 C.2     1  UNL1        0.0040
      9  C          6.5810   -0.9210    0.1140 C.2     1  UNL1        0.0040
     10  C          5.3090    1.4070    0.8560 C.2     1  UNL1        0.0000
     11  C          6.0740   -0.7870    1.3860 C.2     1  UNL1        0.0000
     12  C          5.4280    0.3860    1.7740 C.2     1  UNL1        0.0000
@<TRIPOS>BOND
     1     5     4    1
     2     4     2    1
     3     3     2    2
     4     2     1    1
     5     1     6    1
     6     6     7    1
     7     7     8    2
     8     7     9    1
     9     8    10    1
    10     9    11    2
    11    10    12    2
    12    11    12    1
