@<TRIPOS>MOLECULE
/home/cewinharhar/GITHUB/reincatalyze/data/processed/docking_pred/2023-Apr-25-2140_maxeplen10_maxtrainstep200_exh16_gamma099_lrac3e-4_lrcr1e-3/3dd20a82ca316ee4e9168eadca9f8684e5881f32_ligand_2.pdbqt
 12 12 0 0 0
SMALL
GASTEIGER

@<TRIPOS>ATOM
      1  C          8.3990    0.3060   -2.0250 C.3     1  UNL1        0.1270
      2  C          9.4790    0.1980   -1.0100 C.2     1  UNL1        0.3030
      3  O          9.4130   -0.5350    0.0090 O.2     1  UNL1       -0.2520
      4  O         10.6360    0.9440   -1.1800 O.3     1  UNL1       -0.4810
      5  H         11.3350    0.8630   -0.4380 H       1  UNL1        0.2960
      6  C          7.1840   -0.4310   -1.5420 C.3     1  UNL1        0.0470
      7  C          6.3730    0.3090   -0.5780 C.2     1  UNL1       -0.0470
      8  C          6.1060   -0.1320    0.6950 C.2     1  UNL1        0.0040
      9  C          5.8380    1.5170   -0.9520 C.2     1  UNL1        0.0040
     10  C          5.3410    0.5770    1.5890 C.2     1  UNL1        0.0000
     11  C          5.0660    2.2520   -0.0830 C.2     1  UNL1        0.0000
     12  C          4.8070    1.7890    1.2060 C.2     1  UNL1        0.0000
@<TRIPOS>BOND
     1     1     6    1
     2     1     2    1
     3     6     7    1
     4     4     2    1
     5     4     5    1
     6     2     3    2
     7     9     7    2
     8     9    11    1
     9     7     8    1
    10    11    12    2
    11     8    10    2
    12    12    10    1
