@<TRIPOS>MOLECULE
/home/cewinharhar/GITHUB/reincatalyze/data/processed/docking_pred/2023-Apr-25-2140_maxeplen10_maxtrainstep200_exh16_gamma099_lrac3e-4_lrcr1e-3/3dd20a82ca316ee4e9168eadca9f8684e5881f32_ligand_2.pdbqt
 12 12 0 0 0
SMALL
GASTEIGER

@<TRIPOS>ATOM
      1  C          4.9730    1.7910    0.6870 C.3     1  UNL1        0.1270
      2  C          4.4840    1.0900    1.9030 C.2     1  UNL1        0.3030
      3  O          5.1120    0.1660    2.4800 O.2     1  UNL1       -0.2520
      4  O          3.2650    1.4640    2.4490 O.3     1  UNL1       -0.4810
      5  H          2.5330    0.7510    2.4420 H       1  UNL1        0.2960
      6  C          6.4720    1.8530    0.7150 C.3     1  UNL1        0.0470
      7  C          7.1280    1.0860   -0.3410 C.2     1  UNL1       -0.0470
      8  C          8.4580    1.2070   -0.6610 C.2     1  UNL1        0.0040
      9  C          6.3840    0.1880   -1.0670 C.2     1  UNL1        0.0040
     10  C          9.0590    0.4780   -1.6580 C.2     1  UNL1        0.0000
     11  C          6.9540   -0.5580   -2.0730 C.2     1  UNL1        0.0000
     12  C          8.3060   -0.4220   -2.3820 C.2     1  UNL1        0.0000
@<TRIPOS>BOND
     1    12    11    2
     2    12    10    1
     3    11     9    1
     4    10     8    2
     5     9     7    2
     6     8     7    1
     7     7     6    1
     8     1     6    1
     9     1     2    1
    10     2     4    1
    11     2     3    2
    12     5     4    1
