@<TRIPOS>MOLECULE
/home/cewinharhar/GITHUB/reincatalyze/data/processed/docking_pred/2023-Apr-25-2140_maxeplen10_maxtrainstep200_exh16_gamma099_lrac3e-4_lrcr1e-3/3ef00b253c4480de2280c2f95d83164b82996574_ligand_2.pdbqt
 12 12 0 0 0
SMALL
GASTEIGER

@<TRIPOS>ATOM
      1  C          8.2980    0.2150   -2.2180 C.3     1  UNL1        0.1270
      2  C          9.4020    0.3510   -1.2330 C.2     1  UNL1        0.3030
      3  O          9.5110   -0.3560   -0.1990 O.2     1  UNL1       -0.2520
      4  O         10.3800    1.3100   -1.4500 O.3     1  UNL1       -0.4810
      5  H         10.2100    2.2270   -1.0320 H       1  UNL1        0.2960
      6  C          7.1480   -0.5100   -1.5830 C.3     1  UNL1        0.0470
      7  C          6.3610    0.3010   -0.6560 C.2     1  UNL1       -0.0470
      8  C          5.8090    1.5150   -0.9820 C.2     1  UNL1        0.0040
      9  C          6.1550   -0.1640    0.6190 C.2     1  UNL1        0.0040
     10  C          5.0720    2.2660   -0.0970 C.2     1  UNL1        0.0000
     11  C          5.4230    0.5610    1.5310 C.2     1  UNL1        0.0000
     12  C          4.8690    1.7920    1.1820 C.2     1  UNL1        0.0000
@<TRIPOS>BOND
     1     1     6    1
     2     1     2    1
     3     6     7    1
     4     4     2    1
     5     4     5    1
     6     2     3    2
     7     8     7    2
     8     8    10    1
     9     7     9    1
    10    10    12    2
    11     9    11    2
    12    12    11    1
