@<TRIPOS>MOLECULE
/home/cewinharhar/GITHUB/reincatalyze/data/processed/docking_pred/2023-Apr-25-2140_maxeplen10_maxtrainstep200_exh16_gamma099_lrac3e-4_lrcr1e-3/3ef00b253c4480de2280c2f95d83164b82996574_ligand_2.pdbqt
 12 12 0 0 0
SMALL
GASTEIGER

@<TRIPOS>ATOM
      1  C          8.4470   -0.5630   -2.2020 C.3     1  UNL1        0.1270
      2  C          8.5220   -1.8580   -2.9270 C.2     1  UNL1        0.3030
      3  O          9.5880   -2.5000   -3.1070 O.2     1  UNL1       -0.2520
      4  O          7.3580   -2.4060   -3.4440 O.3     1  UNL1       -0.4810
      5  H          6.8730   -1.8460   -4.1490 H       1  UNL1        0.2960
      6  C          7.0200   -0.1020   -2.1490 C.3     1  UNL1        0.0470
      7  C          6.4870    0.0590   -0.7980 C.2     1  UNL1       -0.0470
      8  C          5.8470    1.1920   -0.3590 C.2     1  UNL1        0.0040
      9  C          6.6280   -0.9730    0.0970 C.2     1  UNL1        0.0040
     10  C          5.3520    1.3270    0.9160 C.2     1  UNL1        0.0000
     11  C          6.1450   -0.8720    1.3810 C.2     1  UNL1        0.0000
     12  C          5.4970    0.2860    1.8080 C.2     1  UNL1        0.0000
@<TRIPOS>BOND
     1     5     4    1
     2     4     2    1
     3     3     2    2
     4     2     1    1
     5     1     6    1
     6     6     7    1
     7     7     8    2
     8     7     9    1
     9     8    10    1
    10     9    11    2
    11    10    12    2
    12    11    12    1
