@<TRIPOS>MOLECULE
/home/cewinharhar/GITHUB/reincatalyze/data/processed/docking_pred/2023-Apr-25-2140_maxeplen10_maxtrainstep200_exh16_gamma099_lrac3e-4_lrcr1e-3/3ef00b253c4480de2280c2f95d83164b82996574_ligand_2.pdbqt
 12 12 0 0 0
SMALL
GASTEIGER

@<TRIPOS>ATOM
      1  C          5.0050    1.7640    0.6440 C.3     1  UNL1        0.1270
      2  C          4.5790    1.0290    1.8640 C.2     1  UNL1        0.3030
      3  O          5.2280    0.0800    2.3730 O.2     1  UNL1       -0.2520
      4  O          3.3990    1.3990    2.4920 O.3     1  UNL1       -0.4810
      5  H          3.5000    1.8690    3.3950 H       1  UNL1        0.2960
      6  C          6.4990    1.8920    0.6340 C.3     1  UNL1        0.0470
      7  C          7.1660    1.1150   -0.4080 C.2     1  UNL1       -0.0470
      8  C          8.5110    1.1880   -0.6740 C.2     1  UNL1        0.0040
      9  C          6.4170    0.2580   -1.1760 C.2     1  UNL1        0.0040
     10  C          9.1220    0.4490   -1.6590 C.2     1  UNL1        0.0000
     11  C          6.9950   -0.4960   -2.1710 C.2     1  UNL1        0.0000
     12  C          8.3630   -0.4090   -2.4250 C.2     1  UNL1        0.0000
@<TRIPOS>BOND
     1    12    11    2
     2    12    10    1
     3    11     9    1
     4    10     8    2
     5     9     7    2
     6     8     7    1
     7     7     6    1
     8     6     1    1
     9     1     2    1
    10     2     3    2
    11     2     4    1
    12     4     5    1
