MODEL 1
REMARK VINA RESULT:      -7.4      0.000      0.000
REMARK SMILES O=C(O)CCc1ccccc1
REMARK SMILES IDX 4 1 2 2 1 3 3 4 5 6 6 7 7 8 11 9 8 10 10 11 9 12
REMARK H PARENT 3 5
REMARK Flexibility Score: inf
ROOT
ATOM      1  C   UNL     1       8.446  -0.553  -2.255  1.00  0.00     0.127 C 
ENDROOT
BRANCH   1   2
ATOM      2  C   UNL     1       8.508  -1.869  -2.943  1.00  0.00     0.303 C 
ATOM      3  O   UNL     1       9.566  -2.531  -3.097  1.00  0.00    -0.252 OA
BRANCH   2   4
ATOM      4  O   UNL     1       7.339  -2.416  -3.451  1.00  0.00    -0.481 OA
ATOM      5  H   UNL     1       7.261  -3.434  -3.399  1.00  0.00     0.296 HD
ENDBRANCH   2   4
ENDBRANCH   1   2
BRANCH   1   6
ATOM      6  C   UNL     1       7.018  -0.105  -2.163  1.00  0.00     0.047 C 
BRANCH   6   7
ATOM      7  C   UNL     1       6.507   0.006  -0.799  1.00  0.00    -0.047 A 
ATOM      8  C   UNL     1       6.621  -0.986   0.143  1.00  0.00     0.004 A 
ATOM      9  C   UNL     1       5.872   1.164  -0.421  1.00  0.00     0.004 A 
ATOM     10  C   UNL     1       6.134  -0.865   1.423  1.00  0.00     0.000 A 
ATOM     11  C   UNL     1       5.372   1.318   0.851  1.00  0.00     0.000 A 
ATOM     12  C   UNL     1       5.498   0.300   1.794  1.00  0.00     0.000 A 
ENDBRANCH   6   7
ENDBRANCH   1   6
TORSDOF 4
ENDMDL
MODEL 2
REMARK VINA RESULT:      -7.3      0.046      1.426
REMARK SMILES O=C(O)CCc1ccccc1
REMARK SMILES IDX 4 1 2 2 1 3 3 4 5 6 6 7 7 8 11 9 8 10 10 11 9 12
REMARK H PARENT 3 5
REMARK Flexibility Score: inf
ROOT
ATOM      1  C   UNL     1       8.447  -0.563  -2.202  1.00  0.00     0.127 C 
ENDROOT
BRANCH   1   2
ATOM      2  C   UNL     1       8.522  -1.858  -2.927  1.00  0.00     0.303 C 
ATOM      3  O   UNL     1       9.588  -2.500  -3.107  1.00  0.00    -0.252 OA
BRANCH   2   4
ATOM      4  O   UNL     1       7.358  -2.406  -3.444  1.00  0.00    -0.481 OA
ATOM      5  H   UNL     1       6.873  -1.846  -4.149  1.00  0.00     0.296 HD
ENDBRANCH   2   4
ENDBRANCH   1   2
BRANCH   1   6
ATOM      6  C   UNL     1       7.020  -0.102  -2.149  1.00  0.00     0.047 C 
BRANCH   6   7
ATOM      7  C   UNL     1       6.487   0.059  -0.798  1.00  0.00    -0.047 A 
ATOM      8  C   UNL     1       5.847   1.192  -0.359  1.00  0.00     0.004 A 
ATOM      9  C   UNL     1       6.628  -0.973   0.097  1.00  0.00     0.004 A 
ATOM     10  C   UNL     1       5.352   1.327   0.916  1.00  0.00     0.000 A 
ATOM     11  C   UNL     1       6.145  -0.872   1.381  1.00  0.00     0.000 A 
ATOM     12  C   UNL     1       5.497   0.286   1.808  1.00  0.00     0.000 A 
ENDBRANCH   6   7
ENDBRANCH   1   6
TORSDOF 4
ENDMDL
MODEL 3
REMARK VINA RESULT:      -6.7      3.341      5.043
REMARK SMILES O=C(O)CCc1ccccc1
REMARK SMILES IDX 4 1 2 2 1 3 3 4 5 6 6 7 7 8 11 9 8 10 10 11 9 12
REMARK H PARENT 3 5
REMARK Flexibility Score: inf
ROOT
ATOM      1  C   UNL     1       5.005   1.764   0.644  1.00  0.00     0.127 C 
ENDROOT
BRANCH   1   2
ATOM      2  C   UNL     1       4.579   1.029   1.864  1.00  0.00     0.303 C 
ATOM      3  O   UNL     1       5.228   0.080   2.373  1.00  0.00    -0.252 OA
BRANCH   2   4
ATOM      4  O   UNL     1       3.399   1.399   2.492  1.00  0.00    -0.481 OA
ATOM      5  H   UNL     1       3.500   1.869   3.395  1.00  0.00     0.296 HD
ENDBRANCH   2   4
ENDBRANCH   1   2
BRANCH   1   6
ATOM      6  C   UNL     1       6.499   1.892   0.634  1.00  0.00     0.047 C 
BRANCH   6   7
ATOM      7  C   UNL     1       7.166   1.115  -0.408  1.00  0.00    -0.047 A 
ATOM      8  C   UNL     1       8.511   1.188  -0.674  1.00  0.00     0.004 A 
ATOM      9  C   UNL     1       6.417   0.258  -1.176  1.00  0.00     0.004 A 
ATOM     10  C   UNL     1       9.122   0.449  -1.659  1.00  0.00     0.000 A 
ATOM     11  C   UNL     1       6.995  -0.496  -2.171  1.00  0.00     0.000 A 
ATOM     12  C   UNL     1       8.363  -0.409  -2.425  1.00  0.00     0.000 A 
ENDBRANCH   6   7
ENDBRANCH   1   6
TORSDOF 4
ENDMDL
MODEL 4
REMARK VINA RESULT:      -6.7      1.960      2.672
REMARK SMILES O=C(O)CCc1ccccc1
REMARK SMILES IDX 4 1 2 2 1 3 3 4 5 6 6 7 7 8 11 9 8 10 10 11 9 12
REMARK H PARENT 3 5
REMARK Flexibility Score: inf
ROOT
ATOM      1  C   UNL     1       8.298   0.215  -2.218  1.00  0.00     0.127 C 
ENDROOT
BRANCH   1   2
ATOM      2  C   UNL     1       9.402   0.351  -1.233  1.00  0.00     0.303 C 
ATOM      3  O   UNL     1       9.511  -0.356  -0.199  1.00  0.00    -0.252 OA
BRANCH   2   4
ATOM      4  O   UNL     1      10.380   1.310  -1.450  1.00  0.00    -0.481 OA
ATOM      5  H   UNL     1      10.210   2.227  -1.032  1.00  0.00     0.296 HD
ENDBRANCH   2   4
ENDBRANCH   1   2
BRANCH   1   6
ATOM      6  C   UNL     1       7.148  -0.510  -1.583  1.00  0.00     0.047 C 
BRANCH   6   7
ATOM      7  C   UNL     1       6.361   0.301  -0.656  1.00  0.00    -0.047 A 
ATOM      8  C   UNL     1       5.809   1.515  -0.982  1.00  0.00     0.004 A 
ATOM      9  C   UNL     1       6.155  -0.164   0.619  1.00  0.00     0.004 A 
ATOM     10  C   UNL     1       5.072   2.266  -0.097  1.00  0.00     0.000 A 
ATOM     11  C   UNL     1       5.423   0.561   1.531  1.00  0.00     0.000 A 
ATOM     12  C   UNL     1       4.869   1.792   1.182  1.00  0.00     0.000 A 
ENDBRANCH   6   7
ENDBRANCH   1   6
TORSDOF 4
ENDMDL
MODEL 5
REMARK VINA RESULT:      -6.5      3.752      4.812
REMARK SMILES O=C(O)CCc1ccccc1
REMARK SMILES IDX 4 1 2 2 1 3 3 4 5 6 6 7 7 8 11 9 8 10 10 11 9 12
REMARK H PARENT 3 5
REMARK Flexibility Score: inf
ROOT
ATOM      1  C   UNL     1       5.002   2.803   0.275  1.00  0.00     0.127 C 
ENDROOT
BRANCH   1   2
ATOM      2  C   UNL     1       6.048   3.705   0.824  1.00  0.00     0.303 C 
ATOM      3  O   UNL     1       6.692   4.534   0.133  1.00  0.00    -0.252 OA
BRANCH   2   4
ATOM      4  O   UNL     1       6.346   3.641   2.177  1.00  0.00    -0.481 OA
ATOM      5  H   UNL     1       5.607   3.951   2.813  1.00  0.00     0.296 HD
ENDBRANCH   2   4
ENDBRANCH   1   2
BRANCH   1   6
ATOM      6  C   UNL     1       5.651   1.723  -0.541  1.00  0.00     0.047 C 
BRANCH   6   7
ATOM      7  C   UNL     1       6.051   0.545   0.225  1.00  0.00    -0.047 A 
ATOM      8  C   UNL     1       5.638   0.293   1.510  1.00  0.00     0.004 A 
ATOM      9  C   UNL     1       6.888  -0.373  -0.360  1.00  0.00     0.004 A 
ATOM     10  C   UNL     1       6.023  -0.822   2.216  1.00  0.00     0.000 A 
ATOM     11  C   UNL     1       7.294  -1.499   0.318  1.00  0.00     0.000 A 
ATOM     12  C   UNL     1       6.864  -1.738   1.622  1.00  0.00     0.000 A 
ENDBRANCH   6   7
ENDBRANCH   1   6
TORSDOF 4
ENDMDL
