@<TRIPOS>MOLECULE
/home/cewinharhar/GITHUB/reincatalyze/data/processed/docking_pred/2023-Apr-25-2140_maxeplen10_maxtrainstep200_exh16_gamma099_lrac3e-4_lrcr1e-3/3ef00b253c4480de2280c2f95d83164b82996574_ligand_2.pdbqt
 12 12 0 0 0
SMALL
GASTEIGER

@<TRIPOS>ATOM
      1  C          5.0020    2.8030    0.2750 C.3     1  UNL1        0.1270
      2  C          6.0480    3.7050    0.8240 C.2     1  UNL1        0.3030
      3  O          6.6920    4.5340    0.1330 O.2     1  UNL1       -0.2520
      4  O          6.3460    3.6410    2.1770 O.3     1  UNL1       -0.4810
      5  H          5.6070    3.9510    2.8130 H       1  UNL1        0.2960
      6  C          5.6510    1.7230   -0.5410 C.3     1  UNL1        0.0470
      7  C          6.0510    0.5450    0.2250 C.2     1  UNL1       -0.0470
      8  C          5.6380    0.2930    1.5100 C.2     1  UNL1        0.0040
      9  C          6.8880   -0.3730   -0.3600 C.2     1  UNL1        0.0040
     10  C          6.0230   -0.8220    2.2160 C.2     1  UNL1        0.0000
     11  C          7.2940   -1.4990    0.3180 C.2     1  UNL1        0.0000
     12  C          6.8640   -1.7380    1.6220 C.2     1  UNL1        0.0000
@<TRIPOS>BOND
     1     6     7    1
     2     6     1    1
     3     9     7    2
     4     9    11    1
     5     3     2    2
     6     7     8    1
     7     1     2    1
     8    11    12    2
     9     2     4    1
    10     8    10    2
    11    12    10    1
    12     4     5    1
