@<TRIPOS>MOLECULE
/home/cewinharhar/GITHUB/reincatalyze/data/processed/docking_pred/2023-Apr-25-2140_maxeplen10_maxtrainstep200_exh16_gamma099_lrac3e-4_lrcr1e-3/3ef00b253c4480de2280c2f95d83164b82996574_ligand_2.pdbqt
 12 12 0 0 0
SMALL
GASTEIGER

@<TRIPOS>ATOM
      1  C          8.4460   -0.5530   -2.2550 C.3     1  UNL1        0.1270
      2  C          8.5080   -1.8690   -2.9430 C.2     1  UNL1        0.3030
      3  O          9.5660   -2.5310   -3.0970 O.2     1  UNL1       -0.2520
      4  O          7.3390   -2.4160   -3.4510 O.3     1  UNL1       -0.4810
      5  H          7.2610   -3.4340   -3.3990 H       1  UNL1        0.2960
      6  C          7.0180   -0.1050   -2.1630 C.3     1  UNL1        0.0470
      7  C          6.5070    0.0060   -0.7990 C.2     1  UNL1       -0.0470
      8  C          6.6210   -0.9860    0.1430 C.2     1  UNL1        0.0040
      9  C          5.8720    1.1640   -0.4210 C.2     1  UNL1        0.0040
     10  C          6.1340   -0.8650    1.4230 C.2     1  UNL1        0.0000
     11  C          5.3720    1.3180    0.8510 C.2     1  UNL1        0.0000
     12  C          5.4980    0.3000    1.7940 C.2     1  UNL1        0.0000
@<TRIPOS>BOND
     1     4     5    1
     2     4     2    1
     3     3     2    2
     4     2     1    1
     5     1     6    1
     6     6     7    1
     7     7     9    2
     8     7     8    1
     9     9    11    1
    10     8    10    2
    11    11    12    2
    12    10    12    1
