@<TRIPOS>MOLECULE
/home/cewinharhar/GITHUB/reincatalyze/data/processed/docking_pred/2023-Apr-25-2140_maxeplen10_maxtrainstep200_exh16_gamma099_lrac3e-4_lrcr1e-3/437598aa9d4ddbb457dda5082e5f4820e6dbe55d_ligand_2.pdbqt
 12 12 0 0 0
SMALL
GASTEIGER

@<TRIPOS>ATOM
      1  C          8.2620    0.3340   -2.0080 C.3     1  UNL1        0.1270
      2  C          9.4350    0.3790   -1.0960 C.2     1  UNL1        0.3030
      3  O          9.5620   -0.3510   -0.0800 O.2     1  UNL1       -0.2520
      4  O         10.4610    1.2730   -1.3660 O.3     1  UNL1       -0.4810
      5  H         11.2550    1.2510   -0.7230 H       1  UNL1        0.2960
      6  C          7.1950   -0.5320   -1.4060 C.3     1  UNL1        0.0470
      7  C          6.3860    0.1290   -0.3850 C.2     1  UNL1       -0.0470
      8  C          5.8090    1.3640   -0.5480 C.2     1  UNL1        0.0040
      9  C          6.1810   -0.5090    0.8140 C.2     1  UNL1        0.0040
     10  C          5.0500    1.9720    0.4230 C.2     1  UNL1        0.0000
     11  C          5.4270    0.0700    1.8090 C.2     1  UNL1        0.0000
     12  C          4.8490    1.3250    1.6240 C.2     1  UNL1        0.0000
@<TRIPOS>BOND
     1     1     6    1
     2     1     2    1
     3     6     7    1
     4     4     2    1
     5     4     5    1
     6     2     3    2
     7     8     7    2
     8     8    10    1
     9     7     9    1
    10    10    12    2
    11     9    11    2
    12    12    11    1
