@<TRIPOS>MOLECULE
/home/cewinharhar/GITHUB/reincatalyze/data/processed/docking_pred/2023-Apr-25-2140_maxeplen10_maxtrainstep200_exh16_gamma099_lrac3e-4_lrcr1e-3/437598aa9d4ddbb457dda5082e5f4820e6dbe55d_ligand_2.pdbqt
 12 12 0 0 0
SMALL
GASTEIGER

@<TRIPOS>ATOM
      1  C          5.0300    1.7570    0.7080 C.3     1  UNL1        0.1270
      2  C          4.6090    1.0190    1.9270 C.2     1  UNL1        0.3030
      3  O          5.3090    0.1410    2.4930 O.2     1  UNL1       -0.2520
      4  O          3.3730    1.3020    2.4880 O.3     1  UNL1       -0.4810
      5  H          2.6190    0.6470    2.2670 H       1  UNL1        0.2960
      6  C          6.5280    1.8280    0.6610 C.3     1  UNL1        0.0470
      7  C          7.1390    1.0170   -0.3900 C.2     1  UNL1       -0.0470
      8  C          6.4520    0.0930   -1.1380 C.2     1  UNL1        0.0040
      9  C          8.4760    1.1760   -0.6560 C.2     1  UNL1        0.0040
     10  C          7.0430   -0.6630   -2.1230 C.2     1  UNL1        0.0000
     11  C          9.1000    0.4360   -1.6350 C.2     1  UNL1        0.0000
     12  C          8.3860   -0.4980   -2.3840 C.2     1  UNL1        0.0000
@<TRIPOS>BOND
     1    12    10    2
     2    12    11    1
     3    10     8    1
     4    11     9    2
     5     8     7    2
     6     9     7    1
     7     7     6    1
     8     6     1    1
     9     1     2    1
    10     2     4    1
    11     2     3    2
    12     5     4    1
