@<TRIPOS>MOLECULE
/home/cewinharhar/GITHUB/reincatalyze/data/processed/docking_pred/2023-Apr-25-2140_maxeplen10_maxtrainstep200_exh16_gamma099_lrac3e-4_lrcr1e-3/437598aa9d4ddbb457dda5082e5f4820e6dbe55d_ligand_2.pdbqt
 12 12 0 0 0
SMALL
GASTEIGER

@<TRIPOS>ATOM
      1  C          8.2770   -1.1350   -1.6230 C.3     1  UNL1        0.1270
      2  C          8.2740   -2.0500   -2.7940 C.2     1  UNL1        0.3030
      3  O          7.2320   -2.4300   -3.3850 O.2     1  UNL1       -0.2520
      4  O          9.4850   -2.5230   -3.2780 O.3     1  UNL1       -0.4810
      5  H          9.5540   -3.5360   -3.4010 H       1  UNL1        0.2960
      6  C          7.2140   -0.0910   -1.8030 C.3     1  UNL1        0.0470
      7  C          6.4760    0.2350   -0.5860 C.2     1  UNL1       -0.0470
      8  C          5.7560    1.3920   -0.4150 C.2     1  UNL1        0.0040
      9  C          6.4920   -0.6560    0.4580 C.2     1  UNL1        0.0040
     10  C          5.0670    1.6830    0.7380 C.2     1  UNL1        0.0000
     11  C          5.8140   -0.3970    1.6270 C.2     1  UNL1        0.0000
     12  C          5.0890    0.7830    1.7810 C.2     1  UNL1        0.0000
@<TRIPOS>BOND
     1     5     4    1
     2     3     2    2
     3     4     2    1
     4     2     1    1
     5     6     1    1
     6     6     7    1
     7     7     8    2
     8     7     9    1
     9     8    10    1
    10     9    11    2
    11    10    12    2
    12    11    12    1
