MODEL 1
REMARK VINA RESULT:      -7.4      0.000      0.000
REMARK SMILES O=C(O)CCc1ccccc1
REMARK SMILES IDX 4 1 2 2 1 3 3 4 5 6 6 7 7 8 11 9 8 10 10 11 9 12
REMARK H PARENT 3 5
REMARK Flexibility Score: inf
ROOT
ATOM      1  C   UNL     1       8.466  -0.605  -2.196  1.00  0.00     0.127 C 
ENDROOT
BRANCH   1   2
ATOM      2  C   UNL     1       8.512  -1.899  -2.926  1.00  0.00     0.303 C 
ATOM      3  O   UNL     1       9.562  -2.568  -3.102  1.00  0.00    -0.252 OA
BRANCH   2   4
ATOM      4  O   UNL     1       7.336  -2.415  -3.449  1.00  0.00    -0.481 OA
ATOM      5  H   UNL     1       6.665  -1.731  -3.805  1.00  0.00     0.296 HD
ENDBRANCH   2   4
ENDBRANCH   1   2
BRANCH   1   6
ATOM      6  C   UNL     1       7.052  -0.107  -2.151  1.00  0.00     0.047 C 
BRANCH   6   7
ATOM      7  C   UNL     1       6.505   0.038  -0.804  1.00  0.00    -0.047 A 
ATOM      8  C   UNL     1       6.589  -0.933   0.164  1.00  0.00     0.004 A 
ATOM      9  C   UNL     1       5.867   1.207  -0.470  1.00  0.00     0.004 A 
ATOM     10  C   UNL     1       6.070  -0.779   1.427  1.00  0.00     0.000 A 
ATOM     11  C   UNL     1       5.335   1.394   0.785  1.00  0.00     0.000 A 
ATOM     12  C   UNL     1       5.431   0.397   1.754  1.00  0.00     0.000 A 
ENDBRANCH   6   7
ENDBRANCH   1   6
TORSDOF 4
ENDMDL
MODEL 2
REMARK VINA RESULT:      -7.4      0.082      1.427
REMARK SMILES O=C(O)CCc1ccccc1
REMARK SMILES IDX 4 1 2 2 1 3 3 4 5 6 6 7 7 8 11 9 8 10 10 11 9 12
REMARK H PARENT 3 5
REMARK Flexibility Score: inf
ROOT
ATOM      1  C   UNL     1       8.489  -0.655  -2.093  1.00  0.00     0.127 C 
ENDROOT
BRANCH   1   2
ATOM      2  C   UNL     1       8.523  -1.907  -2.894  1.00  0.00     0.303 C 
ATOM      3  O   UNL     1       9.570  -2.565  -3.122  1.00  0.00    -0.252 OA
BRANCH   2   4
ATOM      4  O   UNL     1       7.339  -2.393  -3.428  1.00  0.00    -0.481 OA
ATOM      5  H   UNL     1       7.094  -3.353  -3.174  1.00  0.00     0.296 HD
ENDBRANCH   2   4
ENDBRANCH   1   2
BRANCH   1   6
ATOM      6  C   UNL     1       7.106  -0.075  -2.132  1.00  0.00     0.047 C 
BRANCH   6   7
ATOM      7  C   UNL     1       6.503   0.136  -0.818  1.00  0.00    -0.047 A 
ATOM      8  C   UNL     1       5.813   1.271  -0.467  1.00  0.00     0.004 A 
ATOM      9  C   UNL     1       6.624  -0.847   0.132  1.00  0.00     0.004 A 
ATOM     10  C   UNL     1       5.252   1.453   0.775  1.00  0.00     0.000 A 
ATOM     11  C   UNL     1       6.075  -0.698   1.385  1.00  0.00     0.000 A 
ATOM     12  C   UNL     1       5.378   0.461   1.723  1.00  0.00     0.000 A 
ENDBRANCH   6   7
ENDBRANCH   1   6
TORSDOF 4
ENDMDL
MODEL 3
REMARK VINA RESULT:      -7.1      0.419      1.765
REMARK SMILES O=C(O)CCc1ccccc1
REMARK SMILES IDX 4 1 2 2 1 3 3 4 5 6 6 7 7 8 11 9 8 10 10 11 9 12
REMARK H PARENT 3 5
REMARK Flexibility Score: inf
ROOT
ATOM      1  C   UNL     1       8.277  -1.135  -1.623  1.00  0.00     0.127 C 
ENDROOT
BRANCH   1   2
ATOM      2  C   UNL     1       8.274  -2.050  -2.794  1.00  0.00     0.303 C 
ATOM      3  O   UNL     1       7.232  -2.430  -3.385  1.00  0.00    -0.252 OA
BRANCH   2   4
ATOM      4  O   UNL     1       9.485  -2.523  -3.278  1.00  0.00    -0.481 OA
ATOM      5  H   UNL     1       9.554  -3.536  -3.401  1.00  0.00     0.296 HD
ENDBRANCH   2   4
ENDBRANCH   1   2
BRANCH   1   6
ATOM      6  C   UNL     1       7.214  -0.091  -1.803  1.00  0.00     0.047 C 
BRANCH   6   7
ATOM      7  C   UNL     1       6.476   0.235  -0.586  1.00  0.00    -0.047 A 
ATOM      8  C   UNL     1       5.756   1.392  -0.415  1.00  0.00     0.004 A 
ATOM      9  C   UNL     1       6.492  -0.656   0.458  1.00  0.00     0.004 A 
ATOM     10  C   UNL     1       5.067   1.683   0.738  1.00  0.00     0.000 A 
ATOM     11  C   UNL     1       5.814  -0.397   1.627  1.00  0.00     0.000 A 
ATOM     12  C   UNL     1       5.089   0.783   1.781  1.00  0.00     0.000 A 
ENDBRANCH   6   7
ENDBRANCH   1   6
TORSDOF 4
ENDMDL
MODEL 4
REMARK VINA RESULT:      -6.7      3.340      5.035
REMARK SMILES O=C(O)CCc1ccccc1
REMARK SMILES IDX 4 1 2 2 1 3 3 4 5 6 6 7 7 8 11 9 8 10 10 11 9 12
REMARK H PARENT 3 5
REMARK Flexibility Score: inf
ROOT
ATOM      1  C   UNL     1       5.030   1.757   0.708  1.00  0.00     0.127 C 
ENDROOT
BRANCH   1   2
ATOM      2  C   UNL     1       4.609   1.019   1.927  1.00  0.00     0.303 C 
ATOM      3  O   UNL     1       5.309   0.141   2.493  1.00  0.00    -0.252 OA
BRANCH   2   4
ATOM      4  O   UNL     1       3.373   1.302   2.488  1.00  0.00    -0.481 OA
ATOM      5  H   UNL     1       2.619   0.647   2.267  1.00  0.00     0.296 HD
ENDBRANCH   2   4
ENDBRANCH   1   2
BRANCH   1   6
ATOM      6  C   UNL     1       6.528   1.828   0.661  1.00  0.00     0.047 C 
BRANCH   6   7
ATOM      7  C   UNL     1       7.139   1.017  -0.390  1.00  0.00    -0.047 A 
ATOM      8  C   UNL     1       6.452   0.093  -1.138  1.00  0.00     0.004 A 
ATOM      9  C   UNL     1       8.476   1.176  -0.656  1.00  0.00     0.004 A 
ATOM     10  C   UNL     1       7.043  -0.663  -2.123  1.00  0.00     0.000 A 
ATOM     11  C   UNL     1       9.100   0.436  -1.635  1.00  0.00     0.000 A 
ATOM     12  C   UNL     1       8.386  -0.498  -2.384  1.00  0.00     0.000 A 
ENDBRANCH   6   7
ENDBRANCH   1   6
TORSDOF 4
ENDMDL
MODEL 5
REMARK VINA RESULT:      -6.7      2.008      2.659
REMARK SMILES O=C(O)CCc1ccccc1
REMARK SMILES IDX 4 1 2 2 1 3 3 4 5 6 6 7 7 8 11 9 8 10 10 11 9 12
REMARK H PARENT 3 5
REMARK Flexibility Score: inf
ROOT
ATOM      1  C   UNL     1       8.262   0.334  -2.008  1.00  0.00     0.127 C 
ENDROOT
BRANCH   1   2
ATOM      2  C   UNL     1       9.435   0.379  -1.096  1.00  0.00     0.303 C 
ATOM      3  O   UNL     1       9.562  -0.351  -0.080  1.00  0.00    -0.252 OA
BRANCH   2   4
ATOM      4  O   UNL     1      10.461   1.273  -1.366  1.00  0.00    -0.481 OA
ATOM      5  H   UNL     1      11.255   1.251  -0.723  1.00  0.00     0.296 HD
ENDBRANCH   2   4
ENDBRANCH   1   2
BRANCH   1   6
ATOM      6  C   UNL     1       7.195  -0.532  -1.406  1.00  0.00     0.047 C 
BRANCH   6   7
ATOM      7  C   UNL     1       6.386   0.129  -0.385  1.00  0.00    -0.047 A 
ATOM      8  C   UNL     1       5.809   1.364  -0.548  1.00  0.00     0.004 A 
ATOM      9  C   UNL     1       6.181  -0.509   0.814  1.00  0.00     0.004 A 
ATOM     10  C   UNL     1       5.050   1.972   0.423  1.00  0.00     0.000 A 
ATOM     11  C   UNL     1       5.427   0.070   1.809  1.00  0.00     0.000 A 
ATOM     12  C   UNL     1       4.849   1.325   1.624  1.00  0.00     0.000 A 
ENDBRANCH   6   7
ENDBRANCH   1   6
TORSDOF 4
ENDMDL
