@<TRIPOS>MOLECULE
/home/cewinharhar/GITHUB/reincatalyze/data/processed/docking_pred/2023-Apr-25-2140_maxeplen10_maxtrainstep200_exh16_gamma099_lrac3e-4_lrcr1e-3/437598aa9d4ddbb457dda5082e5f4820e6dbe55d_ligand_2.pdbqt
 12 12 0 0 0
SMALL
GASTEIGER

@<TRIPOS>ATOM
      1  C          8.4660   -0.6050   -2.1960 C.3     1  UNL1        0.1270
      2  C          8.5120   -1.8990   -2.9260 C.2     1  UNL1        0.3030
      3  O          9.5620   -2.5680   -3.1020 O.2     1  UNL1       -0.2520
      4  O          7.3360   -2.4150   -3.4490 O.3     1  UNL1       -0.4810
      5  H          6.6650   -1.7310   -3.8050 H       1  UNL1        0.2960
      6  C          7.0520   -0.1070   -2.1510 C.3     1  UNL1        0.0470
      7  C          6.5050    0.0380   -0.8040 C.2     1  UNL1       -0.0470
      8  C          6.5890   -0.9330    0.1640 C.2     1  UNL1        0.0040
      9  C          5.8670    1.2070   -0.4700 C.2     1  UNL1        0.0040
     10  C          6.0700   -0.7790    1.4270 C.2     1  UNL1        0.0000
     11  C          5.3350    1.3940    0.7850 C.2     1  UNL1        0.0000
     12  C          5.4310    0.3970    1.7540 C.2     1  UNL1        0.0000
@<TRIPOS>BOND
     1     5     4    1
     2     4     2    1
     3     3     2    2
     4     2     1    1
     5     1     6    1
     6     6     7    1
     7     7     9    2
     8     7     8    1
     9     9    11    1
    10     8    10    2
    11    11    12    2
    12    10    12    1
