@<TRIPOS>MOLECULE
/home/cewinharhar/GITHUB/reincatalyze/data/processed/docking_pred/2023-Apr-25-2140_maxeplen10_maxtrainstep200_exh16_gamma099_lrac3e-4_lrcr1e-3/437598aa9d4ddbb457dda5082e5f4820e6dbe55d_ligand_2.pdbqt
 12 12 0 0 0
SMALL
GASTEIGER

@<TRIPOS>ATOM
      1  C          8.4890   -0.6550   -2.0930 C.3     1  UNL1        0.1270
      2  C          8.5230   -1.9070   -2.8940 C.2     1  UNL1        0.3030
      3  O          9.5700   -2.5650   -3.1220 O.2     1  UNL1       -0.2520
      4  O          7.3390   -2.3930   -3.4280 O.3     1  UNL1       -0.4810
      5  H          7.0940   -3.3530   -3.1740 H       1  UNL1        0.2960
      6  C          7.1060   -0.0750   -2.1320 C.3     1  UNL1        0.0470
      7  C          6.5030    0.1360   -0.8180 C.2     1  UNL1       -0.0470
      8  C          5.8130    1.2710   -0.4670 C.2     1  UNL1        0.0040
      9  C          6.6240   -0.8470    0.1320 C.2     1  UNL1        0.0040
     10  C          5.2520    1.4530    0.7750 C.2     1  UNL1        0.0000
     11  C          6.0750   -0.6980    1.3850 C.2     1  UNL1        0.0000
     12  C          5.3780    0.4610    1.7230 C.2     1  UNL1        0.0000
@<TRIPOS>BOND
     1     4     5    1
     2     4     2    1
     3     3     2    2
     4     2     1    1
     5     6     1    1
     6     6     7    1
     7     7     8    2
     8     7     9    1
     9     8    10    1
    10     9    11    2
    11    10    12    2
    12    11    12    1
