MODEL 1
REMARK VINA RESULT:      -7.4      0.000      0.000
REMARK SMILES O=C(O)CCc1ccccc1
REMARK SMILES IDX 4 1 2 2 1 3 3 4 5 6 6 7 7 8 11 9 8 10 10 11 9 12
REMARK H PARENT 3 5
REMARK Flexibility Score: inf
ROOT
ATOM      1  C   UNL     1       8.457  -0.593  -2.199  1.00  0.00     0.127 C 
ENDROOT
BRANCH   1   2
ATOM      2  C   UNL     1       8.518  -1.890  -2.922  1.00  0.00     0.303 C 
ATOM      3  O   UNL     1       9.578  -2.540  -3.107  1.00  0.00    -0.252 OA
BRANCH   2   4
ATOM      4  O   UNL     1       7.346  -2.432  -3.427  1.00  0.00    -0.481 OA
ATOM      5  H   UNL     1       7.410  -3.392  -3.775  1.00  0.00     0.296 HD
ENDBRANCH   2   4
ENDBRANCH   1   2
BRANCH   1   6
ATOM      6  C   UNL     1       7.034  -0.119  -2.144  1.00  0.00     0.047 C 
BRANCH   6   7
ATOM      7  C   UNL     1       6.495   0.017  -0.793  1.00  0.00    -0.047 A 
ATOM      8  C   UNL     1       6.580  -0.963   0.166  1.00  0.00     0.004 A 
ATOM      9  C   UNL     1       5.863   1.185  -0.446  1.00  0.00     0.004 A 
ATOM     10  C   UNL     1       6.067  -0.819   1.433  1.00  0.00     0.000 A 
ATOM     11  C   UNL     1       5.337   1.363   0.813  1.00  0.00     0.000 A 
ATOM     12  C   UNL     1       5.434   0.357   1.773  1.00  0.00     0.000 A 
ENDBRANCH   6   7
ENDBRANCH   1   6
TORSDOF 4
ENDMDL
MODEL 2
REMARK VINA RESULT:      -7.3      0.063      1.426
REMARK SMILES O=C(O)CCc1ccccc1
REMARK SMILES IDX 4 1 2 2 1 3 3 4 5 6 6 7 7 8 11 9 8 10 10 11 9 12
REMARK H PARENT 3 5
REMARK Flexibility Score: inf
ROOT
ATOM      1  C   UNL     1       8.458  -0.584  -2.222  1.00  0.00     0.127 C 
ENDROOT
BRANCH   1   2
ATOM      2  C   UNL     1       8.526  -1.888  -2.932  1.00  0.00     0.303 C 
ATOM      3  O   UNL     1       9.587  -2.540  -3.100  1.00  0.00    -0.252 OA
BRANCH   2   4
ATOM      4  O   UNL     1       7.359  -2.433  -3.445  1.00  0.00    -0.481 OA
ATOM      5  H   UNL     1       6.760  -1.794  -3.973  1.00  0.00     0.296 HD
ENDBRANCH   2   4
ENDBRANCH   1   2
BRANCH   1   6
ATOM      6  C   UNL     1       7.035  -0.110  -2.182  1.00  0.00     0.047 C 
BRANCH   6   7
ATOM      7  C   UNL     1       6.500   0.084  -0.836  1.00  0.00    -0.047 A 
ATOM      8  C   UNL     1       5.861   1.227  -0.425  1.00  0.00     0.004 A 
ATOM      9  C   UNL     1       6.637  -0.927   0.083  1.00  0.00     0.004 A 
ATOM     10  C   UNL     1       5.364   1.393   0.846  1.00  0.00     0.000 A 
ATOM     11  C   UNL     1       6.153  -0.795   1.363  1.00  0.00     0.000 A 
ATOM     12  C   UNL     1       5.506   0.373   1.763  1.00  0.00     0.000 A 
ENDBRANCH   6   7
ENDBRANCH   1   6
TORSDOF 4
ENDMDL
MODEL 3
REMARK VINA RESULT:      -6.8      3.382      5.069
REMARK SMILES O=C(O)CCc1ccccc1
REMARK SMILES IDX 4 1 2 2 1 3 3 4 5 6 6 7 7 8 11 9 8 10 10 11 9 12
REMARK H PARENT 3 5
REMARK Flexibility Score: inf
ROOT
ATOM      1  C   UNL     1       5.027   1.814   0.727  1.00  0.00     0.127 C 
ENDROOT
BRANCH   1   2
ATOM      2  C   UNL     1       4.500   1.106   1.923  1.00  0.00     0.303 C 
ATOM      3  O   UNL     1       5.110   0.180   2.515  1.00  0.00    -0.252 OA
BRANCH   2   4
ATOM      4  O   UNL     1       3.265   1.477   2.432  1.00  0.00    -0.481 OA
ATOM      5  H   UNL     1       2.915   2.392   2.138  1.00  0.00     0.296 HD
ENDBRANCH   2   4
ENDBRANCH   1   2
BRANCH   1   6
ATOM      6  C   UNL     1       6.526   1.773   0.742  1.00  0.00     0.047 C 
BRANCH   6   7
ATOM      7  C   UNL     1       7.121   0.987  -0.336  1.00  0.00    -0.047 A 
ATOM      8  C   UNL     1       6.456  -0.004  -1.015  1.00  0.00     0.004 A 
ATOM      9  C   UNL     1       8.418   1.243  -0.705  1.00  0.00     0.004 A 
ATOM     10  C   UNL     1       7.031  -0.735  -2.028  1.00  0.00     0.000 A 
ATOM     11  C   UNL     1       9.025   0.531  -1.713  1.00  0.00     0.000 A 
ATOM     12  C   UNL     1       8.334  -0.472  -2.391  1.00  0.00     0.000 A 
ENDBRANCH   6   7
ENDBRANCH   1   6
TORSDOF 4
ENDMDL
MODEL 4
REMARK VINA RESULT:      -6.7      1.977      2.689
REMARK SMILES O=C(O)CCc1ccccc1
REMARK SMILES IDX 4 1 2 2 1 3 3 4 5 6 6 7 7 8 11 9 8 10 10 11 9 12
REMARK H PARENT 3 5
REMARK Flexibility Score: inf
ROOT
ATOM      1  C   UNL     1       8.315   0.335  -2.155  1.00  0.00     0.127 C 
ENDROOT
BRANCH   1   2
ATOM      2  C   UNL     1       9.425   0.352  -1.166  1.00  0.00     0.303 C 
ATOM      3  O   UNL     1       9.483  -0.406  -0.165  1.00  0.00    -0.252 OA
BRANCH   2   4
ATOM      4  O   UNL     1      10.467   1.250  -1.343  1.00  0.00    -0.481 OA
ATOM      5  H   UNL     1      10.669   1.517  -2.309  1.00  0.00     0.296 HD
ENDBRANCH   2   4
ENDBRANCH   1   2
BRANCH   1   6
ATOM      6  C   UNL     1       7.143  -0.404  -1.578  1.00  0.00     0.047 C 
BRANCH   6   7
ATOM      7  C   UNL     1       6.341   0.376  -0.638  1.00  0.00    -0.047 A 
ATOM      8  C   UNL     1       5.768   1.585  -0.942  1.00  0.00     0.004 A 
ATOM      9  C   UNL     1       6.141  -0.116   0.628  1.00  0.00     0.004 A 
ATOM     10  C   UNL     1       5.016   2.306  -0.045  1.00  0.00     0.000 A 
ATOM     11  C   UNL     1       5.395   0.579   1.552  1.00  0.00     0.000 A 
ATOM     12  C   UNL     1       4.820   1.805   1.224  1.00  0.00     0.000 A 
ENDBRANCH   6   7
ENDBRANCH   1   6
TORSDOF 4
ENDMDL
MODEL 5
REMARK VINA RESULT:      -6.6      3.844      4.957
REMARK SMILES O=C(O)CCc1ccccc1
REMARK SMILES IDX 4 1 2 2 1 3 3 4 5 6 6 7 7 8 11 9 8 10 10 11 9 12
REMARK H PARENT 3 5
REMARK Flexibility Score: inf
ROOT
ATOM      1  C   UNL     1       5.574   2.933  -0.032  1.00  0.00     0.127 C 
ENDROOT
BRANCH   1   2
ATOM      2  C   UNL     1       6.288   3.864   0.880  1.00  0.00     0.303 C 
ATOM      3  O   UNL     1       6.132   3.881   2.127  1.00  0.00    -0.252 OA
BRANCH   2   4
ATOM      4  O   UNL     1       7.184   4.775   0.341  1.00  0.00    -0.481 OA
ATOM      5  H   UNL     1       7.381   5.601   0.910  1.00  0.00     0.296 HD
ENDBRANCH   2   4
ENDBRANCH   1   2
BRANCH   1   6
ATOM      6  C   UNL     1       4.899   1.863   0.775  1.00  0.00     0.047 C 
BRANCH   6   7
ATOM      7  C   UNL     1       5.668   0.627   0.903  1.00  0.00    -0.047 A 
ATOM      8  C   UNL     1       5.750  -0.105   2.062  1.00  0.00     0.004 A 
ATOM      9  C   UNL     1       6.356   0.159  -0.189  1.00  0.00     0.004 A 
ATOM     10  C   UNL     1       6.478  -1.266   2.165  1.00  0.00     0.000 A 
ATOM     11  C   UNL     1       7.096  -0.999  -0.121  1.00  0.00     0.000 A 
ATOM     12  C   UNL     1       7.166  -1.730   1.064  1.00  0.00     0.000 A 
ENDBRANCH   6   7
ENDBRANCH   1   6
TORSDOF 4
ENDMDL
