@<TRIPOS>MOLECULE
/home/cewinharhar/GITHUB/reincatalyze/data/processed/docking_pred/2023-Apr-25-2140_maxeplen10_maxtrainstep200_exh16_gamma099_lrac3e-4_lrcr1e-3/46824fcf52dc560be674bfd6df7e039c48ea1670_ligand_2.pdbqt
 12 12 0 0 0
SMALL
GASTEIGER

@<TRIPOS>ATOM
      1  C          8.3150    0.3350   -2.1550 C.3     1  UNL1        0.1270
      2  C          9.4250    0.3520   -1.1660 C.2     1  UNL1        0.3030
      3  O          9.4830   -0.4060   -0.1650 O.2     1  UNL1       -0.2520
      4  O         10.4670    1.2500   -1.3430 O.3     1  UNL1       -0.4810
      5  H         10.6690    1.5170   -2.3090 H       1  UNL1        0.2960
      6  C          7.1430   -0.4040   -1.5780 C.3     1  UNL1        0.0470
      7  C          6.3410    0.3760   -0.6380 C.2     1  UNL1       -0.0470
      8  C          5.7680    1.5850   -0.9420 C.2     1  UNL1        0.0040
      9  C          6.1410   -0.1160    0.6280 C.2     1  UNL1        0.0040
     10  C          5.0160    2.3060   -0.0450 C.2     1  UNL1        0.0000
     11  C          5.3950    0.5790    1.5520 C.2     1  UNL1        0.0000
     12  C          4.8200    1.8050    1.2240 C.2     1  UNL1        0.0000
@<TRIPOS>BOND
     1     5     4    1
     2     1     6    1
     3     1     2    1
     4     6     7    1
     5     4     2    1
     6     2     3    2
     7     8     7    2
     8     8    10    1
     9     7     9    1
    10    10    12    2
    11     9    11    2
    12    12    11    1
