@<TRIPOS>MOLECULE
/home/cewinharhar/GITHUB/reincatalyze/data/processed/docking_pred/2023-Apr-25-2140_maxeplen10_maxtrainstep200_exh16_gamma099_lrac3e-4_lrcr1e-3/46824fcf52dc560be674bfd6df7e039c48ea1670_ligand_2.pdbqt
 12 12 0 0 0
SMALL
GASTEIGER

@<TRIPOS>ATOM
      1  C          5.5740    2.9330   -0.0320 C.3     1  UNL1        0.1270
      2  C          6.2880    3.8640    0.8800 C.2     1  UNL1        0.3030
      3  O          6.1320    3.8810    2.1270 O.2     1  UNL1       -0.2520
      4  O          7.1840    4.7750    0.3410 O.3     1  UNL1       -0.4810
      5  H          7.3810    5.6010    0.9100 H       1  UNL1        0.2960
      6  C          4.8990    1.8630    0.7750 C.3     1  UNL1        0.0470
      7  C          5.6680    0.6270    0.9030 C.2     1  UNL1       -0.0470
      8  C          5.7500   -0.1050    2.0620 C.2     1  UNL1        0.0040
      9  C          6.3560    0.1590   -0.1890 C.2     1  UNL1        0.0040
     10  C          6.4780   -1.2660    2.1650 C.2     1  UNL1        0.0000
     11  C          7.0960   -0.9990   -0.1210 C.2     1  UNL1        0.0000
     12  C          7.1660   -1.7300    1.0640 C.2     1  UNL1        0.0000
@<TRIPOS>BOND
     1     9    11    1
     2     9     7    2
     3    11    12    2
     4     1     6    1
     5     1     2    1
     6     4     2    1
     7     4     5    1
     8     6     7    1
     9     2     3    2
    10     7     8    1
    11    12    10    1
    12     8    10    2
