@<TRIPOS>MOLECULE
/home/cewinharhar/GITHUB/reincatalyze/data/processed/docking_pred/2023-Apr-25-2140_maxeplen10_maxtrainstep200_exh16_gamma099_lrac3e-4_lrcr1e-3/46824fcf52dc560be674bfd6df7e039c48ea1670_ligand_2.pdbqt
 12 12 0 0 0
SMALL
GASTEIGER

@<TRIPOS>ATOM
      1  C          8.4570   -0.5930   -2.1990 C.3     1  UNL1        0.1270
      2  C          8.5180   -1.8900   -2.9220 C.2     1  UNL1        0.3030
      3  O          9.5780   -2.5400   -3.1070 O.2     1  UNL1       -0.2520
      4  O          7.3460   -2.4320   -3.4270 O.3     1  UNL1       -0.4810
      5  H          7.4100   -3.3920   -3.7750 H       1  UNL1        0.2960
      6  C          7.0340   -0.1190   -2.1440 C.3     1  UNL1        0.0470
      7  C          6.4950    0.0170   -0.7930 C.2     1  UNL1       -0.0470
      8  C          6.5800   -0.9630    0.1660 C.2     1  UNL1        0.0040
      9  C          5.8630    1.1850   -0.4460 C.2     1  UNL1        0.0040
     10  C          6.0670   -0.8190    1.4330 C.2     1  UNL1        0.0000
     11  C          5.3370    1.3630    0.8130 C.2     1  UNL1        0.0000
     12  C          5.4340    0.3570    1.7730 C.2     1  UNL1        0.0000
@<TRIPOS>BOND
     1     5     4    1
     2     4     2    1
     3     3     2    2
     4     2     1    1
     5     1     6    1
     6     6     7    1
     7     7     9    2
     8     7     8    1
     9     9    11    1
    10     8    10    2
    11    11    12    2
    12    10    12    1
