@<TRIPOS>MOLECULE
/home/cewinharhar/GITHUB/reincatalyze/data/processed/docking_pred/2023-Apr-25-2140_maxeplen10_maxtrainstep200_exh16_gamma099_lrac3e-4_lrcr1e-3/46824fcf52dc560be674bfd6df7e039c48ea1670_ligand_2.pdbqt
 12 12 0 0 0
SMALL
GASTEIGER

@<TRIPOS>ATOM
      1  C          8.4580   -0.5840   -2.2220 C.3     1  UNL1        0.1270
      2  C          8.5260   -1.8880   -2.9320 C.2     1  UNL1        0.3030
      3  O          9.5870   -2.5400   -3.1000 O.2     1  UNL1       -0.2520
      4  O          7.3590   -2.4330   -3.4450 O.3     1  UNL1       -0.4810
      5  H          6.7600   -1.7940   -3.9730 H       1  UNL1        0.2960
      6  C          7.0350   -0.1100   -2.1820 C.3     1  UNL1        0.0470
      7  C          6.5000    0.0840   -0.8360 C.2     1  UNL1       -0.0470
      8  C          5.8610    1.2270   -0.4250 C.2     1  UNL1        0.0040
      9  C          6.6370   -0.9270    0.0830 C.2     1  UNL1        0.0040
     10  C          5.3640    1.3930    0.8460 C.2     1  UNL1        0.0000
     11  C          6.1530   -0.7950    1.3630 C.2     1  UNL1        0.0000
     12  C          5.5060    0.3730    1.7630 C.2     1  UNL1        0.0000
@<TRIPOS>BOND
     1     5     4    1
     2     4     2    1
     3     3     2    2
     4     2     1    1
     5     1     6    1
     6     6     7    1
     7     7     8    2
     8     7     9    1
     9     8    10    1
    10     9    11    2
    11    10    12    2
    12    11    12    1
