@<TRIPOS>MOLECULE
/home/cewinharhar/GITHUB/reincatalyze/data/processed/docking_pred/2023-Apr-25-2140_maxeplen10_maxtrainstep200_exh16_gamma099_lrac3e-4_lrcr1e-3/46824fcf52dc560be674bfd6df7e039c48ea1670_ligand_2.pdbqt
 12 12 0 0 0
SMALL
GASTEIGER

@<TRIPOS>ATOM
      1  C          5.0270    1.8140    0.7270 C.3     1  UNL1        0.1270
      2  C          4.5000    1.1060    1.9230 C.2     1  UNL1        0.3030
      3  O          5.1100    0.1800    2.5150 O.2     1  UNL1       -0.2520
      4  O          3.2650    1.4770    2.4320 O.3     1  UNL1       -0.4810
      5  H          2.9150    2.3920    2.1380 H       1  UNL1        0.2960
      6  C          6.5260    1.7730    0.7420 C.3     1  UNL1        0.0470
      7  C          7.1210    0.9870   -0.3360 C.2     1  UNL1       -0.0470
      8  C          6.4560   -0.0040   -1.0150 C.2     1  UNL1        0.0040
      9  C          8.4180    1.2430   -0.7050 C.2     1  UNL1        0.0040
     10  C          7.0310   -0.7350   -2.0280 C.2     1  UNL1        0.0000
     11  C          9.0250    0.5310   -1.7130 C.2     1  UNL1        0.0000
     12  C          8.3340   -0.4720   -2.3910 C.2     1  UNL1        0.0000
@<TRIPOS>BOND
     1    12    10    2
     2    12    11    1
     3    10     8    1
     4    11     9    2
     5     8     7    2
     6     9     7    1
     7     7     6    1
     8     1     6    1
     9     1     2    1
    10     2     4    1
    11     2     3    2
    12     5     4    1
