@<TRIPOS>MOLECULE
/home/cewinharhar/GITHUB/reincatalyze/data/processed/docking_pred/2023-Apr-25-2140_maxeplen10_maxtrainstep200_exh16_gamma099_lrac3e-4_lrcr1e-3/46861e00ed193d15618049a480e2ca269f83ce14_ligand_2.pdbqt
 12 12 0 0 0
SMALL
GASTEIGER

@<TRIPOS>ATOM
      1  C          8.4130   -0.5220   -2.2830 C.3     1  UNL1        0.1270
      2  C          8.4910   -1.8510   -2.9450 C.2     1  UNL1        0.3030
      3  O          9.5560   -2.5030   -3.0840 O.2     1  UNL1       -0.2520
      4  O          7.3290   -2.4200   -3.4440 O.3     1  UNL1       -0.4810
      5  H          6.9110   -1.9520   -4.2510 H       1  UNL1        0.2960
      6  C          6.9770   -0.0980   -2.1820 C.3     1  UNL1        0.0470
      7  C          6.4810    0.0300   -0.8130 C.2     1  UNL1       -0.0470
      8  C          6.6020   -0.9520    0.1390 C.2     1  UNL1        0.0040
      9  C          5.8530    1.1930   -0.4430 C.2     1  UNL1        0.0040
     10  C          6.1290   -0.8150    1.4220 C.2     1  UNL1        0.0000
     11  C          5.3670    1.3640    0.8330 C.2     1  UNL1        0.0000
     12  C          5.5000    0.3560    1.7860 C.2     1  UNL1        0.0000
@<TRIPOS>BOND
     1     5     4    1
     2     4     2    1
     3     3     2    2
     4     2     1    1
     5     1     6    1
     6     6     7    1
     7     7     9    2
     8     7     8    1
     9     9    11    1
    10     8    10    2
    11    11    12    2
    12    10    12    1
