@<TRIPOS>MOLECULE
/home/cewinharhar/GITHUB/reincatalyze/data/processed/docking_pred/2023-Apr-25-2140_maxeplen10_maxtrainstep200_exh16_gamma099_lrac3e-4_lrcr1e-3/46861e00ed193d15618049a480e2ca269f83ce14_ligand_2.pdbqt
 12 12 0 0 0
SMALL
GASTEIGER

@<TRIPOS>ATOM
      1  C          8.5000    0.6540   -1.7100 C.3     1  UNL1        0.1270
      2  C          9.6290    0.2680   -0.8240 C.2     1  UNL1        0.3030
      3  O          9.5140   -0.5050    0.1610 O.2     1  UNL1       -0.2520
      4  O         10.8910    0.7790   -1.0850 O.3     1  UNL1       -0.4810
      5  H         11.4490    1.0350   -0.2670 H       1  UNL1        0.2960
      6  C          7.3110   -0.2120   -1.4110 C.3     1  UNL1        0.0470
      7  C          6.4320    0.3070   -0.3660 C.2     1  UNL1       -0.0470
      8  C          6.1780   -0.3470    0.8140 C.2     1  UNL1        0.0040
      9  C          5.8170    1.5190   -0.5610 C.2     1  UNL1        0.0040
     10  C          5.3480    0.1560    1.7870 C.2     1  UNL1        0.0000
     11  C          4.9790    2.0520    0.3920 C.2     1  UNL1        0.0000
     12  C          4.7330    1.3730    1.5840 C.2     1  UNL1        0.0000
@<TRIPOS>BOND
     1     1     6    1
     2     1     2    1
     3     6     7    1
     4     4     2    1
     5     4     5    1
     6     2     3    2
     7     9     7    2
     8     9    11    1
     9     7     8    1
    10    11    12    2
    11     8    10    2
    12    12    10    1
