@<TRIPOS>MOLECULE
/home/cewinharhar/GITHUB/reincatalyze/data/processed/docking_pred/2023-Apr-25-2140_maxeplen10_maxtrainstep200_exh16_gamma099_lrac3e-4_lrcr1e-3/46861e00ed193d15618049a480e2ca269f83ce14_ligand_2.pdbqt
 12 12 0 0 0
SMALL
GASTEIGER

@<TRIPOS>ATOM
      1  C          8.4280   -0.5690   -2.2170 C.3     1  UNL1        0.1270
      2  C          8.5020   -1.8800   -2.9140 C.2     1  UNL1        0.3030
      3  O          9.5700   -2.5170   -3.0970 O.2     1  UNL1       -0.2520
      4  O          7.3330   -2.4490   -3.3970 O.3     1  UNL1       -0.4810
      5  H          6.9990   -2.0930   -4.2960 H       1  UNL1        0.2960
      6  C          7.0010   -0.1060   -2.1740 C.3     1  UNL1        0.0470
      7  C          6.4670    0.0800   -0.8270 C.2     1  UNL1       -0.0470
      8  C          5.8290    1.2210   -0.4090 C.2     1  UNL1        0.0040
      9  C          6.6040   -0.9370    0.0850 C.2     1  UNL1        0.0040
     10  C          5.3320    1.3790    0.8630 C.2     1  UNL1        0.0000
     11  C          6.1190   -0.8130    1.3670 C.2     1  UNL1        0.0000
     12  C          5.4730    0.3540    1.7730 C.2     1  UNL1        0.0000
@<TRIPOS>BOND
     1     5     4    1
     2     4     2    1
     3     3     2    2
     4     2     1    1
     5     1     6    1
     6     6     7    1
     7     7     8    2
     8     7     9    1
     9     8    10    1
    10     9    11    2
    11    10    12    2
    12    11    12    1
