MODEL 1
REMARK VINA RESULT:      -7.4      0.000      0.000
REMARK SMILES O=C(O)CCc1ccccc1
REMARK SMILES IDX 4 1 2 2 1 3 3 4 5 6 6 7 7 8 11 9 8 10 10 11 9 12
REMARK H PARENT 3 5
REMARK Flexibility Score: inf
ROOT
ATOM      1  C   UNL     1       8.428  -0.569  -2.217  1.00  0.00     0.127 C 
ENDROOT
BRANCH   1   2
ATOM      2  C   UNL     1       8.502  -1.880  -2.914  1.00  0.00     0.303 C 
ATOM      3  O   UNL     1       9.570  -2.517  -3.097  1.00  0.00    -0.252 OA
BRANCH   2   4
ATOM      4  O   UNL     1       7.333  -2.449  -3.397  1.00  0.00    -0.481 OA
ATOM      5  H   UNL     1       6.999  -2.093  -4.296  1.00  0.00     0.296 HD
ENDBRANCH   2   4
ENDBRANCH   1   2
BRANCH   1   6
ATOM      6  C   UNL     1       7.001  -0.106  -2.174  1.00  0.00     0.047 C 
BRANCH   6   7
ATOM      7  C   UNL     1       6.467   0.080  -0.827  1.00  0.00    -0.047 A 
ATOM      8  C   UNL     1       5.829   1.221  -0.409  1.00  0.00     0.004 A 
ATOM      9  C   UNL     1       6.604  -0.937   0.085  1.00  0.00     0.004 A 
ATOM     10  C   UNL     1       5.332   1.379   0.863  1.00  0.00     0.000 A 
ATOM     11  C   UNL     1       6.119  -0.813   1.367  1.00  0.00     0.000 A 
ATOM     12  C   UNL     1       5.473   0.354   1.773  1.00  0.00     0.000 A 
ENDBRANCH   6   7
ENDBRANCH   1   6
TORSDOF 4
ENDMDL
MODEL 2
REMARK VINA RESULT:      -7.3      0.050      1.426
REMARK SMILES O=C(O)CCc1ccccc1
REMARK SMILES IDX 4 1 2 2 1 3 3 4 5 6 6 7 7 8 11 9 8 10 10 11 9 12
REMARK H PARENT 3 5
REMARK Flexibility Score: inf
ROOT
ATOM      1  C   UNL     1       8.413  -0.522  -2.283  1.00  0.00     0.127 C 
ENDROOT
BRANCH   1   2
ATOM      2  C   UNL     1       8.491  -1.851  -2.945  1.00  0.00     0.303 C 
ATOM      3  O   UNL     1       9.556  -2.503  -3.084  1.00  0.00    -0.252 OA
BRANCH   2   4
ATOM      4  O   UNL     1       7.329  -2.420  -3.444  1.00  0.00    -0.481 OA
ATOM      5  H   UNL     1       6.911  -1.952  -4.251  1.00  0.00     0.296 HD
ENDBRANCH   2   4
ENDBRANCH   1   2
BRANCH   1   6
ATOM      6  C   UNL     1       6.977  -0.098  -2.182  1.00  0.00     0.047 C 
BRANCH   6   7
ATOM      7  C   UNL     1       6.481   0.030  -0.813  1.00  0.00    -0.047 A 
ATOM      8  C   UNL     1       6.602  -0.952   0.139  1.00  0.00     0.004 A 
ATOM      9  C   UNL     1       5.853   1.193  -0.443  1.00  0.00     0.004 A 
ATOM     10  C   UNL     1       6.129  -0.815   1.422  1.00  0.00     0.000 A 
ATOM     11  C   UNL     1       5.367   1.364   0.833  1.00  0.00     0.000 A 
ATOM     12  C   UNL     1       5.500   0.356   1.786  1.00  0.00     0.000 A 
ENDBRANCH   6   7
ENDBRANCH   1   6
TORSDOF 4
ENDMDL
MODEL 3
REMARK VINA RESULT:      -6.8      3.375      5.068
REMARK SMILES O=C(O)CCc1ccccc1
REMARK SMILES IDX 4 1 2 2 1 3 3 4 5 6 6 7 7 8 11 9 8 10 10 11 9 12
REMARK H PARENT 3 5
REMARK Flexibility Score: inf
ROOT
ATOM      1  C   UNL     1       4.980   1.783   0.691  1.00  0.00     0.127 C 
ENDROOT
BRANCH   1   2
ATOM      2  C   UNL     1       4.498   1.092   1.914  1.00  0.00     0.303 C 
ATOM      3  O   UNL     1       5.138   0.186   2.506  1.00  0.00    -0.252 OA
BRANCH   2   4
ATOM      4  O   UNL     1       3.271   1.455   2.450  1.00  0.00    -0.481 OA
ATOM      5  H   UNL     1       3.285   1.788   3.417  1.00  0.00     0.296 HD
ENDBRANCH   2   4
ENDBRANCH   1   2
BRANCH   1   6
ATOM      6  C   UNL     1       6.479   1.862   0.720  1.00  0.00     0.047 C 
BRANCH   6   7
ATOM      7  C   UNL     1       7.144   1.105  -0.339  1.00  0.00    -0.047 A 
ATOM      8  C   UNL     1       8.480   1.218  -0.635  1.00  0.00     0.004 A 
ATOM      9  C   UNL     1       6.403   0.227  -1.090  1.00  0.00     0.004 A 
ATOM     10  C   UNL     1       9.090   0.498  -1.634  1.00  0.00     0.000 A 
ATOM     11  C   UNL     1       6.981  -0.509  -2.099  1.00  0.00     0.000 A 
ATOM     12  C   UNL     1       8.339  -0.382  -2.384  1.00  0.00     0.000 A 
ENDBRANCH   6   7
ENDBRANCH   1   6
TORSDOF 4
ENDMDL
MODEL 4
REMARK VINA RESULT:      -6.7      3.832      4.937
REMARK SMILES O=C(O)CCc1ccccc1
REMARK SMILES IDX 4 1 2 2 1 3 3 4 5 6 6 7 7 8 11 9 8 10 10 11 9 12
REMARK H PARENT 3 5
REMARK Flexibility Score: inf
ROOT
ATOM      1  C   UNL     1       5.504   2.900  -0.017  1.00  0.00     0.127 C 
ENDROOT
BRANCH   1   2
ATOM      2  C   UNL     1       6.269   3.899   0.773  1.00  0.00     0.303 C 
ATOM      3  O   UNL     1       7.013   4.775   0.264  1.00  0.00    -0.252 OA
BRANCH   2   4
ATOM      4  O   UNL     1       6.168   3.879   2.156  1.00  0.00    -0.481 OA
ATOM      5  H   UNL     1       7.051   3.830   2.670  1.00  0.00     0.296 HD
ENDBRANCH   2   4
ENDBRANCH   1   2
BRANCH   1   6
ATOM      6  C   UNL     1       4.982   1.832   0.898  1.00  0.00     0.047 C 
BRANCH   6   7
ATOM      7  C   UNL     1       5.782   0.609   0.916  1.00  0.00    -0.047 A 
ATOM      8  C   UNL     1       6.530   0.169  -0.148  1.00  0.00     0.004 A 
ATOM      9  C   UNL     1       5.795  -0.157   2.055  1.00  0.00     0.004 A 
ATOM     10  C   UNL     1       7.276  -0.984  -0.115  1.00  0.00     0.000 A 
ATOM     11  C   UNL     1       6.531  -1.318   2.124  1.00  0.00     0.000 A 
ATOM     12  C   UNL     1       7.285  -1.748   1.033  1.00  0.00     0.000 A 
ENDBRANCH   6   7
ENDBRANCH   1   6
TORSDOF 4
ENDMDL
MODEL 5
REMARK VINA RESULT:      -6.6      2.080      2.724
REMARK SMILES O=C(O)CCc1ccccc1
REMARK SMILES IDX 4 1 2 2 1 3 3 4 5 6 6 7 7 8 11 9 8 10 10 11 9 12
REMARK H PARENT 3 5
REMARK Flexibility Score: inf
ROOT
ATOM      1  C   UNL     1       8.500   0.654  -1.710  1.00  0.00     0.127 C 
ENDROOT
BRANCH   1   2
ATOM      2  C   UNL     1       9.629   0.268  -0.824  1.00  0.00     0.303 C 
ATOM      3  O   UNL     1       9.514  -0.505   0.161  1.00  0.00    -0.252 OA
BRANCH   2   4
ATOM      4  O   UNL     1      10.891   0.779  -1.085  1.00  0.00    -0.481 OA
ATOM      5  H   UNL     1      11.449   1.035  -0.267  1.00  0.00     0.296 HD
ENDBRANCH   2   4
ENDBRANCH   1   2
BRANCH   1   6
ATOM      6  C   UNL     1       7.311  -0.212  -1.411  1.00  0.00     0.047 C 
BRANCH   6   7
ATOM      7  C   UNL     1       6.432   0.307  -0.366  1.00  0.00    -0.047 A 
ATOM      8  C   UNL     1       6.178  -0.347   0.814  1.00  0.00     0.004 A 
ATOM      9  C   UNL     1       5.817   1.519  -0.561  1.00  0.00     0.004 A 
ATOM     10  C   UNL     1       5.348   0.156   1.787  1.00  0.00     0.000 A 
ATOM     11  C   UNL     1       4.979   2.052   0.392  1.00  0.00     0.000 A 
ATOM     12  C   UNL     1       4.733   1.373   1.584  1.00  0.00     0.000 A 
ENDBRANCH   6   7
ENDBRANCH   1   6
TORSDOF 4
ENDMDL
