@<TRIPOS>MOLECULE
/home/cewinharhar/GITHUB/reincatalyze/data/processed/docking_pred/2023-Apr-25-2140_maxeplen10_maxtrainstep200_exh16_gamma099_lrac3e-4_lrcr1e-3/46861e00ed193d15618049a480e2ca269f83ce14_ligand_2.pdbqt
 12 12 0 0 0
SMALL
GASTEIGER

@<TRIPOS>ATOM
      1  C          4.9800    1.7830    0.6910 C.3     1  UNL1        0.1270
      2  C          4.4980    1.0920    1.9140 C.2     1  UNL1        0.3030
      3  O          5.1380    0.1860    2.5060 O.2     1  UNL1       -0.2520
      4  O          3.2710    1.4550    2.4500 O.3     1  UNL1       -0.4810
      5  H          3.2850    1.7880    3.4170 H       1  UNL1        0.2960
      6  C          6.4790    1.8620    0.7200 C.3     1  UNL1        0.0470
      7  C          7.1440    1.1050   -0.3390 C.2     1  UNL1       -0.0470
      8  C          8.4800    1.2180   -0.6350 C.2     1  UNL1        0.0040
      9  C          6.4030    0.2270   -1.0900 C.2     1  UNL1        0.0040
     10  C          9.0900    0.4980   -1.6340 C.2     1  UNL1        0.0000
     11  C          6.9810   -0.5090   -2.0990 C.2     1  UNL1        0.0000
     12  C          8.3390   -0.3820   -2.3840 C.2     1  UNL1        0.0000
@<TRIPOS>BOND
     1    12    11    2
     2    12    10    1
     3    11     9    1
     4    10     8    2
     5     9     7    2
     6     8     7    1
     7     7     6    1
     8     1     6    1
     9     1     2    1
    10     2     4    1
    11     2     3    2
    12     4     5    1
