@<TRIPOS>MOLECULE
/home/cewinharhar/GITHUB/reincatalyze/data/processed/docking_pred/2023-Apr-25-2140_maxeplen10_maxtrainstep200_exh16_gamma099_lrac3e-4_lrcr1e-3/46861e00ed193d15618049a480e2ca269f83ce14_ligand_2.pdbqt
 12 12 0 0 0
SMALL
GASTEIGER

@<TRIPOS>ATOM
      1  C          5.5040    2.9000   -0.0170 C.3     1  UNL1        0.1270
      2  C          6.2690    3.8990    0.7730 C.2     1  UNL1        0.3030
      3  O          7.0130    4.7750    0.2640 O.2     1  UNL1       -0.2520
      4  O          6.1680    3.8790    2.1560 O.3     1  UNL1       -0.4810
      5  H          7.0510    3.8300    2.6700 H       1  UNL1        0.2960
      6  C          4.9820    1.8320    0.8980 C.3     1  UNL1        0.0470
      7  C          5.7820    0.6090    0.9160 C.2     1  UNL1       -0.0470
      8  C          6.5300    0.1690   -0.1480 C.2     1  UNL1        0.0040
      9  C          5.7950   -0.1570    2.0550 C.2     1  UNL1        0.0040
     10  C          7.2760   -0.9840   -0.1150 C.2     1  UNL1        0.0000
     11  C          6.5310   -1.3180    2.1240 C.2     1  UNL1        0.0000
     12  C          7.2850   -1.7480    1.0330 C.2     1  UNL1        0.0000
@<TRIPOS>BOND
     1     8    10    1
     2     8     7    2
     3    10    12    2
     4     1     2    1
     5     1     6    1
     6     3     2    2
     7     2     4    1
     8     6     7    1
     9     7     9    1
    10    12    11    1
    11     9    11    2
    12     4     5    1
