@<TRIPOS>MOLECULE
/home/cewinharhar/GITHUB/reincatalyze/data/processed/docking_pred/2023-Apr-25-2140_maxeplen10_maxtrainstep200_exh16_gamma099_lrac3e-4_lrcr1e-3/4c3a486d5bbb1ad3c8ce5b6da142191fd088767a_ligand_2.pdbqt
 12 12 0 0 0
SMALL
GASTEIGER

@<TRIPOS>ATOM
      1  C          8.4730   -0.6070   -2.1710 C.3     1  UNL1        0.1270
      2  C          8.5210   -1.8980   -2.9060 C.2     1  UNL1        0.3030
      3  O          9.5770   -2.5490   -3.1100 O.2     1  UNL1       -0.2520
      4  O          7.3410   -2.4320   -3.4010 O.3     1  UNL1       -0.4810
      5  H          6.6660   -1.7590   -3.7710 H       1  UNL1        0.2960
      6  C          7.0590   -0.1060   -2.1340 C.3     1  UNL1        0.0470
      7  C          6.5040    0.0350   -0.7900 C.2     1  UNL1       -0.0470
      8  C          6.5900   -0.9350    0.1790 C.2     1  UNL1        0.0040
      9  C          5.8540    1.1990   -0.4610 C.2     1  UNL1        0.0040
     10  C          6.0620   -0.7850    1.4390 C.2     1  UNL1        0.0000
     11  C          5.3120    1.3820    0.7910 C.2     1  UNL1        0.0000
     12  C          5.4110    0.3860    1.7610 C.2     1  UNL1        0.0000
@<TRIPOS>BOND
     1     5     4    1
     2     4     2    1
     3     3     2    2
     4     2     1    1
     5     1     6    1
     6     6     7    1
     7     7     9    2
     8     7     8    1
     9     9    11    1
    10     8    10    2
    11    11    12    2
    12    10    12    1
