@<TRIPOS>MOLECULE
/home/cewinharhar/GITHUB/reincatalyze/data/processed/docking_pred/2023-Apr-25-2140_maxeplen10_maxtrainstep200_exh16_gamma099_lrac3e-4_lrcr1e-3/4c3a486d5bbb1ad3c8ce5b6da142191fd088767a_ligand_2.pdbqt
 12 12 0 0 0
SMALL
GASTEIGER

@<TRIPOS>ATOM
      1  C          8.1120   -2.0060    0.7810 C.3     1  UNL1        0.1270
      2  C          8.3670   -3.4470    1.0400 C.2     1  UNL1        0.3030
      3  O          9.4440   -4.0310    0.7560 O.2     1  UNL1       -0.2520
      4  O          7.3700   -4.2090    1.6310 O.3     1  UNL1       -0.4810
      5  H          6.4850   -4.2610    1.1220 H       1  UNL1        0.2960
      6  C          6.7890   -1.6190    1.3750 C.3     1  UNL1        0.0470
      7  C          6.2430   -0.3630    0.8650 C.2     1  UNL1       -0.0470
      8  C          5.4850    0.5020    1.6160 C.2     1  UNL1        0.0040
      9  C          6.4930   -0.0130   -0.4390 C.2     1  UNL1        0.0040
     10  C          4.9790    1.6790    1.1200 C.2     1  UNL1        0.0000
     11  C          6.0010    1.1570   -0.9680 C.2     1  UNL1        0.0000
     12  C          5.2340    2.0230   -0.1900 C.2     1  UNL1        0.0000
@<TRIPOS>BOND
     1    11     9    1
     2    11    12    2
     3     9     7    2
     4    12    10    1
     5     3     2    2
     6     1     2    1
     7     1     6    1
     8     7     6    1
     9     7     8    1
    10     2     4    1
    11    10     8    2
    12     5     4    1
