@<TRIPOS>MOLECULE
/home/cewinharhar/GITHUB/reincatalyze/data/processed/docking_pred/2023-Apr-25-2140_maxeplen10_maxtrainstep200_exh16_gamma099_lrac3e-4_lrcr1e-3/4c3a486d5bbb1ad3c8ce5b6da142191fd088767a_ligand_2.pdbqt
 12 12 0 0 0
SMALL
GASTEIGER

@<TRIPOS>ATOM
      1  C          8.3080    0.1040   -2.2240 C.3     1  UNL1        0.1270
      2  C          9.3840    0.3110   -1.2200 C.2     1  UNL1        0.3030
      3  O          9.5070   -0.3730   -0.1730 O.2     1  UNL1       -0.2520
      4  O         10.3180    1.3130   -1.4360 O.3     1  UNL1       -0.4810
      5  H         10.3770    2.0340   -0.7120 H       1  UNL1        0.2960
      6  C          7.1360   -0.5650   -1.5680 C.3     1  UNL1        0.0470
      7  C          6.3620    0.3030   -0.6830 C.2     1  UNL1       -0.0470
      8  C          5.8390    1.5130   -1.0650 C.2     1  UNL1        0.0040
      9  C          6.1370   -0.1010    0.6090 C.2     1  UNL1        0.0040
     10  C          5.1140    2.3180   -0.2190 C.2     1  UNL1        0.0000
     11  C          5.4160    0.6790    1.4840 C.2     1  UNL1        0.0000
     12  C          4.8930    1.9050    1.0770 C.2     1  UNL1        0.0000
@<TRIPOS>BOND
     1     1     6    1
     2     1     2    1
     3     6     7    1
     4     4     2    1
     5     4     5    1
     6     2     3    2
     7     8     7    2
     8     8    10    1
     9     7     9    1
    10    10    12    2
    11     9    11    2
    12    12    11    1
