@<TRIPOS>MOLECULE
/home/cewinharhar/GITHUB/reincatalyze/data/processed/docking_pred/2023-Apr-25-2140_maxeplen10_maxtrainstep200_exh16_gamma099_lrac3e-4_lrcr1e-3/4c3a486d5bbb1ad3c8ce5b6da142191fd088767a_ligand_2.pdbqt
 12 12 0 0 0
SMALL
GASTEIGER

@<TRIPOS>ATOM
      1  C          5.0260    1.7840    0.6900 C.3     1  UNL1        0.1270
      2  C          4.6030    1.0600    1.9180 C.2     1  UNL1        0.3030
      3  O          5.3060    0.1960    2.5000 O.2     1  UNL1       -0.2520
      4  O          3.3610    1.3420    2.4680 O.3     1  UNL1       -0.4810
      5  H          3.0950    0.7850    3.2820 H       1  UNL1        0.2960
      6  C          6.5240    1.8510    0.6420 C.3     1  UNL1        0.0470
      7  C          7.1320    1.0320   -0.4040 C.2     1  UNL1       -0.0470
      8  C          6.4470    0.0920   -1.1330 C.2     1  UNL1        0.0040
      9  C          8.4660    1.1990   -0.6850 C.2     1  UNL1        0.0040
     10  C          7.0350   -0.6700   -2.1140 C.2     1  UNL1        0.0000
     11  C          9.0860    0.4530   -1.6590 C.2     1  UNL1        0.0000
     12  C          8.3740   -0.4970   -2.3900 C.2     1  UNL1        0.0000
@<TRIPOS>BOND
     1    12    10    2
     2    12    11    1
     3    10     8    1
     4    11     9    2
     5     8     7    2
     6     9     7    1
     7     7     6    1
     8     6     1    1
     9     1     2    1
    10     2     4    1
    11     2     3    2
    12     4     5    1
