MODEL 1
REMARK VINA RESULT:      -7.3      0.000      0.000
REMARK SMILES O=C(O)CCc1ccccc1
REMARK SMILES IDX 4 1 2 2 1 3 3 4 5 6 6 7 7 8 11 9 8 10 10 11 9 12
REMARK H PARENT 3 5
REMARK Flexibility Score: inf
ROOT
ATOM      1  C   UNL     1       8.473  -0.607  -2.171  1.00  0.00     0.127 C 
ENDROOT
BRANCH   1   2
ATOM      2  C   UNL     1       8.521  -1.898  -2.906  1.00  0.00     0.303 C 
ATOM      3  O   UNL     1       9.577  -2.549  -3.110  1.00  0.00    -0.252 OA
BRANCH   2   4
ATOM      4  O   UNL     1       7.341  -2.432  -3.401  1.00  0.00    -0.481 OA
ATOM      5  H   UNL     1       6.666  -1.759  -3.771  1.00  0.00     0.296 HD
ENDBRANCH   2   4
ENDBRANCH   1   2
BRANCH   1   6
ATOM      6  C   UNL     1       7.059  -0.106  -2.134  1.00  0.00     0.047 C 
BRANCH   6   7
ATOM      7  C   UNL     1       6.504   0.035  -0.790  1.00  0.00    -0.047 A 
ATOM      8  C   UNL     1       6.590  -0.935   0.179  1.00  0.00     0.004 A 
ATOM      9  C   UNL     1       5.854   1.199  -0.461  1.00  0.00     0.004 A 
ATOM     10  C   UNL     1       6.062  -0.785   1.439  1.00  0.00     0.000 A 
ATOM     11  C   UNL     1       5.312   1.382   0.791  1.00  0.00     0.000 A 
ATOM     12  C   UNL     1       5.411   0.386   1.761  1.00  0.00     0.000 A 
ENDBRANCH   6   7
ENDBRANCH   1   6
TORSDOF 4
ENDMDL
MODEL 2
REMARK VINA RESULT:      -7.2      0.088      1.427
REMARK SMILES O=C(O)CCc1ccccc1
REMARK SMILES IDX 4 1 2 2 1 3 3 4 5 6 6 7 7 8 11 9 8 10 10 11 9 12
REMARK H PARENT 3 5
REMARK Flexibility Score: inf
ROOT
ATOM      1  C   UNL     1       8.428  -0.553  -2.258  1.00  0.00     0.127 C 
ENDROOT
BRANCH   1   2
ATOM      2  C   UNL     1       8.513  -1.873  -2.936  1.00  0.00     0.303 C 
ATOM      3  O   UNL     1       9.583  -2.516  -3.086  1.00  0.00    -0.252 OA
BRANCH   2   4
ATOM      4  O   UNL     1       7.354  -2.444  -3.439  1.00  0.00    -0.481 OA
ATOM      5  H   UNL     1       7.481  -3.264  -4.037  1.00  0.00     0.296 HD
ENDBRANCH   2   4
ENDBRANCH   1   2
BRANCH   1   6
ATOM      6  C   UNL     1       6.995  -0.113  -2.199  1.00  0.00     0.047 C 
BRANCH   6   7
ATOM      7  C   UNL     1       6.474   0.069  -0.846  1.00  0.00    -0.047 A 
ATOM      8  C   UNL     1       5.848   1.213  -0.416  1.00  0.00     0.004 A 
ATOM      9  C   UNL     1       6.611  -0.954   0.059  1.00  0.00     0.004 A 
ATOM     10  C   UNL     1       5.363   1.367   0.861  1.00  0.00     0.000 A 
ATOM     11  C   UNL     1       6.139  -0.833   1.346  1.00  0.00     0.000 A 
ATOM     12  C   UNL     1       5.505   0.336   1.765  1.00  0.00     0.000 A 
ENDBRANCH   6   7
ENDBRANCH   1   6
TORSDOF 4
ENDMDL
MODEL 3
REMARK VINA RESULT:      -7.1      2.484      3.258
REMARK SMILES O=C(O)CCc1ccccc1
REMARK SMILES IDX 4 1 2 2 1 3 3 4 5 6 6 7 7 8 11 9 8 10 10 11 9 12
REMARK H PARENT 3 5
REMARK Flexibility Score: inf
ROOT
ATOM      1  C   UNL     1       8.112  -2.006   0.781  1.00  0.00     0.127 C 
ENDROOT
BRANCH   1   2
ATOM      2  C   UNL     1       8.367  -3.447   1.040  1.00  0.00     0.303 C 
ATOM      3  O   UNL     1       9.444  -4.031   0.756  1.00  0.00    -0.252 OA
BRANCH   2   4
ATOM      4  O   UNL     1       7.370  -4.209   1.631  1.00  0.00    -0.481 OA
ATOM      5  H   UNL     1       6.485  -4.261   1.122  1.00  0.00     0.296 HD
ENDBRANCH   2   4
ENDBRANCH   1   2
BRANCH   1   6
ATOM      6  C   UNL     1       6.789  -1.619   1.375  1.00  0.00     0.047 C 
BRANCH   6   7
ATOM      7  C   UNL     1       6.243  -0.363   0.865  1.00  0.00    -0.047 A 
ATOM      8  C   UNL     1       5.485   0.502   1.616  1.00  0.00     0.004 A 
ATOM      9  C   UNL     1       6.493  -0.013  -0.439  1.00  0.00     0.004 A 
ATOM     10  C   UNL     1       4.979   1.679   1.120  1.00  0.00     0.000 A 
ATOM     11  C   UNL     1       6.001   1.157  -0.968  1.00  0.00     0.000 A 
ATOM     12  C   UNL     1       5.234   2.023  -0.190  1.00  0.00     0.000 A 
ENDBRANCH   6   7
ENDBRANCH   1   6
TORSDOF 4
ENDMDL
MODEL 4
REMARK VINA RESULT:      -6.7      3.338      5.040
REMARK SMILES O=C(O)CCc1ccccc1
REMARK SMILES IDX 4 1 2 2 1 3 3 4 5 6 6 7 7 8 11 9 8 10 10 11 9 12
REMARK H PARENT 3 5
REMARK Flexibility Score: inf
ROOT
ATOM      1  C   UNL     1       5.026   1.784   0.690  1.00  0.00     0.127 C 
ENDROOT
BRANCH   1   2
ATOM      2  C   UNL     1       4.603   1.060   1.918  1.00  0.00     0.303 C 
ATOM      3  O   UNL     1       5.306   0.196   2.500  1.00  0.00    -0.252 OA
BRANCH   2   4
ATOM      4  O   UNL     1       3.361   1.342   2.468  1.00  0.00    -0.481 OA
ATOM      5  H   UNL     1       3.095   0.785   3.282  1.00  0.00     0.296 HD
ENDBRANCH   2   4
ENDBRANCH   1   2
BRANCH   1   6
ATOM      6  C   UNL     1       6.524   1.851   0.642  1.00  0.00     0.047 C 
BRANCH   6   7
ATOM      7  C   UNL     1       7.132   1.032  -0.404  1.00  0.00    -0.047 A 
ATOM      8  C   UNL     1       6.447   0.092  -1.133  1.00  0.00     0.004 A 
ATOM      9  C   UNL     1       8.466   1.199  -0.685  1.00  0.00     0.004 A 
ATOM     10  C   UNL     1       7.035  -0.670  -2.114  1.00  0.00     0.000 A 
ATOM     11  C   UNL     1       9.086   0.453  -1.659  1.00  0.00     0.000 A 
ATOM     12  C   UNL     1       8.374  -0.497  -2.390  1.00  0.00     0.000 A 
ENDBRANCH   6   7
ENDBRANCH   1   6
TORSDOF 4
ENDMDL
MODEL 5
REMARK VINA RESULT:      -6.6      1.950      2.664
REMARK SMILES O=C(O)CCc1ccccc1
REMARK SMILES IDX 4 1 2 2 1 3 3 4 5 6 6 7 7 8 11 9 8 10 10 11 9 12
REMARK H PARENT 3 5
REMARK Flexibility Score: inf
ROOT
ATOM      1  C   UNL     1       8.308   0.104  -2.224  1.00  0.00     0.127 C 
ENDROOT
BRANCH   1   2
ATOM      2  C   UNL     1       9.384   0.311  -1.220  1.00  0.00     0.303 C 
ATOM      3  O   UNL     1       9.507  -0.373  -0.173  1.00  0.00    -0.252 OA
BRANCH   2   4
ATOM      4  O   UNL     1      10.318   1.313  -1.436  1.00  0.00    -0.481 OA
ATOM      5  H   UNL     1      10.377   2.034  -0.712  1.00  0.00     0.296 HD
ENDBRANCH   2   4
ENDBRANCH   1   2
BRANCH   1   6
ATOM      6  C   UNL     1       7.136  -0.565  -1.568  1.00  0.00     0.047 C 
BRANCH   6   7
ATOM      7  C   UNL     1       6.362   0.303  -0.683  1.00  0.00    -0.047 A 
ATOM      8  C   UNL     1       5.839   1.513  -1.065  1.00  0.00     0.004 A 
ATOM      9  C   UNL     1       6.137  -0.101   0.609  1.00  0.00     0.004 A 
ATOM     10  C   UNL     1       5.114   2.318  -0.219  1.00  0.00     0.000 A 
ATOM     11  C   UNL     1       5.416   0.679   1.484  1.00  0.00     0.000 A 
ATOM     12  C   UNL     1       4.893   1.905   1.077  1.00  0.00     0.000 A 
ENDBRANCH   6   7
ENDBRANCH   1   6
TORSDOF 4
ENDMDL
