@<TRIPOS>MOLECULE
/home/cewinharhar/GITHUB/reincatalyze/data/processed/docking_pred/2023-Apr-25-2140_maxeplen10_maxtrainstep200_exh16_gamma099_lrac3e-4_lrcr1e-3/4c3a486d5bbb1ad3c8ce5b6da142191fd088767a_ligand_2.pdbqt
 12 12 0 0 0
SMALL
GASTEIGER

@<TRIPOS>ATOM
      1  C          8.4280   -0.5530   -2.2580 C.3     1  UNL1        0.1270
      2  C          8.5130   -1.8730   -2.9360 C.2     1  UNL1        0.3030
      3  O          9.5830   -2.5160   -3.0860 O.2     1  UNL1       -0.2520
      4  O          7.3540   -2.4440   -3.4390 O.3     1  UNL1       -0.4810
      5  H          7.4810   -3.2640   -4.0370 H       1  UNL1        0.2960
      6  C          6.9950   -0.1130   -2.1990 C.3     1  UNL1        0.0470
      7  C          6.4740    0.0690   -0.8460 C.2     1  UNL1       -0.0470
      8  C          5.8480    1.2130   -0.4160 C.2     1  UNL1        0.0040
      9  C          6.6110   -0.9540    0.0590 C.2     1  UNL1        0.0040
     10  C          5.3630    1.3670    0.8610 C.2     1  UNL1        0.0000
     11  C          6.1390   -0.8330    1.3460 C.2     1  UNL1        0.0000
     12  C          5.5050    0.3360    1.7650 C.2     1  UNL1        0.0000
@<TRIPOS>BOND
     1     5     4    1
     2     4     2    1
     3     3     2    2
     4     2     1    1
     5     1     6    1
     6     6     7    1
     7     7     8    2
     8     7     9    1
     9     8    10    1
    10     9    11    2
    11    10    12    2
    12    11    12    1
