MODEL 1
REMARK VINA RESULT:      -7.3      0.000      0.000
REMARK SMILES O=C(O)CCc1ccccc1
REMARK SMILES IDX 4 1 2 2 1 3 3 4 5 6 6 7 7 8 11 9 8 10 10 11 9 12
REMARK H PARENT 3 5
REMARK Flexibility Score: inf
ROOT
ATOM      1  C   UNL     1       8.458  -0.552  -2.230  1.00  0.00     0.127 C 
ENDROOT
BRANCH   1   2
ATOM      2  C   UNL     1       8.511  -1.868  -2.920  1.00  0.00     0.303 C 
ATOM      3  O   UNL     1       9.567  -2.528  -3.090  1.00  0.00    -0.252 OA
BRANCH   2   4
ATOM      4  O   UNL     1       7.334  -2.415  -3.409  1.00  0.00    -0.481 OA
ATOM      5  H   UNL     1       7.418  -2.961  -4.270  1.00  0.00     0.296 HD
ENDBRANCH   2   4
ENDBRANCH   1   2
BRANCH   1   6
ATOM      6  C   UNL     1       7.032  -0.095  -2.134  1.00  0.00     0.047 C 
BRANCH   6   7
ATOM      7  C   UNL     1       6.517  -0.008  -0.770  1.00  0.00    -0.047 A 
ATOM      8  C   UNL     1       6.614  -1.024   0.150  1.00  0.00     0.004 A 
ATOM      9  C   UNL     1       5.896   1.148  -0.368  1.00  0.00     0.004 A 
ATOM     10  C   UNL     1       6.123  -0.925   1.430  1.00  0.00     0.000 A 
ATOM     11  C   UNL     1       5.393   1.281   0.905  1.00  0.00     0.000 A 
ATOM     12  C   UNL     1       5.501   0.239   1.825  1.00  0.00     0.000 A 
ENDBRANCH   6   7
ENDBRANCH   1   6
TORSDOF 4
ENDMDL
MODEL 2
REMARK VINA RESULT:      -7.3      0.102      1.429
REMARK SMILES O=C(O)CCc1ccccc1
REMARK SMILES IDX 4 1 2 2 1 3 3 4 5 6 6 7 7 8 11 9 8 10 10 11 9 12
REMARK H PARENT 3 5
REMARK Flexibility Score: inf
ROOT
ATOM      1  C   UNL     1       8.415  -0.511  -2.281  1.00  0.00     0.127 C 
ENDROOT
BRANCH   1   2
ATOM      2  C   UNL     1       8.504  -1.845  -2.929  1.00  0.00     0.303 C 
ATOM      3  O   UNL     1       9.574  -2.493  -3.056  1.00  0.00    -0.252 OA
BRANCH   2   4
ATOM      4  O   UNL     1       7.348  -2.427  -3.428  1.00  0.00    -0.481 OA
ATOM      5  H   UNL     1       7.200  -3.409  -3.185  1.00  0.00     0.296 HD
ENDBRANCH   2   4
ENDBRANCH   1   2
BRANCH   1   6
ATOM      6  C   UNL     1       6.978  -0.083  -2.214  1.00  0.00     0.047 C 
BRANCH   6   7
ATOM      7  C   UNL     1       6.463   0.088  -0.857  1.00  0.00    -0.047 A 
ATOM      8  C   UNL     1       5.842   1.230  -0.414  1.00  0.00     0.004 A 
ATOM      9  C   UNL     1       6.599  -0.944   0.038  1.00  0.00     0.004 A 
ATOM     10  C   UNL     1       5.363   1.374   0.866  1.00  0.00     0.000 A 
ATOM     11  C   UNL     1       6.131  -0.834   1.327  1.00  0.00     0.000 A 
ATOM     12  C   UNL     1       5.503   0.334   1.759  1.00  0.00     0.000 A 
ENDBRANCH   6   7
ENDBRANCH   1   6
TORSDOF 4
ENDMDL
MODEL 3
REMARK VINA RESULT:      -6.8      3.371      5.077
REMARK SMILES O=C(O)CCc1ccccc1
REMARK SMILES IDX 4 1 2 2 1 3 3 4 5 6 6 7 7 8 11 9 8 10 10 11 9 12
REMARK H PARENT 3 5
REMARK Flexibility Score: inf
ROOT
ATOM      1  C   UNL     1       4.977   1.793   0.690  1.00  0.00     0.127 C 
ENDROOT
BRANCH   1   2
ATOM      2  C   UNL     1       4.496   1.090   1.908  1.00  0.00     0.303 C 
ATOM      3  O   UNL     1       5.134   0.176   2.488  1.00  0.00    -0.252 OA
BRANCH   2   4
ATOM      4  O   UNL     1       3.272   1.451   2.450  1.00  0.00    -0.481 OA
ATOM      5  H   UNL     1       2.465   1.378   1.826  1.00  0.00     0.296 HD
ENDBRANCH   2   4
ENDBRANCH   1   2
BRANCH   1   6
ATOM      6  C   UNL     1       6.476   1.868   0.716  1.00  0.00     0.047 C 
BRANCH   6   7
ATOM      7  C   UNL     1       7.138   1.102  -0.337  1.00  0.00    -0.047 A 
ATOM      8  C   UNL     1       8.479   1.188  -0.617  1.00  0.00     0.004 A 
ATOM      9  C   UNL     1       6.388   0.242  -1.102  1.00  0.00     0.004 A 
ATOM     10  C   UNL     1       9.086   0.459  -1.612  1.00  0.00     0.000 A 
ATOM     11  C   UNL     1       6.962  -0.501  -2.107  1.00  0.00     0.000 A 
ATOM     12  C   UNL     1       8.327  -0.401  -2.375  1.00  0.00     0.000 A 
ENDBRANCH   6   7
ENDBRANCH   1   6
TORSDOF 4
ENDMDL
MODEL 4
REMARK VINA RESULT:      -6.6      2.018      2.705
REMARK SMILES O=C(O)CCc1ccccc1
REMARK SMILES IDX 4 1 2 2 1 3 3 4 5 6 6 7 7 8 11 9 8 10 10 11 9 12
REMARK H PARENT 3 5
REMARK Flexibility Score: inf
ROOT
ATOM      1  C   UNL     1       8.374   0.344  -2.009  1.00  0.00     0.127 C 
ENDROOT
BRANCH   1   2
ATOM      2  C   UNL     1       9.500   0.395  -1.041  1.00  0.00     0.303 C 
ATOM      3  O   UNL     1       9.590  -0.348  -0.031  1.00  0.00    -0.252 OA
BRANCH   2   4
ATOM      4  O   UNL     1      10.521   1.310  -1.248  1.00  0.00    -0.481 OA
ATOM      5  H   UNL     1      11.213   1.387  -0.499  1.00  0.00     0.296 HD
ENDBRANCH   2   4
ENDBRANCH   1   2
BRANCH   1   6
ATOM      6  C   UNL     1       7.263  -0.489  -1.440  1.00  0.00     0.047 C 
BRANCH   6   7
ATOM      7  C   UNL     1       6.427   0.205  -0.464  1.00  0.00    -0.047 A 
ATOM      8  C   UNL     1       5.825   1.417  -0.698  1.00  0.00     0.004 A 
ATOM      9  C   UNL     1       6.221  -0.374   0.763  1.00  0.00     0.004 A 
ATOM     10  C   UNL     1       5.041   2.057   0.232  1.00  0.00     0.000 A 
ATOM     11  C   UNL     1       5.442   0.239   1.718  1.00  0.00     0.000 A 
ATOM     12  C   UNL     1       4.839   1.469   1.462  1.00  0.00     0.000 A 
ENDBRANCH   6   7
ENDBRANCH   1   6
TORSDOF 4
ENDMDL
MODEL 5
REMARK VINA RESULT:      -6.6      3.709      4.951
REMARK SMILES O=C(O)CCc1ccccc1
REMARK SMILES IDX 4 1 2 2 1 3 3 4 5 6 6 7 7 8 11 9 8 10 10 11 9 12
REMARK H PARENT 3 5
REMARK Flexibility Score: inf
ROOT
ATOM      1  C   UNL     1       5.299   2.930   0.064  1.00  0.00     0.127 C 
ENDROOT
BRANCH   1   2
ATOM      2  C   UNL     1       6.191   3.862   0.802  1.00  0.00     0.303 C 
ATOM      3  O   UNL     1       6.870   4.765   0.252  1.00  0.00    -0.252 OA
BRANCH   2   4
ATOM      4  O   UNL     1       6.291   3.744   2.180  1.00  0.00    -0.481 OA
ATOM      5  H   UNL     1       6.140   2.807   2.561  1.00  0.00     0.296 HD
ENDBRANCH   2   4
ENDBRANCH   1   2
BRANCH   1   6
ATOM      6  C   UNL     1       5.213   1.628   0.805  1.00  0.00     0.047 C 
BRANCH   6   7
ATOM      7  C   UNL     1       6.003   0.547   0.220  1.00  0.00    -0.047 A 
ATOM      8  C   UNL     1       6.464  -0.533   0.931  1.00  0.00     0.004 A 
ATOM      9  C   UNL     1       6.310   0.600  -1.117  1.00  0.00     0.004 A 
ATOM     10  C   UNL     1       7.206  -1.542   0.364  1.00  0.00     0.000 A 
ATOM     11  C   UNL     1       7.052  -0.392  -1.717  1.00  0.00     0.000 A 
ATOM     12  C   UNL     1       7.511  -1.481  -0.979  1.00  0.00     0.000 A 
ENDBRANCH   6   7
ENDBRANCH   1   6
TORSDOF 4
ENDMDL
