@<TRIPOS>MOLECULE
/home/cewinharhar/GITHUB/reincatalyze/data/processed/docking_pred/2023-Apr-25-2140_maxeplen10_maxtrainstep200_exh16_gamma099_lrac3e-4_lrcr1e-3/4c41b041102a8d5d821093d1e21668bd2b50a839_ligand_2.pdbqt
 12 12 0 0 0
SMALL
GASTEIGER

@<TRIPOS>ATOM
      1  C          5.2990    2.9300    0.0640 C.3     1  UNL1        0.1270
      2  C          6.1910    3.8620    0.8020 C.2     1  UNL1        0.3030
      3  O          6.8700    4.7650    0.2520 O.2     1  UNL1       -0.2520
      4  O          6.2910    3.7440    2.1800 O.3     1  UNL1       -0.4810
      5  H          6.1400    2.8070    2.5610 H       1  UNL1        0.2960
      6  C          5.2130    1.6280    0.8050 C.3     1  UNL1        0.0470
      7  C          6.0030    0.5470    0.2200 C.2     1  UNL1       -0.0470
      8  C          6.4640   -0.5330    0.9310 C.2     1  UNL1        0.0040
      9  C          6.3100    0.6000   -1.1170 C.2     1  UNL1        0.0040
     10  C          7.2060   -1.5420    0.3640 C.2     1  UNL1        0.0000
     11  C          7.0520   -0.3920   -1.7170 C.2     1  UNL1        0.0000
     12  C          7.5110   -1.4810   -0.9790 C.2     1  UNL1        0.0000
@<TRIPOS>BOND
     1    11     9    1
     2    11    12    2
     3     9     7    2
     4    12    10    1
     5     1     2    1
     6     1     6    1
     7     7     6    1
     8     7     8    1
     9     3     2    2
    10    10     8    2
    11     2     4    1
    12     4     5    1
