@<TRIPOS>MOLECULE
/home/cewinharhar/GITHUB/reincatalyze/data/processed/docking_pred/2023-Apr-25-2140_maxeplen10_maxtrainstep200_exh16_gamma099_lrac3e-4_lrcr1e-3/4c41b041102a8d5d821093d1e21668bd2b50a839_ligand_2.pdbqt
 12 12 0 0 0
SMALL
GASTEIGER

@<TRIPOS>ATOM
      1  C          4.9770    1.7930    0.6900 C.3     1  UNL1        0.1270
      2  C          4.4960    1.0900    1.9080 C.2     1  UNL1        0.3030
      3  O          5.1340    0.1760    2.4880 O.2     1  UNL1       -0.2520
      4  O          3.2720    1.4510    2.4500 O.3     1  UNL1       -0.4810
      5  H          2.4650    1.3780    1.8260 H       1  UNL1        0.2960
      6  C          6.4760    1.8680    0.7160 C.3     1  UNL1        0.0470
      7  C          7.1380    1.1020   -0.3370 C.2     1  UNL1       -0.0470
      8  C          8.4790    1.1880   -0.6170 C.2     1  UNL1        0.0040
      9  C          6.3880    0.2420   -1.1020 C.2     1  UNL1        0.0040
     10  C          9.0860    0.4590   -1.6120 C.2     1  UNL1        0.0000
     11  C          6.9620   -0.5010   -2.1070 C.2     1  UNL1        0.0000
     12  C          8.3270   -0.4010   -2.3750 C.2     1  UNL1        0.0000
@<TRIPOS>BOND
     1    12    11    2
     2    12    10    1
     3    11     9    1
     4    10     8    2
     5     9     7    2
     6     8     7    1
     7     7     6    1
     8     1     6    1
     9     1     2    1
    10     5     4    1
    11     2     4    1
    12     2     3    2
