@<TRIPOS>MOLECULE
/home/cewinharhar/GITHUB/reincatalyze/data/processed/docking_pred/2023-Apr-25-2140_maxeplen10_maxtrainstep200_exh16_gamma099_lrac3e-4_lrcr1e-3/4c41b041102a8d5d821093d1e21668bd2b50a839_ligand_2.pdbqt
 12 12 0 0 0
SMALL
GASTEIGER

@<TRIPOS>ATOM
      1  C          8.4580   -0.5520   -2.2300 C.3     1  UNL1        0.1270
      2  C          8.5110   -1.8680   -2.9200 C.2     1  UNL1        0.3030
      3  O          9.5670   -2.5280   -3.0900 O.2     1  UNL1       -0.2520
      4  O          7.3340   -2.4150   -3.4090 O.3     1  UNL1       -0.4810
      5  H          7.4180   -2.9610   -4.2700 H       1  UNL1        0.2960
      6  C          7.0320   -0.0950   -2.1340 C.3     1  UNL1        0.0470
      7  C          6.5170   -0.0080   -0.7700 C.2     1  UNL1       -0.0470
      8  C          6.6140   -1.0240    0.1500 C.2     1  UNL1        0.0040
      9  C          5.8960    1.1480   -0.3680 C.2     1  UNL1        0.0040
     10  C          6.1230   -0.9250    1.4300 C.2     1  UNL1        0.0000
     11  C          5.3930    1.2810    0.9050 C.2     1  UNL1        0.0000
     12  C          5.5010    0.2390    1.8250 C.2     1  UNL1        0.0000
@<TRIPOS>BOND
     1     5     4    1
     2     4     2    1
     3     3     2    2
     4     2     1    1
     5     1     6    1
     6     6     7    1
     7     7     9    2
     8     7     8    1
     9     9    11    1
    10     8    10    2
    11    11    12    2
    12    10    12    1
