MODEL 1
REMARK VINA RESULT:      -7.3      0.000      0.000
REMARK SMILES O=C(O)CCc1ccccc1
REMARK SMILES IDX 4 1 2 2 1 3 3 4 5 6 6 7 7 8 11 9 8 10 10 11 9 12
REMARK H PARENT 3 5
REMARK Flexibility Score: inf
ROOT
ATOM      1  C   UNL     1       8.437  -0.568  -2.214  1.00  0.00     0.127 C 
ENDROOT
BRANCH   1   2
ATOM      2  C   UNL     1       8.512  -1.875  -2.918  1.00  0.00     0.303 C 
ATOM      3  O   UNL     1       9.579  -2.516  -3.093  1.00  0.00    -0.252 OA
BRANCH   2   4
ATOM      4  O   UNL     1       7.347  -2.436  -3.418  1.00  0.00    -0.481 OA
ATOM      5  H   UNL     1       7.101  -2.178  -4.377  1.00  0.00     0.296 HD
ENDBRANCH   2   4
ENDBRANCH   1   2
BRANCH   1   6
ATOM      6  C   UNL     1       7.009  -0.111  -2.162  1.00  0.00     0.047 C 
BRANCH   6   7
ATOM      7  C   UNL     1       6.479   0.063  -0.812  1.00  0.00    -0.047 A 
ATOM      8  C   UNL     1       5.857   1.207  -0.376  1.00  0.00     0.004 A 
ATOM      9  C   UNL     1       6.603  -0.968   0.086  1.00  0.00     0.004 A 
ATOM     10  C   UNL     1       5.364   1.354   0.898  1.00  0.00     0.000 A 
ATOM     11  C   UNL     1       6.122  -0.855   1.370  1.00  0.00     0.000 A 
ATOM     12  C   UNL     1       5.493   0.315   1.794  1.00  0.00     0.000 A 
ENDBRANCH   6   7
ENDBRANCH   1   6
TORSDOF 4
ENDMDL
MODEL 2
REMARK VINA RESULT:      -7.3      0.130      1.722
REMARK SMILES O=C(O)CCc1ccccc1
REMARK SMILES IDX 4 1 2 2 1 3 3 4 5 6 6 7 7 8 11 9 8 10 10 11 9 12
REMARK H PARENT 3 5
REMARK Flexibility Score: inf
ROOT
ATOM      1  C   UNL     1       8.434  -0.627  -2.115  1.00  0.00     0.127 C 
ENDROOT
BRANCH   1   2
ATOM      2  C   UNL     1       8.372  -1.890  -2.896  1.00  0.00     0.303 C 
ATOM      3  O   UNL     1       7.301  -2.436  -3.263  1.00  0.00    -0.252 OA
BRANCH   2   4
ATOM      4  O   UNL     1       9.557  -2.518  -3.250  1.00  0.00    -0.481 OA
ATOM      5  H   UNL     1       9.470  -3.308  -3.894  1.00  0.00     0.296 HD
ENDBRANCH   2   4
ENDBRANCH   1   2
BRANCH   1   6
ATOM      6  C   UNL     1       7.070  -0.006  -2.061  1.00  0.00     0.047 C 
BRANCH   6   7
ATOM      7  C   UNL     1       6.499   0.084  -0.719  1.00  0.00    -0.047 A 
ATOM      8  C   UNL     1       6.592  -0.914   0.219  1.00  0.00     0.004 A 
ATOM      9  C   UNL     1       5.827   1.227  -0.361  1.00  0.00     0.004 A 
ATOM     10  C   UNL     1       6.049  -0.812   1.478  1.00  0.00     0.000 A 
ATOM     11  C   UNL     1       5.271   1.362   0.890  1.00  0.00     0.000 A 
ATOM     12  C   UNL     1       5.376   0.337   1.830  1.00  0.00     0.000 A 
ENDBRANCH   6   7
ENDBRANCH   1   6
TORSDOF 4
ENDMDL
MODEL 3
REMARK VINA RESULT:      -7.1      0.878      1.049
REMARK SMILES O=C(O)CCc1ccccc1
REMARK SMILES IDX 4 1 2 2 1 3 3 4 5 6 6 7 7 8 11 9 8 10 10 11 9 12
REMARK H PARENT 3 5
REMARK Flexibility Score: inf
ROOT
ATOM      1  C   UNL     1       7.260  -1.231  -2.254  1.00  0.00     0.127 C 
ENDROOT
BRANCH   1   2
ATOM      2  C   UNL     1       8.718  -1.384  -2.497  1.00  0.00     0.303 C 
ATOM      3  O   UNL     1       9.589  -0.590  -2.058  1.00  0.00    -0.252 OA
BRANCH   2   4
ATOM      4  O   UNL     1       9.164  -2.460  -3.249  1.00  0.00    -0.481 OA
ATOM      5  H   UNL     1       8.539  -3.268  -3.289  1.00  0.00     0.296 HD
ENDBRANCH   2   4
ENDBRANCH   1   2
BRANCH   1   6
ATOM      6  C   UNL     1       6.952   0.205  -1.945  1.00  0.00     0.047 C 
BRANCH   6   7
ATOM      7  C   UNL     1       6.313   0.420  -0.649  1.00  0.00    -0.047 A 
ATOM      8  C   UNL     1       5.593   1.545  -0.330  1.00  0.00     0.004 A 
ATOM      9  C   UNL     1       6.429  -0.550   0.315  1.00  0.00     0.004 A 
ATOM     10  C   UNL     1       4.998   1.731   0.895  1.00  0.00     0.000 A 
ATOM     11  C   UNL     1       5.846  -0.396   1.552  1.00  0.00     0.000 A 
ATOM     12  C   UNL     1       5.119   0.753   1.859  1.00  0.00     0.000 A 
ENDBRANCH   6   7
ENDBRANCH   1   6
TORSDOF 4
ENDMDL
MODEL 4
REMARK VINA RESULT:      -6.8      3.376      5.067
REMARK SMILES O=C(O)CCc1ccccc1
REMARK SMILES IDX 4 1 2 2 1 3 3 4 5 6 6 7 7 8 11 9 8 10 10 11 9 12
REMARK H PARENT 3 5
REMARK Flexibility Score: inf
ROOT
ATOM      1  C   UNL     1       4.986   1.804   0.675  1.00  0.00     0.127 C 
ENDROOT
BRANCH   1   2
ATOM      2  C   UNL     1       4.513   1.107   1.900  1.00  0.00     0.303 C 
ATOM      3  O   UNL     1       5.164   0.208   2.491  1.00  0.00    -0.252 OA
BRANCH   2   4
ATOM      4  O   UNL     1       3.284   1.456   2.437  1.00  0.00    -0.481 OA
ATOM      5  H   UNL     1       2.901   0.814   3.136  1.00  0.00     0.296 HD
ENDBRANCH   2   4
ENDBRANCH   1   2
BRANCH   1   6
ATOM      6  C   UNL     1       6.484   1.888   0.695  1.00  0.00     0.047 C 
BRANCH   6   7
ATOM      7  C   UNL     1       7.146   1.115  -0.353  1.00  0.00    -0.047 A 
ATOM      8  C   UNL     1       8.492   1.185  -0.619  1.00  0.00     0.004 A 
ATOM      9  C   UNL     1       6.394   0.267  -1.126  1.00  0.00     0.004 A 
ATOM     10  C   UNL     1       9.099   0.451  -1.610  1.00  0.00     0.000 A 
ATOM     11  C   UNL     1       6.968  -0.482  -2.127  1.00  0.00     0.000 A 
ATOM     12  C   UNL     1       8.336  -0.399  -2.382  1.00  0.00     0.000 A 
ENDBRANCH   6   7
ENDBRANCH   1   6
TORSDOF 4
ENDMDL
MODEL 5
REMARK VINA RESULT:      -6.6      1.965      2.291
REMARK SMILES O=C(O)CCc1ccccc1
REMARK SMILES IDX 4 1 2 2 1 3 3 4 5 6 6 7 7 8 11 9 8 10 10 11 9 12
REMARK H PARENT 3 5
REMARK Flexibility Score: inf
ROOT
ATOM      1  C   UNL     1       8.265   0.151  -2.089  1.00  0.00     0.127 C 
ENDROOT
BRANCH   1   2
ATOM      2  C   UNL     1       9.393   0.294  -1.132  1.00  0.00     0.303 C 
ATOM      3  O   UNL     1       9.519  -0.395  -0.088  1.00  0.00    -0.252 OA
BRANCH   2   4
ATOM      4  O   UNL     1      10.374   1.240  -1.390  1.00  0.00    -0.481 OA
ATOM      5  H   UNL     1      11.294   1.053  -0.983  1.00  0.00     0.296 HD
ENDBRANCH   2   4
ENDBRANCH   1   2
BRANCH   1   6
ATOM      6  C   UNL     1       7.146  -0.605  -1.433  1.00  0.00     0.047 C 
BRANCH   6   7
ATOM      7  C   UNL     1       6.351   0.185  -0.497  1.00  0.00    -0.047 A 
ATOM      8  C   UNL     1       5.801   1.406  -0.802  1.00  0.00     0.004 A 
ATOM      9  C   UNL     1       6.132  -0.306   0.766  1.00  0.00     0.004 A 
ATOM     10  C   UNL     1       5.054   2.137   0.091  1.00  0.00     0.000 A 
ATOM     11  C   UNL     1       5.391   0.399   1.686  1.00  0.00     0.000 A 
ATOM     12  C   UNL     1       4.839   1.636   1.357  1.00  0.00     0.000 A 
ENDBRANCH   6   7
ENDBRANCH   1   6
TORSDOF 4
ENDMDL
