@<TRIPOS>MOLECULE
/home/cewinharhar/GITHUB/reincatalyze/data/processed/docking_pred/2023-Apr-25-2140_maxeplen10_maxtrainstep200_exh16_gamma099_lrac3e-4_lrcr1e-3/4d620996829bdf69d2437cdb6940cc233521eaf3_ligand_2.pdbqt
 12 12 0 0 0
SMALL
GASTEIGER

@<TRIPOS>ATOM
      1  C          4.9860    1.8040    0.6750 C.3     1  UNL1        0.1270
      2  C          4.5130    1.1070    1.9000 C.2     1  UNL1        0.3030
      3  O          5.1640    0.2080    2.4910 O.2     1  UNL1       -0.2520
      4  O          3.2840    1.4560    2.4370 O.3     1  UNL1       -0.4810
      5  H          2.9010    0.8140    3.1360 H       1  UNL1        0.2960
      6  C          6.4840    1.8880    0.6950 C.3     1  UNL1        0.0470
      7  C          7.1460    1.1150   -0.3530 C.2     1  UNL1       -0.0470
      8  C          8.4920    1.1850   -0.6190 C.2     1  UNL1        0.0040
      9  C          6.3940    0.2670   -1.1260 C.2     1  UNL1        0.0040
     10  C          9.0990    0.4510   -1.6100 C.2     1  UNL1        0.0000
     11  C          6.9680   -0.4820   -2.1270 C.2     1  UNL1        0.0000
     12  C          8.3360   -0.3990   -2.3820 C.2     1  UNL1        0.0000
@<TRIPOS>BOND
     1    12    11    2
     2    12    10    1
     3    11     9    1
     4    10     8    2
     5     9     7    2
     6     8     7    1
     7     7     6    1
     8     1     6    1
     9     1     2    1
    10     2     4    1
    11     2     3    2
    12     4     5    1
