@<TRIPOS>MOLECULE
/home/cewinharhar/GITHUB/reincatalyze/data/processed/docking_pred/2023-Apr-25-2140_maxeplen10_maxtrainstep200_exh16_gamma099_lrac3e-4_lrcr1e-3/4d620996829bdf69d2437cdb6940cc233521eaf3_ligand_2.pdbqt
 12 12 0 0 0
SMALL
GASTEIGER

@<TRIPOS>ATOM
      1  C          7.2600   -1.2310   -2.2540 C.3     1  UNL1        0.1270
      2  C          8.7180   -1.3840   -2.4970 C.2     1  UNL1        0.3030
      3  O          9.5890   -0.5900   -2.0580 O.2     1  UNL1       -0.2520
      4  O          9.1640   -2.4600   -3.2490 O.3     1  UNL1       -0.4810
      5  H          8.5390   -3.2680   -3.2890 H       1  UNL1        0.2960
      6  C          6.9520    0.2050   -1.9450 C.3     1  UNL1        0.0470
      7  C          6.3130    0.4200   -0.6490 C.2     1  UNL1       -0.0470
      8  C          5.5930    1.5450   -0.3300 C.2     1  UNL1        0.0040
      9  C          6.4290   -0.5500    0.3150 C.2     1  UNL1        0.0040
     10  C          4.9980    1.7310    0.8950 C.2     1  UNL1        0.0000
     11  C          5.8460   -0.3960    1.5520 C.2     1  UNL1        0.0000
     12  C          5.1190    0.7530    1.8590 C.2     1  UNL1        0.0000
@<TRIPOS>BOND
     1     5     4    1
     2     4     2    1
     3     2     1    1
     4     2     3    2
     5     1     6    1
     6     6     7    1
     7     7     8    2
     8     7     9    1
     9     8    10    1
    10     9    11    2
    11    10    12    2
    12    11    12    1
