@<TRIPOS>MOLECULE
/home/cewinharhar/GITHUB/reincatalyze/data/processed/docking_pred/2023-Apr-25-2140_maxeplen10_maxtrainstep200_exh16_gamma099_lrac3e-4_lrcr1e-3/4d620996829bdf69d2437cdb6940cc233521eaf3_ligand_2.pdbqt
 12 12 0 0 0
SMALL
GASTEIGER

@<TRIPOS>ATOM
      1  C          8.4340   -0.6270   -2.1150 C.3     1  UNL1        0.1270
      2  C          8.3720   -1.8900   -2.8960 C.2     1  UNL1        0.3030
      3  O          7.3010   -2.4360   -3.2630 O.2     1  UNL1       -0.2520
      4  O          9.5570   -2.5180   -3.2500 O.3     1  UNL1       -0.4810
      5  H          9.4700   -3.3080   -3.8940 H       1  UNL1        0.2960
      6  C          7.0700   -0.0060   -2.0610 C.3     1  UNL1        0.0470
      7  C          6.4990    0.0840   -0.7190 C.2     1  UNL1       -0.0470
      8  C          6.5920   -0.9140    0.2190 C.2     1  UNL1        0.0040
      9  C          5.8270    1.2270   -0.3610 C.2     1  UNL1        0.0040
     10  C          6.0490   -0.8120    1.4780 C.2     1  UNL1        0.0000
     11  C          5.2710    1.3620    0.8900 C.2     1  UNL1        0.0000
     12  C          5.3760    0.3370    1.8300 C.2     1  UNL1        0.0000
@<TRIPOS>BOND
     1     5     4    1
     2     3     2    2
     3     4     2    1
     4     2     1    1
     5     1     6    1
     6     6     7    1
     7     7     9    2
     8     7     8    1
     9     9    11    1
    10     8    10    2
    11    11    12    2
    12    10    12    1
