@<TRIPOS>MOLECULE
/home/cewinharhar/GITHUB/reincatalyze/data/processed/docking_pred/2023-Apr-25-2140_maxeplen10_maxtrainstep200_exh16_gamma099_lrac3e-4_lrcr1e-3/4d620996829bdf69d2437cdb6940cc233521eaf3_ligand_2.pdbqt
 12 12 0 0 0
SMALL
GASTEIGER

@<TRIPOS>ATOM
      1  C          8.2650    0.1510   -2.0890 C.3     1  UNL1        0.1270
      2  C          9.3930    0.2940   -1.1320 C.2     1  UNL1        0.3030
      3  O          9.5190   -0.3950   -0.0880 O.2     1  UNL1       -0.2520
      4  O         10.3740    1.2400   -1.3900 O.3     1  UNL1       -0.4810
      5  H         11.2940    1.0530   -0.9830 H       1  UNL1        0.2960
      6  C          7.1460   -0.6050   -1.4330 C.3     1  UNL1        0.0470
      7  C          6.3510    0.1850   -0.4970 C.2     1  UNL1       -0.0470
      8  C          5.8010    1.4060   -0.8020 C.2     1  UNL1        0.0040
      9  C          6.1320   -0.3060    0.7660 C.2     1  UNL1        0.0040
     10  C          5.0540    2.1370    0.0910 C.2     1  UNL1        0.0000
     11  C          5.3910    0.3990    1.6860 C.2     1  UNL1        0.0000
     12  C          4.8390    1.6360    1.3570 C.2     1  UNL1        0.0000
@<TRIPOS>BOND
     1     1     6    1
     2     1     2    1
     3     6     7    1
     4     4     2    1
     5     4     5    1
     6     2     3    2
     7     8     7    2
     8     8    10    1
     9     7     9    1
    10    10    12    2
    11     9    11    2
    12    12    11    1
