@<TRIPOS>MOLECULE
/home/cewinharhar/GITHUB/reincatalyze/data/processed/docking_pred/2023-Apr-25-2140_maxeplen10_maxtrainstep200_exh16_gamma099_lrac3e-4_lrcr1e-3/4d620996829bdf69d2437cdb6940cc233521eaf3_ligand_2.pdbqt
 12 12 0 0 0
SMALL
GASTEIGER

@<TRIPOS>ATOM
      1  C          8.4370   -0.5680   -2.2140 C.3     1  UNL1        0.1270
      2  C          8.5120   -1.8750   -2.9180 C.2     1  UNL1        0.3030
      3  O          9.5790   -2.5160   -3.0930 O.2     1  UNL1       -0.2520
      4  O          7.3470   -2.4360   -3.4180 O.3     1  UNL1       -0.4810
      5  H          7.1010   -2.1780   -4.3770 H       1  UNL1        0.2960
      6  C          7.0090   -0.1110   -2.1620 C.3     1  UNL1        0.0470
      7  C          6.4790    0.0630   -0.8120 C.2     1  UNL1       -0.0470
      8  C          5.8570    1.2070   -0.3760 C.2     1  UNL1        0.0040
      9  C          6.6030   -0.9680    0.0860 C.2     1  UNL1        0.0040
     10  C          5.3640    1.3540    0.8980 C.2     1  UNL1        0.0000
     11  C          6.1220   -0.8550    1.3700 C.2     1  UNL1        0.0000
     12  C          5.4930    0.3150    1.7940 C.2     1  UNL1        0.0000
@<TRIPOS>BOND
     1     5     4    1
     2     4     2    1
     3     3     2    2
     4     2     1    1
     5     1     6    1
     6     6     7    1
     7     7     8    2
     8     7     9    1
     9     8    10    1
    10     9    11    2
    11    10    12    2
    12    11    12    1
