MODEL 1
REMARK VINA RESULT:      -7.3      0.000      0.000
REMARK SMILES O=C(O)CCc1ccccc1
REMARK SMILES IDX 4 1 2 2 1 3 3 4 5 6 6 7 7 8 11 9 8 10 10 11 9 12
REMARK H PARENT 3 5
REMARK Flexibility Score: inf
ROOT
ATOM      1  C   UNL     1       8.436  -0.544  -2.241  1.00  0.00     0.127 C 
ENDROOT
BRANCH   1   2
ATOM      2  C   UNL     1       8.509  -1.866  -2.917  1.00  0.00     0.303 C 
ATOM      3  O   UNL     1       9.576  -2.508  -3.088  1.00  0.00    -0.252 OA
BRANCH   2   4
ATOM      4  O   UNL     1       7.340  -2.442  -3.392  1.00  0.00    -0.481 OA
ATOM      5  H   UNL     1       6.846  -3.056  -2.741  1.00  0.00     0.296 HD
ENDBRANCH   2   4
ENDBRANCH   1   2
BRANCH   1   6
ATOM      6  C   UNL     1       7.004  -0.102  -2.163  1.00  0.00     0.047 C 
BRANCH   6   7
ATOM      7  C   UNL     1       6.486   0.028  -0.803  1.00  0.00    -0.047 A 
ATOM      8  C   UNL     1       6.592  -0.952   0.152  1.00  0.00     0.004 A 
ATOM      9  C   UNL     1       5.853   1.192  -0.444  1.00  0.00     0.004 A 
ATOM     10  C   UNL     1       6.099  -0.814   1.427  1.00  0.00     0.000 A 
ATOM     11  C   UNL     1       5.346   1.365   0.823  1.00  0.00     0.000 A 
ATOM     12  C   UNL     1       5.464   0.358   1.780  1.00  0.00     0.000 A 
ENDBRANCH   6   7
ENDBRANCH   1   6
TORSDOF 4
ENDMDL
MODEL 2
REMARK VINA RESULT:      -7.3      0.057      1.426
REMARK SMILES O=C(O)CCc1ccccc1
REMARK SMILES IDX 4 1 2 2 1 3 3 4 5 6 6 7 7 8 11 9 8 10 10 11 9 12
REMARK H PARENT 3 5
REMARK Flexibility Score: inf
ROOT
ATOM      1  C   UNL     1       8.413  -0.522  -2.256  1.00  0.00     0.127 C 
ENDROOT
BRANCH   1   2
ATOM      2  C   UNL     1       8.500  -1.850  -2.916  1.00  0.00     0.303 C 
ATOM      3  O   UNL     1       9.573  -2.486  -3.073  1.00  0.00    -0.252 OA
BRANCH   2   4
ATOM      4  O   UNL     1       7.339  -2.439  -3.393  1.00  0.00    -0.481 OA
ATOM      5  H   UNL     1       6.633  -2.672  -2.691  1.00  0.00     0.296 HD
ENDBRANCH   2   4
ENDBRANCH   1   2
BRANCH   1   6
ATOM      6  C   UNL     1       6.978  -0.086  -2.197  1.00  0.00     0.047 C 
BRANCH   6   7
ATOM      7  C   UNL     1       6.457   0.098  -0.845  1.00  0.00    -0.047 A 
ATOM      8  C   UNL     1       5.838   1.245  -0.414  1.00  0.00     0.004 A 
ATOM      9  C   UNL     1       6.588  -0.926   0.060  1.00  0.00     0.004 A 
ATOM     10  C   UNL     1       5.353   1.401   0.863  1.00  0.00     0.000 A 
ATOM     11  C   UNL     1       6.115  -0.804   1.346  1.00  0.00     0.000 A 
ATOM     12  C   UNL     1       5.488   0.368   1.766  1.00  0.00     0.000 A 
ENDBRANCH   6   7
ENDBRANCH   1   6
TORSDOF 4
ENDMDL
MODEL 3
REMARK VINA RESULT:      -7.1      0.622      1.610
REMARK SMILES O=C(O)CCc1ccccc1
REMARK SMILES IDX 4 1 2 2 1 3 3 4 5 6 6 7 7 8 11 9 8 10 10 11 9 12
REMARK H PARENT 3 5
REMARK Flexibility Score: inf
ROOT
ATOM      1  C   UNL     1       8.001  -0.789  -2.095  1.00  0.00     0.127 C 
ENDROOT
BRANCH   1   2
ATOM      2  C   UNL     1       8.301  -1.959  -2.961  1.00  0.00     0.303 C 
ATOM      3  O   UNL     1       9.457  -2.418  -3.142  1.00  0.00    -0.252 OA
BRANCH   2   4
ATOM      4  O   UNL     1       7.257  -2.595  -3.615  1.00  0.00    -0.481 OA
ATOM      5  H   UNL     1       7.524  -3.283  -4.322  1.00  0.00     0.296 HD
ENDBRANCH   2   4
ENDBRANCH   1   2
BRANCH   1   6
ATOM      6  C   UNL     1       7.266  -1.249  -0.871  1.00  0.00     0.047 C 
BRANCH   6   7
ATOM      7  C   UNL     1       6.468  -0.212  -0.220  1.00  0.00    -0.047 A 
ATOM      8  C   UNL     1       6.083   0.954  -0.834  1.00  0.00     0.004 A 
ATOM      9  C   UNL     1       6.074  -0.400   1.082  1.00  0.00     0.004 A 
ATOM     10  C   UNL     1       5.333   1.919  -0.206  1.00  0.00     0.000 A 
ATOM     11  C   UNL     1       5.323   0.546   1.741  1.00  0.00     0.000 A 
ATOM     12  C   UNL     1       4.941   1.724   1.101  1.00  0.00     0.000 A 
ENDBRANCH   6   7
ENDBRANCH   1   6
TORSDOF 4
ENDMDL
MODEL 4
REMARK VINA RESULT:      -6.8      3.363      5.056
REMARK SMILES O=C(O)CCc1ccccc1
REMARK SMILES IDX 4 1 2 2 1 3 3 4 5 6 6 7 7 8 11 9 8 10 10 11 9 12
REMARK H PARENT 3 5
REMARK Flexibility Score: inf
ROOT
ATOM      1  C   UNL     1       5.028   1.844   0.712  1.00  0.00     0.127 C 
ENDROOT
BRANCH   1   2
ATOM      2  C   UNL     1       4.519   1.119   1.905  1.00  0.00     0.303 C 
ATOM      3  O   UNL     1       5.144   0.194   2.483  1.00  0.00    -0.252 OA
BRANCH   2   4
ATOM      4  O   UNL     1       3.283   1.470   2.426  1.00  0.00    -0.481 OA
ATOM      5  H   UNL     1       2.582   0.727   2.456  1.00  0.00     0.296 HD
ENDBRANCH   2   4
ENDBRANCH   1   2
BRANCH   1   6
ATOM      6  C   UNL     1       6.529   1.820   0.715  1.00  0.00     0.047 C 
BRANCH   6   7
ATOM      7  C   UNL     1       7.122   1.026  -0.358  1.00  0.00    -0.047 A 
ATOM      8  C   UNL     1       6.433   0.086  -1.084  1.00  0.00     0.004 A 
ATOM      9  C   UNL     1       8.445   1.219  -0.671  1.00  0.00     0.004 A 
ATOM     10  C   UNL     1       7.007  -0.653  -2.091  1.00  0.00     0.000 A 
ATOM     11  C   UNL     1       9.052   0.496  -1.673  1.00  0.00     0.000 A 
ATOM     12  C   UNL     1       8.336  -0.454  -2.399  1.00  0.00     0.000 A 
ENDBRANCH   6   7
ENDBRANCH   1   6
TORSDOF 4
ENDMDL
MODEL 5
REMARK VINA RESULT:      -6.7      1.970      2.646
REMARK SMILES O=C(O)CCc1ccccc1
REMARK SMILES IDX 4 1 2 2 1 3 3 4 5 6 6 7 7 8 11 9 8 10 10 11 9 12
REMARK H PARENT 3 5
REMARK Flexibility Score: inf
ROOT
ATOM      1  C   UNL     1       8.271   0.380  -2.079  1.00  0.00     0.127 C 
ENDROOT
BRANCH   1   2
ATOM      2  C   UNL     1       9.431   0.416  -1.150  1.00  0.00     0.303 C 
ATOM      3  O   UNL     1       9.549  -0.333  -0.147  1.00  0.00    -0.252 OA
BRANCH   2   4
ATOM      4  O   UNL     1      10.453   1.322  -1.389  1.00  0.00    -0.481 OA
ATOM      5  H   UNL     1      11.091   1.493  -0.609  1.00  0.00     0.296 HD
ENDBRANCH   2   4
ENDBRANCH   1   2
BRANCH   1   6
ATOM      6  C   UNL     1       7.190  -0.482  -1.495  1.00  0.00     0.047 C 
BRANCH   6   7
ATOM      7  C   UNL     1       6.397   0.166  -0.454  1.00  0.00    -0.047 A 
ATOM      8  C   UNL     1       5.794   1.391  -0.604  1.00  0.00     0.004 A 
ATOM      9  C   UNL     1       6.235  -0.473   0.750  1.00  0.00     0.004 A 
ATOM     10  C   UNL     1       5.050   1.987   0.387  1.00  0.00     0.000 A 
ATOM     11  C   UNL     1       5.498   0.094   1.764  1.00  0.00     0.000 A 
ATOM     12  C   UNL     1       4.893   1.339   1.593  1.00  0.00     0.000 A 
ENDBRANCH   6   7
ENDBRANCH   1   6
TORSDOF 4
ENDMDL
