@<TRIPOS>MOLECULE
/home/cewinharhar/GITHUB/reincatalyze/data/processed/docking_pred/2023-Apr-25-2140_maxeplen10_maxtrainstep200_exh16_gamma099_lrac3e-4_lrcr1e-3/4e2e003c692afcef440410ba16f5bc8e831af6c9_ligand_2.pdbqt
 12 12 0 0 0
SMALL
GASTEIGER

@<TRIPOS>ATOM
      1  C          8.2710    0.3800   -2.0790 C.3     1  UNL1        0.1270
      2  C          9.4310    0.4160   -1.1500 C.2     1  UNL1        0.3030
      3  O          9.5490   -0.3330   -0.1470 O.2     1  UNL1       -0.2520
      4  O         10.4530    1.3220   -1.3890 O.3     1  UNL1       -0.4810
      5  H         11.0910    1.4930   -0.6090 H       1  UNL1        0.2960
      6  C          7.1900   -0.4820   -1.4950 C.3     1  UNL1        0.0470
      7  C          6.3970    0.1660   -0.4540 C.2     1  UNL1       -0.0470
      8  C          5.7940    1.3910   -0.6040 C.2     1  UNL1        0.0040
      9  C          6.2350   -0.4730    0.7500 C.2     1  UNL1        0.0040
     10  C          5.0500    1.9870    0.3870 C.2     1  UNL1        0.0000
     11  C          5.4980    0.0940    1.7640 C.2     1  UNL1        0.0000
     12  C          4.8930    1.3390    1.5930 C.2     1  UNL1        0.0000
@<TRIPOS>BOND
     1     1     6    1
     2     1     2    1
     3     6     7    1
     4     4     2    1
     5     4     5    1
     6     2     3    2
     7     8     7    2
     8     8    10    1
     9     7     9    1
    10    10    12    2
    11     9    11    2
    12    12    11    1
