@<TRIPOS>MOLECULE
/home/cewinharhar/GITHUB/reincatalyze/data/processed/docking_pred/2023-Apr-25-2140_maxeplen10_maxtrainstep200_exh16_gamma099_lrac3e-4_lrcr1e-3/4e2e003c692afcef440410ba16f5bc8e831af6c9_ligand_2.pdbqt
 12 12 0 0 0
SMALL
GASTEIGER

@<TRIPOS>ATOM
      1  C          8.4360   -0.5440   -2.2410 C.3     1  UNL1        0.1270
      2  C          8.5090   -1.8660   -2.9170 C.2     1  UNL1        0.3030
      3  O          9.5760   -2.5080   -3.0880 O.2     1  UNL1       -0.2520
      4  O          7.3400   -2.4420   -3.3920 O.3     1  UNL1       -0.4810
      5  H          6.8460   -3.0560   -2.7410 H       1  UNL1        0.2960
      6  C          7.0040   -0.1020   -2.1630 C.3     1  UNL1        0.0470
      7  C          6.4860    0.0280   -0.8030 C.2     1  UNL1       -0.0470
      8  C          6.5920   -0.9520    0.1520 C.2     1  UNL1        0.0040
      9  C          5.8530    1.1920   -0.4440 C.2     1  UNL1        0.0040
     10  C          6.0990   -0.8140    1.4270 C.2     1  UNL1        0.0000
     11  C          5.3460    1.3650    0.8230 C.2     1  UNL1        0.0000
     12  C          5.4640    0.3580    1.7800 C.2     1  UNL1        0.0000
@<TRIPOS>BOND
     1     4     2    1
     2     4     5    1
     3     3     2    2
     4     2     1    1
     5     1     6    1
     6     6     7    1
     7     7     9    2
     8     7     8    1
     9     9    11    1
    10     8    10    2
    11    11    12    2
    12    10    12    1
