@<TRIPOS>MOLECULE
/home/cewinharhar/GITHUB/reincatalyze/data/processed/docking_pred/2023-Apr-25-2140_maxeplen10_maxtrainstep200_exh16_gamma099_lrac3e-4_lrcr1e-3/4e2e003c692afcef440410ba16f5bc8e831af6c9_ligand_2.pdbqt
 12 12 0 0 0
SMALL
GASTEIGER

@<TRIPOS>ATOM
      1  C          8.4130   -0.5220   -2.2560 C.3     1  UNL1        0.1270
      2  C          8.5000   -1.8500   -2.9160 C.2     1  UNL1        0.3030
      3  O          9.5730   -2.4860   -3.0730 O.2     1  UNL1       -0.2520
      4  O          7.3390   -2.4390   -3.3930 O.3     1  UNL1       -0.4810
      5  H          6.6330   -2.6720   -2.6910 H       1  UNL1        0.2960
      6  C          6.9780   -0.0860   -2.1970 C.3     1  UNL1        0.0470
      7  C          6.4570    0.0980   -0.8450 C.2     1  UNL1       -0.0470
      8  C          5.8380    1.2450   -0.4140 C.2     1  UNL1        0.0040
      9  C          6.5880   -0.9260    0.0600 C.2     1  UNL1        0.0040
     10  C          5.3530    1.4010    0.8630 C.2     1  UNL1        0.0000
     11  C          6.1150   -0.8040    1.3460 C.2     1  UNL1        0.0000
     12  C          5.4880    0.3680    1.7660 C.2     1  UNL1        0.0000
@<TRIPOS>BOND
     1     4     2    1
     2     4     5    1
     3     3     2    2
     4     2     1    1
     5     1     6    1
     6     6     7    1
     7     7     8    2
     8     7     9    1
     9     8    10    1
    10     9    11    2
    11    10    12    2
    12    11    12    1
