@<TRIPOS>MOLECULE
/home/cewinharhar/GITHUB/reincatalyze/data/processed/docking_pred/2023-Apr-25-2140_maxeplen10_maxtrainstep200_exh16_gamma099_lrac3e-4_lrcr1e-3/4e2e003c692afcef440410ba16f5bc8e831af6c9_ligand_2.pdbqt
 12 12 0 0 0
SMALL
GASTEIGER

@<TRIPOS>ATOM
      1  C          5.0280    1.8440    0.7120 C.3     1  UNL1        0.1270
      2  C          4.5190    1.1190    1.9050 C.2     1  UNL1        0.3030
      3  O          5.1440    0.1940    2.4830 O.2     1  UNL1       -0.2520
      4  O          3.2830    1.4700    2.4260 O.3     1  UNL1       -0.4810
      5  H          2.5820    0.7270    2.4560 H       1  UNL1        0.2960
      6  C          6.5290    1.8200    0.7150 C.3     1  UNL1        0.0470
      7  C          7.1220    1.0260   -0.3580 C.2     1  UNL1       -0.0470
      8  C          6.4330    0.0860   -1.0840 C.2     1  UNL1        0.0040
      9  C          8.4450    1.2190   -0.6710 C.2     1  UNL1        0.0040
     10  C          7.0070   -0.6530   -2.0910 C.2     1  UNL1        0.0000
     11  C          9.0520    0.4960   -1.6730 C.2     1  UNL1        0.0000
     12  C          8.3360   -0.4540   -2.3990 C.2     1  UNL1        0.0000
@<TRIPOS>BOND
     1    12    10    2
     2    12    11    1
     3    10     8    1
     4    11     9    2
     5     8     7    2
     6     9     7    1
     7     7     6    1
     8     1     6    1
     9     1     2    1
    10     2     4    1
    11     2     3    2
    12     4     5    1
