@<TRIPOS>MOLECULE
/home/cewinharhar/GITHUB/reincatalyze/data/processed/docking_pred/2023-Apr-25-2140_maxeplen10_maxtrainstep200_exh16_gamma099_lrac3e-4_lrcr1e-3/4e2e003c692afcef440410ba16f5bc8e831af6c9_ligand_2.pdbqt
 12 12 0 0 0
SMALL
GASTEIGER

@<TRIPOS>ATOM
      1  C          8.0010   -0.7890   -2.0950 C.3     1  UNL1        0.1270
      2  C          8.3010   -1.9590   -2.9610 C.2     1  UNL1        0.3030
      3  O          9.4570   -2.4180   -3.1420 O.2     1  UNL1       -0.2520
      4  O          7.2570   -2.5950   -3.6150 O.3     1  UNL1       -0.4810
      5  H          7.5240   -3.2830   -4.3220 H       1  UNL1        0.2960
      6  C          7.2660   -1.2490   -0.8710 C.3     1  UNL1        0.0470
      7  C          6.4680   -0.2120   -0.2200 C.2     1  UNL1       -0.0470
      8  C          6.0830    0.9540   -0.8340 C.2     1  UNL1        0.0040
      9  C          6.0740   -0.4000    1.0820 C.2     1  UNL1        0.0040
     10  C          5.3330    1.9190   -0.2060 C.2     1  UNL1        0.0000
     11  C          5.3230    0.5460    1.7410 C.2     1  UNL1        0.0000
     12  C          4.9410    1.7240    1.1010 C.2     1  UNL1        0.0000
@<TRIPOS>BOND
     1     5     4    1
     2     4     2    1
     3     3     2    2
     4     2     1    1
     5     1     6    1
     6     6     7    1
     7     8     7    2
     8     8    10    1
     9     7     9    1
    10    10    12    2
    11     9    11    2
    12    12    11    1
