@<TRIPOS>MOLECULE
/home/cewinharhar/GITHUB/reincatalyze/data/processed/docking_pred/2023-Apr-25-2140_maxeplen10_maxtrainstep200_exh16_gamma099_lrac3e-4_lrcr1e-3/4f8338f1f65f27d68c3e57a6b5041c9c59ec4c55_ligand_2.pdbqt
 12 12 0 0 0
SMALL
GASTEIGER

@<TRIPOS>ATOM
      1  C          8.2340    0.2900   -2.2410 C.3     1  UNL1        0.1270
      2  C          9.3440    0.3810   -1.2570 C.2     1  UNL1        0.3030
      3  O          9.4620   -0.3780   -0.2610 O.2     1  UNL1       -0.2520
      4  O         10.3180    1.3530   -1.4310 O.3     1  UNL1       -0.4810
      5  H         10.3470    1.7980   -2.3510 H       1  UNL1        0.2960
      6  C          7.0860   -0.4590   -1.6310 C.3     1  UNL1        0.0470
      7  C          6.3290    0.3000   -0.6380 C.2     1  UNL1       -0.0470
      8  C          6.1070   -0.1320    0.6460 C.2     1  UNL1        0.0040
      9  C          5.8020    1.5160   -0.9950 C.2     1  UNL1        0.0040
     10  C          5.3920    0.5950    1.5680 C.2     1  UNL1        0.0000
     11  C          5.0810    2.2700   -0.0980 C.2     1  UNL1        0.0000
     12  C          4.8660    1.8160    1.2020 C.2     1  UNL1        0.0000
@<TRIPOS>BOND
     1     5     4    1
     2     1     6    1
     3     1     2    1
     4     6     7    1
     5     4     2    1
     6     2     3    2
     7     9     7    2
     8     9    11    1
     9     7     8    1
    10    11    12    2
    11     8    10    2
    12    12    10    1
