@<TRIPOS>MOLECULE
/home/cewinharhar/GITHUB/reincatalyze/data/processed/docking_pred/2023-Apr-25-2140_maxeplen10_maxtrainstep200_exh16_gamma099_lrac3e-4_lrcr1e-3/4f8338f1f65f27d68c3e57a6b5041c9c59ec4c55_ligand_2.pdbqt
 12 12 0 0 0
SMALL
GASTEIGER

@<TRIPOS>ATOM
      1  C          8.4410   -0.5320   -2.2710 C.3     1  UNL1        0.1270
      2  C          8.5180   -1.8670   -2.9210 C.2     1  UNL1        0.3030
      3  O          9.5870   -2.5090   -3.0780 O.2     1  UNL1       -0.2520
      4  O          7.3510   -2.4530   -3.3870 O.3     1  UNL1       -0.4810
      5  H          7.3000   -3.4720   -3.3100 H       1  UNL1        0.2960
      6  C          7.0070   -0.1010   -2.1830 C.3     1  UNL1        0.0470
      7  C          6.4980    0.0270   -0.8190 C.2     1  UNL1       -0.0470
      8  C          6.6010   -0.9580    0.1310 C.2     1  UNL1        0.0040
      9  C          5.8770    1.1950   -0.4520 C.2     1  UNL1        0.0040
     10  C          6.1160   -0.8210    1.4100 C.2     1  UNL1        0.0000
     11  C          5.3790    1.3670    0.8190 C.2     1  UNL1        0.0000
     12  C          5.4930    0.3550    1.7710 C.2     1  UNL1        0.0000
@<TRIPOS>BOND
     1     4     5    1
     2     4     2    1
     3     3     2    2
     4     2     1    1
     5     1     6    1
     6     6     7    1
     7     7     9    2
     8     7     8    1
     9     9    11    1
    10     8    10    2
    11    11    12    2
    12    10    12    1
