@<TRIPOS>MOLECULE
/home/cewinharhar/GITHUB/reincatalyze/data/processed/docking_pred/2023-Apr-25-2140_maxeplen10_maxtrainstep200_exh16_gamma099_lrac3e-4_lrcr1e-3/4f8338f1f65f27d68c3e57a6b5041c9c59ec4c55_ligand_2.pdbqt
 12 12 0 0 0
SMALL
GASTEIGER

@<TRIPOS>ATOM
      1  C          5.3960    2.8930    0.0460 C.3     1  UNL1        0.1270
      2  C          6.2200    3.8830    0.7880 C.2     1  UNL1        0.3030
      3  O          6.9130    4.7740    0.2350 O.2     1  UNL1       -0.2520
      4  O          6.2350    3.8370    2.1740 O.3     1  UNL1       -0.4810
      5  H          7.0720    3.4320    2.6000 H       1  UNL1        0.2960
      6  C          4.9120    1.8360    0.9930 C.3     1  UNL1        0.0470
      7  C          5.6960    0.6030    0.9750 C.2     1  UNL1       -0.0470
      8  C          5.8240   -0.2380    2.0530 C.2     1  UNL1        0.0040
      9  C          6.3490    0.2510   -0.1800 C.2     1  UNL1        0.0040
     10  C          6.5660   -1.3940    2.0180 C.2     1  UNL1        0.0000
     11  C          7.1010   -0.8990   -0.2500 C.2     1  UNL1        0.0000
     12  C          7.2190   -1.7410    0.8550 C.2     1  UNL1        0.0000
@<TRIPOS>BOND
     1    11     9    1
     2    11    12    2
     3     9     7    2
     4     1     2    1
     5     1     6    1
     6     3     2    2
     7     2     4    1
     8    12    10    1
     9     7     6    1
    10     7     8    1
    11    10     8    2
    12     4     5    1
