MODEL 1
REMARK VINA RESULT:      -7.4      0.000      0.000
REMARK SMILES O=C(O)CCc1ccccc1
REMARK SMILES IDX 4 1 2 2 1 3 3 4 5 6 6 7 7 8 11 9 8 10 10 11 9 12
REMARK H PARENT 3 5
REMARK Flexibility Score: inf
ROOT
ATOM      1  C   UNL     1       8.438  -0.597  -2.180  1.00  0.00     0.127 C 
ENDROOT
BRANCH   1   2
ATOM      2  C   UNL     1       8.496  -1.890  -2.910  1.00  0.00     0.303 C 
ATOM      3  O   UNL     1       9.556  -2.536  -3.108  1.00  0.00    -0.252 OA
BRANCH   2   4
ATOM      4  O   UNL     1       7.321  -2.432  -3.409  1.00  0.00    -0.481 OA
ATOM      5  H   UNL     1       7.241  -3.450  -3.362  1.00  0.00     0.296 HD
ENDBRANCH   2   4
ENDBRANCH   1   2
BRANCH   1   6
ATOM      6  C   UNL     1       7.023  -0.097  -2.161  1.00  0.00     0.047 C 
BRANCH   6   7
ATOM      7  C   UNL     1       6.472   0.104  -0.822  1.00  0.00    -0.047 A 
ATOM      8  C   UNL     1       5.833   1.252  -0.423  1.00  0.00     0.004 A 
ATOM      9  C   UNL     1       6.592  -0.905   0.102  1.00  0.00     0.004 A 
ATOM     10  C   UNL     1       5.320   1.424   0.840  1.00  0.00     0.000 A 
ATOM     11  C   UNL     1       6.092  -0.766   1.376  1.00  0.00     0.000 A 
ATOM     12  C   UNL     1       5.446   0.407   1.762  1.00  0.00     0.000 A 
ENDBRANCH   6   7
ENDBRANCH   1   6
TORSDOF 4
ENDMDL
MODEL 2
REMARK VINA RESULT:      -7.4      0.069      1.427
REMARK SMILES O=C(O)CCc1ccccc1
REMARK SMILES IDX 4 1 2 2 1 3 3 4 5 6 6 7 7 8 11 9 8 10 10 11 9 12
REMARK H PARENT 3 5
REMARK Flexibility Score: inf
ROOT
ATOM      1  C   UNL     1       8.441  -0.532  -2.271  1.00  0.00     0.127 C 
ENDROOT
BRANCH   1   2
ATOM      2  C   UNL     1       8.518  -1.867  -2.921  1.00  0.00     0.303 C 
ATOM      3  O   UNL     1       9.587  -2.509  -3.078  1.00  0.00    -0.252 OA
BRANCH   2   4
ATOM      4  O   UNL     1       7.351  -2.453  -3.387  1.00  0.00    -0.481 OA
ATOM      5  H   UNL     1       7.300  -3.472  -3.310  1.00  0.00     0.296 HD
ENDBRANCH   2   4
ENDBRANCH   1   2
BRANCH   1   6
ATOM      6  C   UNL     1       7.007  -0.101  -2.183  1.00  0.00     0.047 C 
BRANCH   6   7
ATOM      7  C   UNL     1       6.498   0.027  -0.819  1.00  0.00    -0.047 A 
ATOM      8  C   UNL     1       6.601  -0.958   0.131  1.00  0.00     0.004 A 
ATOM      9  C   UNL     1       5.877   1.195  -0.452  1.00  0.00     0.004 A 
ATOM     10  C   UNL     1       6.116  -0.821   1.410  1.00  0.00     0.000 A 
ATOM     11  C   UNL     1       5.379   1.367   0.819  1.00  0.00     0.000 A 
ATOM     12  C   UNL     1       5.493   0.355   1.771  1.00  0.00     0.000 A 
ENDBRANCH   6   7
ENDBRANCH   1   6
TORSDOF 4
ENDMDL
MODEL 3
REMARK VINA RESULT:      -6.8      3.367      5.064
REMARK SMILES O=C(O)CCc1ccccc1
REMARK SMILES IDX 4 1 2 2 1 3 3 4 5 6 6 7 7 8 11 9 8 10 10 11 9 12
REMARK H PARENT 3 5
REMARK Flexibility Score: inf
ROOT
ATOM      1  C   UNL     1       5.023   1.809   0.718  1.00  0.00     0.127 C 
ENDROOT
BRANCH   1   2
ATOM      2  C   UNL     1       4.505   1.098   1.916  1.00  0.00     0.303 C 
ATOM      3  O   UNL     1       5.119   0.170   2.501  1.00  0.00    -0.252 OA
BRANCH   2   4
ATOM      4  O   UNL     1       3.273   1.468   2.435  1.00  0.00    -0.481 OA
ATOM      5  H   UNL     1       3.297   2.099   3.239  1.00  0.00     0.296 HD
ENDBRANCH   2   4
ENDBRANCH   1   2
BRANCH   1   6
ATOM      6  C   UNL     1       6.523   1.825   0.757  1.00  0.00     0.047 C 
BRANCH   6   7
ATOM      7  C   UNL     1       7.162   1.075  -0.322  1.00  0.00    -0.047 A 
ATOM      8  C   UNL     1       8.484   1.212  -0.669  1.00  0.00     0.004 A 
ATOM      9  C   UNL     1       6.412   0.179  -1.041  1.00  0.00     0.004 A 
ATOM     10  C   UNL     1       9.070   0.499  -1.687  1.00  0.00     0.000 A 
ATOM     11  C   UNL     1       6.966  -0.552  -2.067  1.00  0.00     0.000 A 
ATOM     12  C   UNL     1       8.310  -0.400  -2.404  1.00  0.00     0.000 A 
ENDBRANCH   6   7
ENDBRANCH   1   6
TORSDOF 4
ENDMDL
MODEL 4
REMARK VINA RESULT:      -6.7      3.824      5.018
REMARK SMILES O=C(O)CCc1ccccc1
REMARK SMILES IDX 4 1 2 2 1 3 3 4 5 6 6 7 7 8 11 9 8 10 10 11 9 12
REMARK H PARENT 3 5
REMARK Flexibility Score: inf
ROOT
ATOM      1  C   UNL     1       5.396   2.893   0.046  1.00  0.00     0.127 C 
ENDROOT
BRANCH   1   2
ATOM      2  C   UNL     1       6.220   3.883   0.788  1.00  0.00     0.303 C 
ATOM      3  O   UNL     1       6.913   4.774   0.235  1.00  0.00    -0.252 OA
BRANCH   2   4
ATOM      4  O   UNL     1       6.235   3.837   2.174  1.00  0.00    -0.481 OA
ATOM      5  H   UNL     1       7.072   3.432   2.600  1.00  0.00     0.296 HD
ENDBRANCH   2   4
ENDBRANCH   1   2
BRANCH   1   6
ATOM      6  C   UNL     1       4.912   1.836   0.993  1.00  0.00     0.047 C 
BRANCH   6   7
ATOM      7  C   UNL     1       5.696   0.603   0.975  1.00  0.00    -0.047 A 
ATOM      8  C   UNL     1       5.824  -0.238   2.053  1.00  0.00     0.004 A 
ATOM      9  C   UNL     1       6.349   0.251  -0.180  1.00  0.00     0.004 A 
ATOM     10  C   UNL     1       6.566  -1.394   2.018  1.00  0.00     0.000 A 
ATOM     11  C   UNL     1       7.101  -0.899  -0.250  1.00  0.00     0.000 A 
ATOM     12  C   UNL     1       7.219  -1.741   0.855  1.00  0.00     0.000 A 
ENDBRANCH   6   7
ENDBRANCH   1   6
TORSDOF 4
ENDMDL
MODEL 5
REMARK VINA RESULT:      -6.7      1.933      2.646
REMARK SMILES O=C(O)CCc1ccccc1
REMARK SMILES IDX 4 1 2 2 1 3 3 4 5 6 6 7 7 8 11 9 8 10 10 11 9 12
REMARK H PARENT 3 5
REMARK Flexibility Score: inf
ROOT
ATOM      1  C   UNL     1       8.234   0.290  -2.241  1.00  0.00     0.127 C 
ENDROOT
BRANCH   1   2
ATOM      2  C   UNL     1       9.344   0.381  -1.257  1.00  0.00     0.303 C 
ATOM      3  O   UNL     1       9.462  -0.378  -0.261  1.00  0.00    -0.252 OA
BRANCH   2   4
ATOM      4  O   UNL     1      10.318   1.353  -1.431  1.00  0.00    -0.481 OA
ATOM      5  H   UNL     1      10.347   1.798  -2.351  1.00  0.00     0.296 HD
ENDBRANCH   2   4
ENDBRANCH   1   2
BRANCH   1   6
ATOM      6  C   UNL     1       7.086  -0.459  -1.631  1.00  0.00     0.047 C 
BRANCH   6   7
ATOM      7  C   UNL     1       6.329   0.300  -0.638  1.00  0.00    -0.047 A 
ATOM      8  C   UNL     1       6.107  -0.132   0.646  1.00  0.00     0.004 A 
ATOM      9  C   UNL     1       5.802   1.516  -0.995  1.00  0.00     0.004 A 
ATOM     10  C   UNL     1       5.392   0.595   1.568  1.00  0.00     0.000 A 
ATOM     11  C   UNL     1       5.081   2.270  -0.098  1.00  0.00     0.000 A 
ATOM     12  C   UNL     1       4.866   1.816   1.202  1.00  0.00     0.000 A 
ENDBRANCH   6   7
ENDBRANCH   1   6
TORSDOF 4
ENDMDL
