@<TRIPOS>MOLECULE
/home/cewinharhar/GITHUB/reincatalyze/data/processed/docking_pred/2023-Apr-25-2140_maxeplen10_maxtrainstep200_exh16_gamma099_lrac3e-4_lrcr1e-3/4f8338f1f65f27d68c3e57a6b5041c9c59ec4c55_ligand_2.pdbqt
 12 12 0 0 0
SMALL
GASTEIGER

@<TRIPOS>ATOM
      1  C          5.0230    1.8090    0.7180 C.3     1  UNL1        0.1270
      2  C          4.5050    1.0980    1.9160 C.2     1  UNL1        0.3030
      3  O          5.1190    0.1700    2.5010 O.2     1  UNL1       -0.2520
      4  O          3.2730    1.4680    2.4350 O.3     1  UNL1       -0.4810
      5  H          3.2970    2.0990    3.2390 H       1  UNL1        0.2960
      6  C          6.5230    1.8250    0.7570 C.3     1  UNL1        0.0470
      7  C          7.1620    1.0750   -0.3220 C.2     1  UNL1       -0.0470
      8  C          8.4840    1.2120   -0.6690 C.2     1  UNL1        0.0040
      9  C          6.4120    0.1790   -1.0410 C.2     1  UNL1        0.0040
     10  C          9.0700    0.4990   -1.6870 C.2     1  UNL1        0.0000
     11  C          6.9660   -0.5520   -2.0670 C.2     1  UNL1        0.0000
     12  C          8.3100   -0.4000   -2.4040 C.2     1  UNL1        0.0000
@<TRIPOS>BOND
     1    12    11    2
     2    12    10    1
     3    11     9    1
     4    10     8    2
     5     9     7    2
     6     8     7    1
     7     7     6    1
     8     1     6    1
     9     1     2    1
    10     2     4    1
    11     2     3    2
    12     4     5    1
