@<TRIPOS>MOLECULE
/home/cewinharhar/GITHUB/reincatalyze/data/processed/docking_pred/2023-Apr-25-2140_maxeplen10_maxtrainstep200_exh16_gamma099_lrac3e-4_lrcr1e-3/4f8338f1f65f27d68c3e57a6b5041c9c59ec4c55_ligand_2.pdbqt
 12 12 0 0 0
SMALL
GASTEIGER

@<TRIPOS>ATOM
      1  C          8.4380   -0.5970   -2.1800 C.3     1  UNL1        0.1270
      2  C          8.4960   -1.8900   -2.9100 C.2     1  UNL1        0.3030
      3  O          9.5560   -2.5360   -3.1080 O.2     1  UNL1       -0.2520
      4  O          7.3210   -2.4320   -3.4090 O.3     1  UNL1       -0.4810
      5  H          7.2410   -3.4500   -3.3620 H       1  UNL1        0.2960
      6  C          7.0230   -0.0970   -2.1610 C.3     1  UNL1        0.0470
      7  C          6.4720    0.1040   -0.8220 C.2     1  UNL1       -0.0470
      8  C          5.8330    1.2520   -0.4230 C.2     1  UNL1        0.0040
      9  C          6.5920   -0.9050    0.1020 C.2     1  UNL1        0.0040
     10  C          5.3200    1.4240    0.8400 C.2     1  UNL1        0.0000
     11  C          6.0920   -0.7660    1.3760 C.2     1  UNL1        0.0000
     12  C          5.4460    0.4070    1.7620 C.2     1  UNL1        0.0000
@<TRIPOS>BOND
     1     4     5    1
     2     4     2    1
     3     3     2    2
     4     2     1    1
     5     1     6    1
     6     6     7    1
     7     7     8    2
     8     7     9    1
     9     8    10    1
    10     9    11    2
    11    10    12    2
    12    11    12    1
