@<TRIPOS>MOLECULE
/home/cewinharhar/GITHUB/reincatalyze/data/processed/docking_pred/2023-Apr-25-2140_maxeplen10_maxtrainstep200_exh16_gamma099_lrac3e-4_lrcr1e-3/4f8485ffa73320ccf1b94cd7b1ea99ef776c762b_ligand_2.pdbqt
 12 12 0 0 0
SMALL
GASTEIGER

@<TRIPOS>ATOM
      1  C          8.0160   -1.2950    2.5720 C.3     1  UNL1        0.1270
      2  C          9.0600   -2.1240    1.9160 C.2     1  UNL1        0.3030
      3  O         10.2940   -1.9880    2.1190 O.2     1  UNL1       -0.2520
      4  O          8.6700   -3.1100    1.0230 O.3     1  UNL1       -0.4810
      5  H          9.0090   -3.0070    0.0640 H       1  UNL1        0.2960
      6  C          6.7040   -1.5000    1.8750 C.3     1  UNL1        0.0470
      7  C          6.2580   -0.3600    1.0790 C.2     1  UNL1       -0.0470
      8  C          6.5980   -0.1660   -0.2370 C.2     1  UNL1        0.0040
      9  C          5.4510    0.5830    1.6660 C.2     1  UNL1        0.0040
     10  C          6.1700    0.9130   -0.9720 C.2     1  UNL1        0.0000
     11  C          5.0050    1.6770    0.9610 C.2     1  UNL1        0.0000
     12  C          5.3600    1.8560   -0.3750 C.2     1  UNL1        0.0000
@<TRIPOS>BOND
     1    10    12    2
     2    10     8    1
     3    12    11    1
     4     8     7    2
     5     5     4    1
     6    11     9    2
     7     4     2    1
     8     7     9    1
     9     7     6    1
    10     6     1    1
    11     2     3    2
    12     2     1    1
