@<TRIPOS>MOLECULE
/home/cewinharhar/GITHUB/reincatalyze/data/processed/docking_pred/2023-Apr-25-2140_maxeplen10_maxtrainstep200_exh16_gamma099_lrac3e-4_lrcr1e-3/4f8485ffa73320ccf1b94cd7b1ea99ef776c762b_ligand_2.pdbqt
 12 12 0 0 0
SMALL
GASTEIGER

@<TRIPOS>ATOM
      1  C          8.4660   -0.6000   -2.1620 C.3     1  UNL1        0.1270
      2  C          8.5150   -1.8940   -2.8910 C.2     1  UNL1        0.3030
      3  O          9.5700   -2.5470   -3.0900 O.2     1  UNL1       -0.2520
      4  O          7.3360   -2.4280   -3.3890 O.3     1  UNL1       -0.4810
      5  H          7.4350   -3.0890   -4.1630 H       1  UNL1        0.2960
      6  C          7.0520   -0.0970   -2.1320 C.3     1  UNL1        0.0470
      7  C          6.4920    0.0490   -0.7900 C.2     1  UNL1       -0.0470
      8  C          6.5650   -0.9210    0.1780 C.2     1  UNL1        0.0040
      9  C          5.8520    1.2190   -0.4640 C.2     1  UNL1        0.0040
     10  C          6.0330   -0.7670    1.4360 C.2     1  UNL1        0.0000
     11  C          5.3070    1.4070    0.7850 C.2     1  UNL1        0.0000
     12  C          5.3910    0.4110    1.7560 C.2     1  UNL1        0.0000
@<TRIPOS>BOND
     1     5     4    1
     2     4     2    1
     3     3     2    2
     4     2     1    1
     5     1     6    1
     6     6     7    1
     7     7     9    2
     8     7     8    1
     9     9    11    1
    10     8    10    2
    11    11    12    2
    12    10    12    1
