@<TRIPOS>MOLECULE
/home/cewinharhar/GITHUB/reincatalyze/data/processed/docking_pred/2023-Apr-25-2140_maxeplen10_maxtrainstep200_exh16_gamma099_lrac3e-4_lrcr1e-3/4f8485ffa73320ccf1b94cd7b1ea99ef776c762b_ligand_2.pdbqt
 12 12 0 0 0
SMALL
GASTEIGER

@<TRIPOS>ATOM
      1  C          5.0060    1.7850    0.7320 C.3     1  UNL1        0.1270
      2  C          4.4870    1.0800    1.9330 C.2     1  UNL1        0.3030
      3  O          5.0970    0.1500    2.5190 O.2     1  UNL1       -0.2520
      4  O          3.2580    1.4580    2.4540 O.3     1  UNL1       -0.4810
      5  H          3.1430    2.4540    2.6550 H       1  UNL1        0.2960
      6  C          6.5060    1.7540    0.7450 C.3     1  UNL1        0.0470
      7  C          7.1030    0.9680   -0.3330 C.2     1  UNL1       -0.0470
      8  C          6.4450   -0.0350   -1.0010 C.2     1  UNL1        0.0040
      9  C          8.3950    1.2350   -0.7100 C.2     1  UNL1        0.0040
     10  C          7.0220   -0.7650   -2.0130 C.2     1  UNL1        0.0000
     11  C          9.0040    0.5240   -1.7170 C.2     1  UNL1        0.0000
     12  C          8.3210   -0.4910   -2.3850 C.2     1  UNL1        0.0000
@<TRIPOS>BOND
     1    12    10    2
     2    12    11    1
     3    10     8    1
     4    11     9    2
     5     8     7    2
     6     9     7    1
     7     7     6    1
     8     1     6    1
     9     1     2    1
    10     2     4    1
    11     2     3    2
    12     4     5    1
