@<TRIPOS>MOLECULE
/home/cewinharhar/GITHUB/reincatalyze/data/processed/docking_pred/2023-Apr-25-2140_maxeplen10_maxtrainstep200_exh16_gamma099_lrac3e-4_lrcr1e-3/4f8485ffa73320ccf1b94cd7b1ea99ef776c762b_ligand_2.pdbqt
 12 12 0 0 0
SMALL
GASTEIGER

@<TRIPOS>ATOM
      1  C          5.0120    1.7640    0.7130 C.3     1  UNL1        0.1270
      2  C          4.5200    1.0790    1.9370 C.2     1  UNL1        0.3030
      3  O          3.4040    1.3080    2.4680 O.2     1  UNL1       -0.2520
      4  O          5.3260    0.1270    2.5420 O.3     1  UNL1       -0.4810
      5  H          5.8930    0.4540    3.3280 H       1  UNL1        0.2960
      6  C          6.5110    1.8260    0.7430 C.3     1  UNL1        0.0470
      7  C          7.1680    1.0830   -0.3300 C.2     1  UNL1       -0.0470
      8  C          8.4980    1.2130   -0.6460 C.2     1  UNL1        0.0040
      9  C          6.4260    0.2010   -1.0750 C.2     1  UNL1        0.0040
     10  C          9.1000    0.5060   -1.6590 C.2     1  UNL1        0.0000
     11  C          6.9960   -0.5220   -2.0970 C.2     1  UNL1        0.0000
     12  C          8.3480   -0.3780   -2.4030 C.2     1  UNL1        0.0000
@<TRIPOS>BOND
     1    12    11    2
     2    12    10    1
     3    11     9    1
     4    10     8    2
     5     9     7    2
     6     8     7    1
     7     7     6    1
     8     1     6    1
     9     1     2    1
    10     2     3    2
    11     2     4    1
    12     4     5    1
