@<TRIPOS>MOLECULE
/home/cewinharhar/GITHUB/reincatalyze/data/processed/docking_pred/2023-Apr-25-2140_maxeplen10_maxtrainstep200_exh16_gamma099_lrac3e-4_lrcr1e-3/4f8485ffa73320ccf1b94cd7b1ea99ef776c762b_ligand_2.pdbqt
 12 12 0 0 0
SMALL
GASTEIGER

@<TRIPOS>ATOM
      1  C          8.4440   -0.6480   -2.0830 C.3     1  UNL1        0.1270
      2  C          8.3800   -1.8990   -2.8820 C.2     1  UNL1        0.3030
      3  O          7.3080   -2.4380   -3.2560 O.2     1  UNL1       -0.2520
      4  O          9.5640   -2.5230   -3.2470 O.3     1  UNL1       -0.4810
      5  H          9.9250   -3.2180   -2.5900 H       1  UNL1        0.2960
      6  C          7.1110    0.0400   -2.1240 C.3     1  UNL1        0.0470
      7  C          6.4900    0.2330   -0.8160 C.2     1  UNL1       -0.0470
      8  C          5.7820    1.3560   -0.4640 C.2     1  UNL1        0.0040
      9  C          6.6130   -0.7560    0.1280 C.2     1  UNL1        0.0040
     10  C          5.2040    1.5210    0.7720 C.2     1  UNL1        0.0000
     11  C          6.0480   -0.6240    1.3750 C.2     1  UNL1        0.0000
     12  C          5.3330    0.5230    1.7140 C.2     1  UNL1        0.0000
@<TRIPOS>BOND
     1     3     2    2
     2     4     2    1
     3     4     5    1
     4     2     1    1
     5     6     1    1
     6     6     7    1
     7     7     8    2
     8     7     9    1
     9     8    10    1
    10     9    11    2
    11    10    12    2
    12    11    12    1
