MODEL 1
REMARK VINA RESULT:      -7.1      0.000      0.000
REMARK SMILES O=C(O)CCc1ccccc1
REMARK SMILES IDX 4 1 2 2 1 3 3 4 5 6 6 7 7 8 11 9 8 10 10 11 9 12
REMARK H PARENT 3 5
REMARK Flexibility Score: inf
ROOT
ATOM      1  C   UNL     1       8.466  -0.600  -2.162  1.00  0.00     0.127 C 
ENDROOT
BRANCH   1   2
ATOM      2  C   UNL     1       8.515  -1.894  -2.891  1.00  0.00     0.303 C 
ATOM      3  O   UNL     1       9.570  -2.547  -3.090  1.00  0.00    -0.252 OA
BRANCH   2   4
ATOM      4  O   UNL     1       7.336  -2.428  -3.389  1.00  0.00    -0.481 OA
ATOM      5  H   UNL     1       7.435  -3.089  -4.163  1.00  0.00     0.296 HD
ENDBRANCH   2   4
ENDBRANCH   1   2
BRANCH   1   6
ATOM      6  C   UNL     1       7.052  -0.097  -2.132  1.00  0.00     0.047 C 
BRANCH   6   7
ATOM      7  C   UNL     1       6.492   0.049  -0.790  1.00  0.00    -0.047 A 
ATOM      8  C   UNL     1       6.565  -0.921   0.178  1.00  0.00     0.004 A 
ATOM      9  C   UNL     1       5.852   1.219  -0.464  1.00  0.00     0.004 A 
ATOM     10  C   UNL     1       6.033  -0.767   1.436  1.00  0.00     0.000 A 
ATOM     11  C   UNL     1       5.307   1.407   0.785  1.00  0.00     0.000 A 
ATOM     12  C   UNL     1       5.391   0.411   1.756  1.00  0.00     0.000 A 
ENDBRANCH   6   7
ENDBRANCH   1   6
TORSDOF 4
ENDMDL
MODEL 2
REMARK VINA RESULT:      -7.0      0.151      1.724
REMARK SMILES O=C(O)CCc1ccccc1
REMARK SMILES IDX 4 1 2 2 1 3 3 4 5 6 6 7 7 8 11 9 8 10 10 11 9 12
REMARK H PARENT 3 5
REMARK Flexibility Score: inf
ROOT
ATOM      1  C   UNL     1       8.444  -0.648  -2.083  1.00  0.00     0.127 C 
ENDROOT
BRANCH   1   2
ATOM      2  C   UNL     1       8.380  -1.899  -2.882  1.00  0.00     0.303 C 
ATOM      3  O   UNL     1       7.308  -2.438  -3.256  1.00  0.00    -0.252 OA
BRANCH   2   4
ATOM      4  O   UNL     1       9.564  -2.523  -3.247  1.00  0.00    -0.481 OA
ATOM      5  H   UNL     1       9.925  -3.218  -2.590  1.00  0.00     0.296 HD
ENDBRANCH   2   4
ENDBRANCH   1   2
BRANCH   1   6
ATOM      6  C   UNL     1       7.111   0.040  -2.124  1.00  0.00     0.047 C 
BRANCH   6   7
ATOM      7  C   UNL     1       6.490   0.233  -0.816  1.00  0.00    -0.047 A 
ATOM      8  C   UNL     1       5.782   1.356  -0.464  1.00  0.00     0.004 A 
ATOM      9  C   UNL     1       6.613  -0.756   0.128  1.00  0.00     0.004 A 
ATOM     10  C   UNL     1       5.204   1.521   0.772  1.00  0.00     0.000 A 
ATOM     11  C   UNL     1       6.048  -0.624   1.375  1.00  0.00     0.000 A 
ATOM     12  C   UNL     1       5.333   0.523   1.714  1.00  0.00     0.000 A 
ENDBRANCH   6   7
ENDBRANCH   1   6
TORSDOF 4
ENDMDL
MODEL 3
REMARK VINA RESULT:      -6.6      3.362      5.057
REMARK SMILES O=C(O)CCc1ccccc1
REMARK SMILES IDX 4 1 2 2 1 3 3 4 5 6 6 7 7 8 11 9 8 10 10 11 9 12
REMARK H PARENT 3 5
REMARK Flexibility Score: inf
ROOT
ATOM      1  C   UNL     1       5.006   1.785   0.732  1.00  0.00     0.127 C 
ENDROOT
BRANCH   1   2
ATOM      2  C   UNL     1       4.487   1.080   1.933  1.00  0.00     0.303 C 
ATOM      3  O   UNL     1       5.097   0.150   2.519  1.00  0.00    -0.252 OA
BRANCH   2   4
ATOM      4  O   UNL     1       3.258   1.458   2.454  1.00  0.00    -0.481 OA
ATOM      5  H   UNL     1       3.143   2.454   2.655  1.00  0.00     0.296 HD
ENDBRANCH   2   4
ENDBRANCH   1   2
BRANCH   1   6
ATOM      6  C   UNL     1       6.506   1.754   0.745  1.00  0.00     0.047 C 
BRANCH   6   7
ATOM      7  C   UNL     1       7.103   0.968  -0.333  1.00  0.00    -0.047 A 
ATOM      8  C   UNL     1       6.445  -0.035  -1.001  1.00  0.00     0.004 A 
ATOM      9  C   UNL     1       8.395   1.235  -0.710  1.00  0.00     0.004 A 
ATOM     10  C   UNL     1       7.022  -0.765  -2.013  1.00  0.00     0.000 A 
ATOM     11  C   UNL     1       9.004   0.524  -1.717  1.00  0.00     0.000 A 
ATOM     12  C   UNL     1       8.321  -0.491  -2.385  1.00  0.00     0.000 A 
ENDBRANCH   6   7
ENDBRANCH   1   6
TORSDOF 4
ENDMDL
MODEL 4
REMARK VINA RESULT:      -6.5      2.452      3.560
REMARK SMILES O=C(O)CCc1ccccc1
REMARK SMILES IDX 4 1 2 2 1 3 3 4 5 6 6 7 7 8 11 9 8 10 10 11 9 12
REMARK H PARENT 3 5
REMARK Flexibility Score: inf
ROOT
ATOM      1  C   UNL     1       8.016  -1.295   2.572  1.00  0.00     0.127 C 
ENDROOT
BRANCH   1   2
ATOM      2  C   UNL     1       9.060  -2.124   1.916  1.00  0.00     0.303 C 
ATOM      3  O   UNL     1      10.294  -1.988   2.119  1.00  0.00    -0.252 OA
BRANCH   2   4
ATOM      4  O   UNL     1       8.670  -3.110   1.023  1.00  0.00    -0.481 OA
ATOM      5  H   UNL     1       9.009  -3.007   0.064  1.00  0.00     0.296 HD
ENDBRANCH   2   4
ENDBRANCH   1   2
BRANCH   1   6
ATOM      6  C   UNL     1       6.704  -1.500   1.875  1.00  0.00     0.047 C 
BRANCH   6   7
ATOM      7  C   UNL     1       6.258  -0.360   1.079  1.00  0.00    -0.047 A 
ATOM      8  C   UNL     1       6.598  -0.166  -0.237  1.00  0.00     0.004 A 
ATOM      9  C   UNL     1       5.451   0.583   1.666  1.00  0.00     0.004 A 
ATOM     10  C   UNL     1       6.170   0.913  -0.972  1.00  0.00     0.000 A 
ATOM     11  C   UNL     1       5.005   1.677   0.961  1.00  0.00     0.000 A 
ATOM     12  C   UNL     1       5.360   1.856  -0.375  1.00  0.00     0.000 A 
ENDBRANCH   6   7
ENDBRANCH   1   6
TORSDOF 4
ENDMDL
MODEL 5
REMARK VINA RESULT:      -6.4      3.330      5.137
REMARK SMILES O=C(O)CCc1ccccc1
REMARK SMILES IDX 4 1 2 2 1 3 3 4 5 6 6 7 7 8 11 9 8 10 10 11 9 12
REMARK H PARENT 3 5
REMARK Flexibility Score: inf
ROOT
ATOM      1  C   UNL     1       5.012   1.764   0.713  1.00  0.00     0.127 C 
ENDROOT
BRANCH   1   2
ATOM      2  C   UNL     1       4.520   1.079   1.937  1.00  0.00     0.303 C 
ATOM      3  O   UNL     1       3.404   1.308   2.468  1.00  0.00    -0.252 OA
BRANCH   2   4
ATOM      4  O   UNL     1       5.326   0.127   2.542  1.00  0.00    -0.481 OA
ATOM      5  H   UNL     1       5.893   0.454   3.328  1.00  0.00     0.296 HD
ENDBRANCH   2   4
ENDBRANCH   1   2
BRANCH   1   6
ATOM      6  C   UNL     1       6.511   1.826   0.743  1.00  0.00     0.047 C 
BRANCH   6   7
ATOM      7  C   UNL     1       7.168   1.083  -0.330  1.00  0.00    -0.047 A 
ATOM      8  C   UNL     1       8.498   1.213  -0.646  1.00  0.00     0.004 A 
ATOM      9  C   UNL     1       6.426   0.201  -1.075  1.00  0.00     0.004 A 
ATOM     10  C   UNL     1       9.100   0.506  -1.659  1.00  0.00     0.000 A 
ATOM     11  C   UNL     1       6.996  -0.522  -2.097  1.00  0.00     0.000 A 
ATOM     12  C   UNL     1       8.348  -0.378  -2.403  1.00  0.00     0.000 A 
ENDBRANCH   6   7
ENDBRANCH   1   6
TORSDOF 4
ENDMDL
