@<TRIPOS>MOLECULE
/home/cewinharhar/GITHUB/reincatalyze/data/processed/docking_pred/2023-Apr-25-2140_maxeplen10_maxtrainstep200_exh16_gamma099_lrac3e-4_lrcr1e-3/5131ba4422f83928eab452067adeb3f7f7723c60_ligand_2.pdbqt
 12 12 0 0 0
SMALL
GASTEIGER

@<TRIPOS>ATOM
      1  C          5.0270    1.7740    0.6810 C.3     1  UNL1        0.1270
      2  C          4.6040    1.0560    1.9120 C.2     1  UNL1        0.3030
      3  O          5.3060    0.1920    2.4960 O.2     1  UNL1       -0.2520
      4  O          3.3640    1.3430    2.4630 O.3     1  UNL1       -0.4810
      5  H          2.8530    2.1200    2.0370 H       1  UNL1        0.2960
      6  C          6.5250    1.8440    0.6340 C.3     1  UNL1        0.0470
      7  C          7.1350    1.0240   -0.4110 C.2     1  UNL1       -0.0470
      8  C          6.4510    0.0830   -1.1410 C.2     1  UNL1        0.0040
      9  C          8.4680    1.1930   -0.6910 C.2     1  UNL1        0.0040
     10  C          7.0400   -0.6790   -2.1210 C.2     1  UNL1        0.0000
     11  C          9.0900    0.4460   -1.6650 C.2     1  UNL1        0.0000
     12  C          8.3790   -0.5040   -2.3960 C.2     1  UNL1        0.0000
@<TRIPOS>BOND
     1    12    10    2
     2    12    11    1
     3    10     8    1
     4    11     9    2
     5     8     7    2
     6     9     7    1
     7     7     6    1
     8     6     1    1
     9     1     2    1
    10     2     4    1
    11     2     3    2
    12     5     4    1
