@<TRIPOS>MOLECULE
/home/cewinharhar/GITHUB/reincatalyze/data/processed/docking_pred/2023-Apr-25-2140_maxeplen10_maxtrainstep200_exh16_gamma099_lrac3e-4_lrcr1e-3/5131ba4422f83928eab452067adeb3f7f7723c60_ligand_2.pdbqt
 12 12 0 0 0
SMALL
GASTEIGER

@<TRIPOS>ATOM
      1  C          5.3310    2.9160    0.0720 C.3     1  UNL1        0.1270
      2  C          6.2120    3.8550    0.8150 C.2     1  UNL1        0.3030
      3  O          6.8730    4.7750    0.2700 O.2     1  UNL1       -0.2520
      4  O          6.3230    3.7240    2.1910 O.3     1  UNL1       -0.4810
      5  H          6.2890    2.7690    2.5550 H       1  UNL1        0.2960
      6  C          5.2530    1.6130    0.8130 C.3     1  UNL1        0.0470
      7  C          6.0300    0.5310    0.2130 C.2     1  UNL1       -0.0470
      8  C          6.4890   -0.5590    0.9120 C.2     1  UNL1        0.0040
      9  C          6.3280    0.5920   -1.1250 C.2     1  UNL1        0.0040
     10  C          7.2190   -1.5690    0.3320 C.2     1  UNL1        0.0000
     11  C          7.0580   -0.4000   -1.7380 C.2     1  UNL1        0.0000
     12  C          7.5140   -1.4990   -1.0120 C.2     1  UNL1        0.0000
@<TRIPOS>BOND
     1    11     9    1
     2    11    12    2
     3     9     7    2
     4    12    10    1
     5     1     6    1
     6     1     2    1
     7     7     6    1
     8     7     8    1
     9     3     2    2
    10    10     8    2
    11     2     4    1
    12     4     5    1
