@<TRIPOS>MOLECULE
/home/cewinharhar/GITHUB/reincatalyze/data/processed/docking_pred/2023-Apr-25-2140_maxeplen10_maxtrainstep200_exh16_gamma099_lrac3e-4_lrcr1e-3/5131ba4422f83928eab452067adeb3f7f7723c60_ligand_2.pdbqt
 12 12 0 0 0
SMALL
GASTEIGER

@<TRIPOS>ATOM
      1  C          8.4670   -0.6230   -2.1450 C.3     1  UNL1        0.1270
      2  C          8.5270   -1.9000   -2.9030 C.2     1  UNL1        0.3030
      3  O          9.5870   -2.5430   -3.1100 O.2     1  UNL1       -0.2520
      4  O          7.3540   -2.4300   -3.4190 O.3     1  UNL1       -0.4810
      5  H          6.5630   -1.7850   -3.4890 H       1  UNL1        0.2960
      6  C          7.0570   -0.1080   -2.1460 C.3     1  UNL1        0.0470
      7  C          6.4880    0.0970   -0.8160 C.2     1  UNL1       -0.0470
      8  C          5.8300    1.2400   -0.4350 C.2     1  UNL1        0.0040
      9  C          6.6120   -0.9010    0.1180 C.2     1  UNL1        0.0040
     10  C          5.3000    1.4170    0.8210 C.2     1  UNL1        0.0000
     11  C          6.0950   -0.7580    1.3850 C.2     1  UNL1        0.0000
     12  C          5.4290    0.4100    1.7540 C.2     1  UNL1        0.0000
@<TRIPOS>BOND
     1     5     4    1
     2     4     2    1
     3     3     2    2
     4     2     1    1
     5     6     1    1
     6     6     7    1
     7     7     8    2
     8     7     9    1
     9     8    10    1
    10     9    11    2
    11    10    12    2
    12    11    12    1
