MODEL 1
REMARK VINA RESULT:      -7.4      0.000      0.000
REMARK SMILES O=C(O)CCc1ccccc1
REMARK SMILES IDX 4 1 2 2 1 3 3 4 5 6 6 7 7 8 11 9 8 10 10 11 9 12
REMARK H PARENT 3 5
REMARK Flexibility Score: inf
ROOT
ATOM      1  C   UNL     1       8.467  -0.623  -2.145  1.00  0.00     0.127 C 
ENDROOT
BRANCH   1   2
ATOM      2  C   UNL     1       8.527  -1.900  -2.903  1.00  0.00     0.303 C 
ATOM      3  O   UNL     1       9.587  -2.543  -3.110  1.00  0.00    -0.252 OA
BRANCH   2   4
ATOM      4  O   UNL     1       7.354  -2.430  -3.419  1.00  0.00    -0.481 OA
ATOM      5  H   UNL     1       6.563  -1.785  -3.489  1.00  0.00     0.296 HD
ENDBRANCH   2   4
ENDBRANCH   1   2
BRANCH   1   6
ATOM      6  C   UNL     1       7.057  -0.108  -2.146  1.00  0.00     0.047 C 
BRANCH   6   7
ATOM      7  C   UNL     1       6.488   0.097  -0.816  1.00  0.00    -0.047 A 
ATOM      8  C   UNL     1       5.830   1.240  -0.435  1.00  0.00     0.004 A 
ATOM      9  C   UNL     1       6.612  -0.901   0.118  1.00  0.00     0.004 A 
ATOM     10  C   UNL     1       5.300   1.417   0.821  1.00  0.00     0.000 A 
ATOM     11  C   UNL     1       6.095  -0.758   1.385  1.00  0.00     0.000 A 
ATOM     12  C   UNL     1       5.429   0.410   1.754  1.00  0.00     0.000 A 
ENDBRANCH   6   7
ENDBRANCH   1   6
TORSDOF 4
ENDMDL
MODEL 2
REMARK VINA RESULT:      -7.3      0.083      1.428
REMARK SMILES O=C(O)CCc1ccccc1
REMARK SMILES IDX 4 1 2 2 1 3 3 4 5 6 6 7 7 8 11 9 8 10 10 11 9 12
REMARK H PARENT 3 5
REMARK Flexibility Score: inf
ROOT
ATOM      1  C   UNL     1       8.463  -0.559  -2.240  1.00  0.00     0.127 C 
ENDROOT
BRANCH   1   2
ATOM      2  C   UNL     1       8.525  -1.876  -2.926  1.00  0.00     0.303 C 
ATOM      3  O   UNL     1       9.587  -2.526  -3.102  1.00  0.00    -0.252 OA
BRANCH   2   4
ATOM      4  O   UNL     1       7.352  -2.438  -3.407  1.00  0.00    -0.481 OA
ATOM      5  H   UNL     1       6.860  -3.066  -2.767  1.00  0.00     0.296 HD
ENDBRANCH   2   4
ENDBRANCH   1   2
BRANCH   1   6
ATOM      6  C   UNL     1       7.036  -0.104  -2.160  1.00  0.00     0.047 C 
BRANCH   6   7
ATOM      7  C   UNL     1       6.514   0.011  -0.800  1.00  0.00    -0.047 A 
ATOM      8  C   UNL     1       6.620  -0.979   0.145  1.00  0.00     0.004 A 
ATOM      9  C   UNL     1       5.877   1.170  -0.431  1.00  0.00     0.004 A 
ATOM     10  C   UNL     1       6.123  -0.854   1.421  1.00  0.00     0.000 A 
ATOM     11  C   UNL     1       5.367   1.329   0.837  1.00  0.00     0.000 A 
ATOM     12  C   UNL     1       5.485   0.312   1.784  1.00  0.00     0.000 A 
ENDBRANCH   6   7
ENDBRANCH   1   6
TORSDOF 4
ENDMDL
MODEL 3
REMARK VINA RESULT:      -6.8      3.340      5.058
REMARK SMILES O=C(O)CCc1ccccc1
REMARK SMILES IDX 4 1 2 2 1 3 3 4 5 6 6 7 7 8 11 9 8 10 10 11 9 12
REMARK H PARENT 3 5
REMARK Flexibility Score: inf
ROOT
ATOM      1  C   UNL     1       5.027   1.774   0.681  1.00  0.00     0.127 C 
ENDROOT
BRANCH   1   2
ATOM      2  C   UNL     1       4.604   1.056   1.912  1.00  0.00     0.303 C 
ATOM      3  O   UNL     1       5.306   0.192   2.496  1.00  0.00    -0.252 OA
BRANCH   2   4
ATOM      4  O   UNL     1       3.364   1.343   2.463  1.00  0.00    -0.481 OA
ATOM      5  H   UNL     1       2.853   2.120   2.037  1.00  0.00     0.296 HD
ENDBRANCH   2   4
ENDBRANCH   1   2
BRANCH   1   6
ATOM      6  C   UNL     1       6.525   1.844   0.634  1.00  0.00     0.047 C 
BRANCH   6   7
ATOM      7  C   UNL     1       7.135   1.024  -0.411  1.00  0.00    -0.047 A 
ATOM      8  C   UNL     1       6.451   0.083  -1.141  1.00  0.00     0.004 A 
ATOM      9  C   UNL     1       8.468   1.193  -0.691  1.00  0.00     0.004 A 
ATOM     10  C   UNL     1       7.040  -0.679  -2.121  1.00  0.00     0.000 A 
ATOM     11  C   UNL     1       9.090   0.446  -1.665  1.00  0.00     0.000 A 
ATOM     12  C   UNL     1       8.379  -0.504  -2.396  1.00  0.00     0.000 A 
ENDBRANCH   6   7
ENDBRANCH   1   6
TORSDOF 4
ENDMDL
MODEL 4
REMARK VINA RESULT:      -6.7      1.952      2.294
REMARK SMILES O=C(O)CCc1ccccc1
REMARK SMILES IDX 4 1 2 2 1 3 3 4 5 6 6 7 7 8 11 9 8 10 10 11 9 12
REMARK H PARENT 3 5
REMARK Flexibility Score: inf
ROOT
ATOM      1  C   UNL     1       8.275   0.211  -2.193  1.00  0.00     0.127 C 
ENDROOT
BRANCH   1   2
ATOM      2  C   UNL     1       9.386   0.357  -1.217  1.00  0.00     0.303 C 
ATOM      3  O   UNL     1       9.511  -0.351  -0.186  1.00  0.00    -0.252 OA
BRANCH   2   4
ATOM      4  O   UNL     1      10.353   1.325  -1.442  1.00  0.00    -0.481 OA
ATOM      5  H   UNL     1      10.694   1.818  -0.613  1.00  0.00     0.296 HD
ENDBRANCH   2   4
ENDBRANCH   1   2
BRANCH   1   6
ATOM      6  C   UNL     1       7.135  -0.520  -1.547  1.00  0.00     0.047 C 
BRANCH   6   7
ATOM      7  C   UNL     1       6.350   0.287  -0.616  1.00  0.00    -0.047 A 
ATOM      8  C   UNL     1       5.794   1.501  -0.938  1.00  0.00     0.004 A 
ATOM      9  C   UNL     1       6.147  -0.181   0.659  1.00  0.00     0.004 A 
ATOM     10  C   UNL     1       5.057   2.247  -0.050  1.00  0.00     0.000 A 
ATOM     11  C   UNL     1       5.416   0.541   1.574  1.00  0.00     0.000 A 
ATOM     12  C   UNL     1       4.859   1.771   1.228  1.00  0.00     0.000 A 
ENDBRANCH   6   7
ENDBRANCH   1   6
TORSDOF 4
ENDMDL
MODEL 5
REMARK VINA RESULT:      -6.6      3.706      5.111
REMARK SMILES O=C(O)CCc1ccccc1
REMARK SMILES IDX 4 1 2 2 1 3 3 4 5 6 6 7 7 8 11 9 8 10 10 11 9 12
REMARK H PARENT 3 5
REMARK Flexibility Score: inf
ROOT
ATOM      1  C   UNL     1       5.331   2.916   0.072  1.00  0.00     0.127 C 
ENDROOT
BRANCH   1   2
ATOM      2  C   UNL     1       6.212   3.855   0.815  1.00  0.00     0.303 C 
ATOM      3  O   UNL     1       6.873   4.775   0.270  1.00  0.00    -0.252 OA
BRANCH   2   4
ATOM      4  O   UNL     1       6.323   3.724   2.191  1.00  0.00    -0.481 OA
ATOM      5  H   UNL     1       6.289   2.769   2.555  1.00  0.00     0.296 HD
ENDBRANCH   2   4
ENDBRANCH   1   2
BRANCH   1   6
ATOM      6  C   UNL     1       5.253   1.613   0.813  1.00  0.00     0.047 C 
BRANCH   6   7
ATOM      7  C   UNL     1       6.030   0.531   0.213  1.00  0.00    -0.047 A 
ATOM      8  C   UNL     1       6.489  -0.559   0.912  1.00  0.00     0.004 A 
ATOM      9  C   UNL     1       6.328   0.592  -1.125  1.00  0.00     0.004 A 
ATOM     10  C   UNL     1       7.219  -1.569   0.332  1.00  0.00     0.000 A 
ATOM     11  C   UNL     1       7.058  -0.400  -1.738  1.00  0.00     0.000 A 
ATOM     12  C   UNL     1       7.514  -1.499  -1.012  1.00  0.00     0.000 A 
ENDBRANCH   6   7
ENDBRANCH   1   6
TORSDOF 4
ENDMDL
