@<TRIPOS>MOLECULE
/home/cewinharhar/GITHUB/reincatalyze/data/processed/docking_pred/2023-Apr-25-2140_maxeplen10_maxtrainstep200_exh16_gamma099_lrac3e-4_lrcr1e-3/5131ba4422f83928eab452067adeb3f7f7723c60_ligand_2.pdbqt
 12 12 0 0 0
SMALL
GASTEIGER

@<TRIPOS>ATOM
      1  C          8.2750    0.2110   -2.1930 C.3     1  UNL1        0.1270
      2  C          9.3860    0.3570   -1.2170 C.2     1  UNL1        0.3030
      3  O          9.5110   -0.3510   -0.1860 O.2     1  UNL1       -0.2520
      4  O         10.3530    1.3250   -1.4420 O.3     1  UNL1       -0.4810
      5  H         10.6940    1.8180   -0.6130 H       1  UNL1        0.2960
      6  C          7.1350   -0.5200   -1.5470 C.3     1  UNL1        0.0470
      7  C          6.3500    0.2870   -0.6160 C.2     1  UNL1       -0.0470
      8  C          5.7940    1.5010   -0.9380 C.2     1  UNL1        0.0040
      9  C          6.1470   -0.1810    0.6590 C.2     1  UNL1        0.0040
     10  C          5.0570    2.2470   -0.0500 C.2     1  UNL1        0.0000
     11  C          5.4160    0.5410    1.5740 C.2     1  UNL1        0.0000
     12  C          4.8590    1.7710    1.2280 C.2     1  UNL1        0.0000
@<TRIPOS>BOND
     1     1     6    1
     2     1     2    1
     3     6     7    1
     4     4     2    1
     5     4     5    1
     6     2     3    2
     7     8     7    2
     8     8    10    1
     9     7     9    1
    10    10    12    2
    11     9    11    2
    12    12    11    1
