@<TRIPOS>MOLECULE
/home/cewinharhar/GITHUB/reincatalyze/data/processed/docking_pred/2023-Apr-25-2140_maxeplen10_maxtrainstep200_exh16_gamma099_lrac3e-4_lrcr1e-3/5131ba4422f83928eab452067adeb3f7f7723c60_ligand_2.pdbqt
 12 12 0 0 0
SMALL
GASTEIGER

@<TRIPOS>ATOM
      1  C          8.4630   -0.5590   -2.2400 C.3     1  UNL1        0.1270
      2  C          8.5250   -1.8760   -2.9260 C.2     1  UNL1        0.3030
      3  O          9.5870   -2.5260   -3.1020 O.2     1  UNL1       -0.2520
      4  O          7.3520   -2.4380   -3.4070 O.3     1  UNL1       -0.4810
      5  H          6.8600   -3.0660   -2.7670 H       1  UNL1        0.2960
      6  C          7.0360   -0.1040   -2.1600 C.3     1  UNL1        0.0470
      7  C          6.5140    0.0110   -0.8000 C.2     1  UNL1       -0.0470
      8  C          6.6200   -0.9790    0.1450 C.2     1  UNL1        0.0040
      9  C          5.8770    1.1700   -0.4310 C.2     1  UNL1        0.0040
     10  C          6.1230   -0.8540    1.4210 C.2     1  UNL1        0.0000
     11  C          5.3670    1.3290    0.8370 C.2     1  UNL1        0.0000
     12  C          5.4850    0.3120    1.7840 C.2     1  UNL1        0.0000
@<TRIPOS>BOND
     1     4     2    1
     2     4     5    1
     3     3     2    2
     4     2     1    1
     5     1     6    1
     6     6     7    1
     7     7     9    2
     8     7     8    1
     9     9    11    1
    10     8    10    2
    11    11    12    2
    12    10    12    1
