@<TRIPOS>MOLECULE
/home/cewinharhar/GITHUB/reincatalyze/data/processed/docking_pred/2023-Apr-25-2140_maxeplen10_maxtrainstep200_exh16_gamma099_lrac3e-4_lrcr1e-3/51cadb519a72bd0ce332fe372f57097c9ba117cb_ligand_2.pdbqt
 12 12 0 0 0
SMALL
GASTEIGER

@<TRIPOS>ATOM
      1  C          8.2250    0.2420   -2.2460 C.3     1  UNL1        0.1270
      2  C          9.3320    0.3600   -1.2610 C.2     1  UNL1        0.3030
      3  O          9.4620   -0.3880   -0.2600 O.2     1  UNL1       -0.2520
      4  O         10.2870    1.3490   -1.4420 O.3     1  UNL1       -0.4810
      5  H         11.2380    1.0250   -1.6310 H       1  UNL1        0.2960
      6  C          7.0760   -0.4930   -1.6200 C.3     1  UNL1        0.0470
      7  C          6.3260    0.2850   -0.6370 C.2     1  UNL1       -0.0470
      8  C          6.1090   -0.1240    0.6560 C.2     1  UNL1        0.0040
      9  C          5.8010    1.4970   -1.0110 C.2     1  UNL1        0.0040
     10  C          5.4010    0.6210    1.5690 C.2     1  UNL1        0.0000
     11  C          5.0860    2.2680   -0.1240 C.2     1  UNL1        0.0000
     12  C          4.8770    1.8370    1.1850 C.2     1  UNL1        0.0000
@<TRIPOS>BOND
     1     1     6    1
     2     1     2    1
     3     5     4    1
     4     6     7    1
     5     4     2    1
     6     2     3    2
     7     9     7    2
     8     9    11    1
     9     7     8    1
    10    11    12    2
    11     8    10    2
    12    12    10    1
