@<TRIPOS>MOLECULE
/home/cewinharhar/GITHUB/reincatalyze/data/processed/docking_pred/2023-Apr-25-2140_maxeplen10_maxtrainstep200_exh16_gamma099_lrac3e-4_lrcr1e-3/51cadb519a72bd0ce332fe372f57097c9ba117cb_ligand_2.pdbqt
 12 12 0 0 0
SMALL
GASTEIGER

@<TRIPOS>ATOM
      1  C          8.4380   -0.5610   -2.2340 C.3     1  UNL1        0.1270
      2  C          8.5110   -1.8790   -2.9160 C.2     1  UNL1        0.3030
      3  O          9.5810   -2.5130   -3.1040 O.2     1  UNL1       -0.2520
      4  O          7.3410   -2.4610   -3.3800 O.3     1  UNL1       -0.4810
      5  H          7.1400   -2.3330   -4.3740 H       1  UNL1        0.2960
      6  C          7.0100   -0.1040   -2.1830 C.3     1  UNL1        0.0470
      7  C          6.4800    0.0720   -0.8330 C.2     1  UNL1       -0.0470
      8  C          5.8520    1.2140   -0.4010 C.2     1  UNL1        0.0040
      9  C          6.6100   -0.9550    0.0690 C.2     1  UNL1        0.0040
     10  C          5.3590    1.3630    0.8730 C.2     1  UNL1        0.0000
     11  C          6.1300   -0.8400    1.3530 C.2     1  UNL1        0.0000
     12  C          5.4940    0.3280    1.7730 C.2     1  UNL1        0.0000
@<TRIPOS>BOND
     1     5     4    1
     2     4     2    1
     3     3     2    2
     4     2     1    1
     5     1     6    1
     6     6     7    1
     7     7     8    2
     8     7     9    1
     9     8    10    1
    10     9    11    2
    11    10    12    2
    12    11    12    1
