MODEL 1
REMARK VINA RESULT:      -7.4      0.000      0.000
REMARK SMILES O=C(O)CCc1ccccc1
REMARK SMILES IDX 4 1 2 2 1 3 3 4 5 6 6 7 7 8 11 9 8 10 10 11 9 12
REMARK H PARENT 3 5
REMARK Flexibility Score: inf
ROOT
ATOM      1  C   UNL     1       8.452  -0.537  -2.229  1.00  0.00     0.127 C 
ENDROOT
BRANCH   1   2
ATOM      2  C   UNL     1       8.518  -1.855  -2.913  1.00  0.00     0.303 C 
ATOM      3  O   UNL     1       9.582  -2.502  -3.086  1.00  0.00    -0.252 OA
BRANCH   2   4
ATOM      4  O   UNL     1       7.347  -2.420  -3.394  1.00  0.00    -0.481 OA
ATOM      5  H   UNL     1       6.651  -2.678  -2.690  1.00  0.00     0.296 HD
ENDBRANCH   2   4
ENDBRANCH   1   2
BRANCH   1   6
ATOM      6  C   UNL     1       7.025  -0.077  -2.168  1.00  0.00     0.047 C 
BRANCH   6   7
ATOM      7  C   UNL     1       6.492   0.058  -0.814  1.00  0.00    -0.047 A 
ATOM      8  C   UNL     1       6.599  -0.914   0.150  1.00  0.00     0.004 A 
ATOM      9  C   UNL     1       5.843   1.218  -0.470  1.00  0.00     0.004 A 
ATOM     10  C   UNL     1       6.092  -0.770   1.419  1.00  0.00     0.000 A 
ATOM     11  C   UNL     1       5.322   1.395   0.791  1.00  0.00     0.000 A 
ATOM     12  C   UNL     1       5.441   0.397   1.757  1.00  0.00     0.000 A 
ENDBRANCH   6   7
ENDBRANCH   1   6
TORSDOF 4
ENDMDL
MODEL 2
REMARK VINA RESULT:      -7.4      0.065      1.426
REMARK SMILES O=C(O)CCc1ccccc1
REMARK SMILES IDX 4 1 2 2 1 3 3 4 5 6 6 7 7 8 11 9 8 10 10 11 9 12
REMARK H PARENT 3 5
REMARK Flexibility Score: inf
ROOT
ATOM      1  C   UNL     1       8.438  -0.561  -2.234  1.00  0.00     0.127 C 
ENDROOT
BRANCH   1   2
ATOM      2  C   UNL     1       8.511  -1.879  -2.916  1.00  0.00     0.303 C 
ATOM      3  O   UNL     1       9.581  -2.513  -3.104  1.00  0.00    -0.252 OA
BRANCH   2   4
ATOM      4  O   UNL     1       7.341  -2.461  -3.380  1.00  0.00    -0.481 OA
ATOM      5  H   UNL     1       7.140  -2.333  -4.374  1.00  0.00     0.296 HD
ENDBRANCH   2   4
ENDBRANCH   1   2
BRANCH   1   6
ATOM      6  C   UNL     1       7.010  -0.104  -2.183  1.00  0.00     0.047 C 
BRANCH   6   7
ATOM      7  C   UNL     1       6.480   0.072  -0.833  1.00  0.00    -0.047 A 
ATOM      8  C   UNL     1       5.852   1.214  -0.401  1.00  0.00     0.004 A 
ATOM      9  C   UNL     1       6.610  -0.955   0.069  1.00  0.00     0.004 A 
ATOM     10  C   UNL     1       5.359   1.363   0.873  1.00  0.00     0.000 A 
ATOM     11  C   UNL     1       6.130  -0.840   1.353  1.00  0.00     0.000 A 
ATOM     12  C   UNL     1       5.494   0.328   1.773  1.00  0.00     0.000 A 
ENDBRANCH   6   7
ENDBRANCH   1   6
TORSDOF 4
ENDMDL
MODEL 3
REMARK VINA RESULT:      -6.8      3.359      5.065
REMARK SMILES O=C(O)CCc1ccccc1
REMARK SMILES IDX 4 1 2 2 1 3 3 4 5 6 6 7 7 8 11 9 8 10 10 11 9 12
REMARK H PARENT 3 5
REMARK Flexibility Score: inf
ROOT
ATOM      1  C   UNL     1       4.982   1.791   0.675  1.00  0.00     0.127 C 
ENDROOT
BRANCH   1   2
ATOM      2  C   UNL     1       4.509   1.095   1.900  1.00  0.00     0.303 C 
ATOM      3  O   UNL     1       5.155   0.188   2.485  1.00  0.00    -0.252 OA
BRANCH   2   4
ATOM      4  O   UNL     1       3.285   1.453   2.445  1.00  0.00    -0.481 OA
ATOM      5  H   UNL     1       2.466   1.281   1.858  1.00  0.00     0.296 HD
ENDBRANCH   2   4
ENDBRANCH   1   2
BRANCH   1   6
ATOM      6  C   UNL     1       6.480   1.875   0.695  1.00  0.00     0.047 C 
BRANCH   6   7
ATOM      7  C   UNL     1       7.143   1.101  -0.352  1.00  0.00    -0.047 A 
ATOM      8  C   UNL     1       8.484   1.189  -0.635  1.00  0.00     0.004 A 
ATOM      9  C   UNL     1       6.394   0.232  -1.107  1.00  0.00     0.004 A 
ATOM     10  C   UNL     1       9.091   0.453  -1.625  1.00  0.00     0.000 A 
ATOM     11  C   UNL     1       6.969  -0.519  -2.107  1.00  0.00     0.000 A 
ATOM     12  C   UNL     1       8.333  -0.417  -2.379  1.00  0.00     0.000 A 
ENDBRANCH   6   7
ENDBRANCH   1   6
TORSDOF 4
ENDMDL
MODEL 4
REMARK VINA RESULT:      -6.7      3.836      4.957
REMARK SMILES O=C(O)CCc1ccccc1
REMARK SMILES IDX 4 1 2 2 1 3 3 4 5 6 6 7 7 8 11 9 8 10 10 11 9 12
REMARK H PARENT 3 5
REMARK Flexibility Score: inf
ROOT
ATOM      1  C   UNL     1       5.505   2.843  -0.032  1.00  0.00     0.127 C 
ENDROOT
BRANCH   1   2
ATOM      2  C   UNL     1       6.267   3.839   0.765  1.00  0.00     0.303 C 
ATOM      3  O   UNL     1       6.940   4.774   0.262  1.00  0.00    -0.252 OA
BRANCH   2   4
ATOM      4  O   UNL     1       6.247   3.747   2.149  1.00  0.00    -0.481 OA
ATOM      5  H   UNL     1       7.136   3.513   2.596  1.00  0.00     0.296 HD
ENDBRANCH   2   4
ENDBRANCH   1   2
BRANCH   1   6
ATOM      6  C   UNL     1       4.955   1.787   0.881  1.00  0.00     0.047 C 
BRANCH   6   7
ATOM      7  C   UNL     1       5.733   0.551   0.913  1.00  0.00    -0.047 A 
ATOM      8  C   UNL     1       6.423   0.055  -0.165  1.00  0.00     0.004 A 
ATOM      9  C   UNL     1       5.786  -0.168   2.082  1.00  0.00     0.004 A 
ATOM     10  C   UNL     1       7.150  -1.111  -0.117  1.00  0.00     0.000 A 
ATOM     11  C   UNL     1       6.504  -1.338   2.165  1.00  0.00     0.000 A 
ATOM     12  C   UNL     1       7.199  -1.827   1.059  1.00  0.00     0.000 A 
ENDBRANCH   6   7
ENDBRANCH   1   6
TORSDOF 4
ENDMDL
MODEL 5
REMARK VINA RESULT:      -6.7      1.912      2.276
REMARK SMILES O=C(O)CCc1ccccc1
REMARK SMILES IDX 4 1 2 2 1 3 3 4 5 6 6 7 7 8 11 9 8 10 10 11 9 12
REMARK H PARENT 3 5
REMARK Flexibility Score: inf
ROOT
ATOM      1  C   UNL     1       8.225   0.242  -2.246  1.00  0.00     0.127 C 
ENDROOT
BRANCH   1   2
ATOM      2  C   UNL     1       9.332   0.360  -1.261  1.00  0.00     0.303 C 
ATOM      3  O   UNL     1       9.462  -0.388  -0.260  1.00  0.00    -0.252 OA
BRANCH   2   4
ATOM      4  O   UNL     1      10.287   1.349  -1.442  1.00  0.00    -0.481 OA
ATOM      5  H   UNL     1      11.238   1.025  -1.631  1.00  0.00     0.296 HD
ENDBRANCH   2   4
ENDBRANCH   1   2
BRANCH   1   6
ATOM      6  C   UNL     1       7.076  -0.493  -1.620  1.00  0.00     0.047 C 
BRANCH   6   7
ATOM      7  C   UNL     1       6.326   0.285  -0.637  1.00  0.00    -0.047 A 
ATOM      8  C   UNL     1       6.109  -0.124   0.656  1.00  0.00     0.004 A 
ATOM      9  C   UNL     1       5.801   1.497  -1.011  1.00  0.00     0.004 A 
ATOM     10  C   UNL     1       5.401   0.621   1.569  1.00  0.00     0.000 A 
ATOM     11  C   UNL     1       5.086   2.268  -0.124  1.00  0.00     0.000 A 
ATOM     12  C   UNL     1       4.877   1.837   1.185  1.00  0.00     0.000 A 
ENDBRANCH   6   7
ENDBRANCH   1   6
TORSDOF 4
ENDMDL
