@<TRIPOS>MOLECULE
/home/cewinharhar/GITHUB/reincatalyze/data/processed/docking_pred/2023-Apr-25-2140_maxeplen10_maxtrainstep200_exh16_gamma099_lrac3e-4_lrcr1e-3/51cadb519a72bd0ce332fe372f57097c9ba117cb_ligand_2.pdbqt
 12 12 0 0 0
SMALL
GASTEIGER

@<TRIPOS>ATOM
      1  C          8.4520   -0.5370   -2.2290 C.3     1  UNL1        0.1270
      2  C          8.5180   -1.8550   -2.9130 C.2     1  UNL1        0.3030
      3  O          9.5820   -2.5020   -3.0860 O.2     1  UNL1       -0.2520
      4  O          7.3470   -2.4200   -3.3940 O.3     1  UNL1       -0.4810
      5  H          6.6510   -2.6780   -2.6900 H       1  UNL1        0.2960
      6  C          7.0250   -0.0770   -2.1680 C.3     1  UNL1        0.0470
      7  C          6.4920    0.0580   -0.8140 C.2     1  UNL1       -0.0470
      8  C          6.5990   -0.9140    0.1500 C.2     1  UNL1        0.0040
      9  C          5.8430    1.2180   -0.4700 C.2     1  UNL1        0.0040
     10  C          6.0920   -0.7700    1.4190 C.2     1  UNL1        0.0000
     11  C          5.3220    1.3950    0.7910 C.2     1  UNL1        0.0000
     12  C          5.4410    0.3970    1.7570 C.2     1  UNL1        0.0000
@<TRIPOS>BOND
     1     4     2    1
     2     4     5    1
     3     3     2    2
     4     2     1    1
     5     1     6    1
     6     6     7    1
     7     7     9    2
     8     7     8    1
     9     9    11    1
    10     8    10    2
    11    11    12    2
    12    10    12    1
