@<TRIPOS>MOLECULE
/home/cewinharhar/GITHUB/reincatalyze/data/processed/docking_pred/2023-Apr-25-2140_maxeplen10_maxtrainstep200_exh16_gamma099_lrac3e-4_lrcr1e-3/51cadb519a72bd0ce332fe372f57097c9ba117cb_ligand_2.pdbqt
 12 12 0 0 0
SMALL
GASTEIGER

@<TRIPOS>ATOM
      1  C          4.9820    1.7910    0.6750 C.3     1  UNL1        0.1270
      2  C          4.5090    1.0950    1.9000 C.2     1  UNL1        0.3030
      3  O          5.1550    0.1880    2.4850 O.2     1  UNL1       -0.2520
      4  O          3.2850    1.4530    2.4450 O.3     1  UNL1       -0.4810
      5  H          2.4660    1.2810    1.8580 H       1  UNL1        0.2960
      6  C          6.4800    1.8750    0.6950 C.3     1  UNL1        0.0470
      7  C          7.1430    1.1010   -0.3520 C.2     1  UNL1       -0.0470
      8  C          8.4840    1.1890   -0.6350 C.2     1  UNL1        0.0040
      9  C          6.3940    0.2320   -1.1070 C.2     1  UNL1        0.0040
     10  C          9.0910    0.4530   -1.6250 C.2     1  UNL1        0.0000
     11  C          6.9690   -0.5190   -2.1070 C.2     1  UNL1        0.0000
     12  C          8.3330   -0.4170   -2.3790 C.2     1  UNL1        0.0000
@<TRIPOS>BOND
     1    12    11    2
     2    12    10    1
     3    11     9    1
     4    10     8    2
     5     9     7    2
     6     8     7    1
     7     7     6    1
     8     1     6    1
     9     1     2    1
    10     5     4    1
    11     2     4    1
    12     2     3    2
