@<TRIPOS>MOLECULE
/home/cewinharhar/GITHUB/reincatalyze/data/processed/docking_pred/2023-Apr-25-2140_maxeplen10_maxtrainstep200_exh16_gamma099_lrac3e-4_lrcr1e-3/51cadb519a72bd0ce332fe372f57097c9ba117cb_ligand_2.pdbqt
 12 12 0 0 0
SMALL
GASTEIGER

@<TRIPOS>ATOM
      1  C          5.5050    2.8430   -0.0320 C.3     1  UNL1        0.1270
      2  C          6.2670    3.8390    0.7650 C.2     1  UNL1        0.3030
      3  O          6.9400    4.7740    0.2620 O.2     1  UNL1       -0.2520
      4  O          6.2470    3.7470    2.1490 O.3     1  UNL1       -0.4810
      5  H          7.1360    3.5130    2.5960 H       1  UNL1        0.2960
      6  C          4.9550    1.7870    0.8810 C.3     1  UNL1        0.0470
      7  C          5.7330    0.5510    0.9130 C.2     1  UNL1       -0.0470
      8  C          6.4230    0.0550   -0.1650 C.2     1  UNL1        0.0040
      9  C          5.7860   -0.1680    2.0820 C.2     1  UNL1        0.0040
     10  C          7.1500   -1.1110   -0.1170 C.2     1  UNL1        0.0000
     11  C          6.5040   -1.3380    2.1650 C.2     1  UNL1        0.0000
     12  C          7.1990   -1.8270    1.0590 C.2     1  UNL1        0.0000
@<TRIPOS>BOND
     1     8    10    1
     2     8     7    2
     3    10    12    2
     4     1     2    1
     5     1     6    1
     6     3     2    2
     7     2     4    1
     8     6     7    1
     9     7     9    1
    10    12    11    1
    11     9    11    2
    12     4     5    1
