@<TRIPOS>MOLECULE
/home/cewinharhar/GITHUB/reincatalyze/data/processed/docking_pred/2023-Apr-25-2140_maxeplen10_maxtrainstep200_exh16_gamma099_lrac3e-4_lrcr1e-3/544f4ddee7da09465e084ab518e20d4fbc72de61_ligand_2.pdbqt
 12 12 0 0 0
SMALL
GASTEIGER

@<TRIPOS>ATOM
      1  C          4.9890    1.8210    0.6970 C.3     1  UNL1        0.1270
      2  C          4.5040    1.1090    1.9080 C.2     1  UNL1        0.3030
      3  O          5.1440    0.1970    2.4900 O.2     1  UNL1       -0.2520
      4  O          3.2740    1.4600    2.4440 O.3     1  UNL1       -0.4810
      5  H          2.5680    0.7200    2.4690 H       1  UNL1        0.2960
      6  C          6.4900    1.8420    0.6980 C.3     1  UNL1        0.0470
      7  C          7.1060    1.0440   -0.3590 C.2     1  UNL1       -0.0470
      8  C          6.4310    0.1060   -1.1010 C.2     1  UNL1        0.0040
      9  C          8.4370    1.2310   -0.6390 C.2     1  UNL1        0.0040
     10  C          7.0260   -0.6360   -2.0920 C.2     1  UNL1        0.0000
     11  C          9.0650    0.5050   -1.6240 C.2     1  UNL1        0.0000
     12  C          8.3630   -0.4430   -2.3670 C.2     1  UNL1        0.0000
@<TRIPOS>BOND
     1    12    10    2
     2    12    11    1
     3    10     8    1
     4    11     9    2
     5     8     7    2
     6     9     7    1
     7     7     6    1
     8     1     6    1
     9     1     2    1
    10     2     4    1
    11     2     3    2
    12     4     5    1
