@<TRIPOS>MOLECULE
/home/cewinharhar/GITHUB/reincatalyze/data/processed/docking_pred/2023-Apr-25-2140_maxeplen10_maxtrainstep200_exh16_gamma099_lrac3e-4_lrcr1e-3/544f4ddee7da09465e084ab518e20d4fbc72de61_ligand_2.pdbqt
 12 12 0 0 0
SMALL
GASTEIGER

@<TRIPOS>ATOM
      1  C          8.4390   -0.6220   -2.1020 C.3     1  UNL1        0.1270
      2  C          8.3690   -1.8810   -2.8890 C.2     1  UNL1        0.3030
      3  O          7.2940   -2.4230   -3.2510 O.2     1  UNL1       -0.2520
      4  O          9.5500   -2.5100   -3.2550 O.3     1  UNL1       -0.4810
      5  H         10.3170   -1.8940   -3.5330 H       1  UNL1        0.2960
      6  C          7.0980    0.0510   -2.1170 C.3     1  UNL1        0.0470
      7  C          6.4880    0.2110   -0.7990 C.2     1  UNL1       -0.0470
      8  C          5.7550    1.3100   -0.4240 C.2     1  UNL1        0.0040
      9  C          6.6490   -0.7860    0.1310 C.2     1  UNL1        0.0040
     10  C          5.1880    1.4450    0.8210 C.2     1  UNL1        0.0000
     11  C          6.0960   -0.6840    1.3870 C.2     1  UNL1        0.0000
     12  C          5.3540    0.4400    1.7490 C.2     1  UNL1        0.0000
@<TRIPOS>BOND
     1     5     4    1
     2     4     2    1
     3     3     2    2
     4     2     1    1
     5     6     1    1
     6     6     7    1
     7     7     8    2
     8     7     9    1
     9     8    10    1
    10     9    11    2
    11    10    12    2
    12    11    12    1
