@<TRIPOS>MOLECULE
/home/cewinharhar/GITHUB/reincatalyze/data/processed/docking_pred/2023-Apr-25-2140_maxeplen10_maxtrainstep200_exh16_gamma099_lrac3e-4_lrcr1e-3/544f4ddee7da09465e084ab518e20d4fbc72de61_ligand_2.pdbqt
 12 12 0 0 0
SMALL
GASTEIGER

@<TRIPOS>ATOM
      1  C          8.5000    0.6460   -1.7180 C.3     1  UNL1        0.1270
      2  C          9.6260    0.2680   -0.8250 C.2     1  UNL1        0.3030
      3  O          9.5120   -0.5090    0.1570 O.2     1  UNL1       -0.2520
      4  O         10.8850    0.7950   -1.0730 O.3     1  UNL1       -0.4810
      5  H         11.0310    1.1880   -2.0060 H       1  UNL1        0.2960
      6  C          7.3120   -0.2190   -1.4170 C.3     1  UNL1        0.0470
      7  C          6.4340    0.3040   -0.3720 C.2     1  UNL1       -0.0470
      8  C          6.1800   -0.3480    0.8100 C.2     1  UNL1        0.0040
      9  C          5.8200    1.5160   -0.5680 C.2     1  UNL1        0.0040
     10  C          5.3520    0.1590    1.7820 C.2     1  UNL1        0.0000
     11  C          4.9840    2.0530    0.3840 C.2     1  UNL1        0.0000
     12  C          4.7390    1.3760    1.5780 C.2     1  UNL1        0.0000
@<TRIPOS>BOND
     1     5     4    1
     2     1     6    1
     3     1     2    1
     4     6     7    1
     5     4     2    1
     6     2     3    2
     7     9     7    2
     8     9    11    1
     9     7     8    1
    10    11    12    2
    11     8    10    2
    12    12    10    1
