@<TRIPOS>MOLECULE
/home/cewinharhar/GITHUB/reincatalyze/data/processed/docking_pred/2023-Apr-25-2140_maxeplen10_maxtrainstep200_exh16_gamma099_lrac3e-4_lrcr1e-3/544f4ddee7da09465e084ab518e20d4fbc72de61_ligand_2.pdbqt
 12 12 0 0 0
SMALL
GASTEIGER

@<TRIPOS>ATOM
      1  C          8.4420   -0.5920   -2.1790 C.3     1  UNL1        0.1270
      2  C          8.4940   -1.8860   -2.9080 C.2     1  UNL1        0.3030
      3  O          9.5460   -2.5500   -3.0860 O.2     1  UNL1       -0.2520
      4  O          7.3200   -2.4080   -3.4310 O.3     1  UNL1       -0.4810
      5  H          6.5320   -1.7590   -3.5000 H       1  UNL1        0.2960
      6  C          7.0260   -0.1000   -2.1330 C.3     1  UNL1        0.0470
      7  C          6.4810    0.0500   -0.7860 C.2     1  UNL1       -0.0470
      8  C          6.5490   -0.9250    0.1780 C.2     1  UNL1        0.0040
      9  C          5.8630    1.2280   -0.4490 C.2     1  UNL1        0.0040
     10  C          6.0310   -0.7680    1.4420 C.2     1  UNL1        0.0000
     11  C          5.3330    1.4200    0.8060 C.2     1  UNL1        0.0000
     12  C          5.4110    0.4180    1.7730 C.2     1  UNL1        0.0000
@<TRIPOS>BOND
     1     5     4    1
     2     4     2    1
     3     3     2    2
     4     2     1    1
     5     1     6    1
     6     6     7    1
     7     7     9    2
     8     7     8    1
     9     9    11    1
    10     8    10    2
    11    11    12    2
    12    10    12    1
