MODEL 1
REMARK VINA RESULT:      -7.4      0.000      0.000
REMARK SMILES O=C(O)CCc1ccccc1
REMARK SMILES IDX 4 1 2 2 1 3 3 4 5 6 6 7 7 8 11 9 8 10 10 11 9 12
REMARK H PARENT 3 5
REMARK Flexibility Score: inf
ROOT
ATOM      1  C   UNL     1       8.442  -0.592  -2.179  1.00  0.00     0.127 C 
ENDROOT
BRANCH   1   2
ATOM      2  C   UNL     1       8.494  -1.886  -2.908  1.00  0.00     0.303 C 
ATOM      3  O   UNL     1       9.546  -2.550  -3.086  1.00  0.00    -0.252 OA
BRANCH   2   4
ATOM      4  O   UNL     1       7.320  -2.408  -3.431  1.00  0.00    -0.481 OA
ATOM      5  H   UNL     1       6.532  -1.759  -3.500  1.00  0.00     0.296 HD
ENDBRANCH   2   4
ENDBRANCH   1   2
BRANCH   1   6
ATOM      6  C   UNL     1       7.026  -0.100  -2.133  1.00  0.00     0.047 C 
BRANCH   6   7
ATOM      7  C   UNL     1       6.481   0.050  -0.786  1.00  0.00    -0.047 A 
ATOM      8  C   UNL     1       6.549  -0.925   0.178  1.00  0.00     0.004 A 
ATOM      9  C   UNL     1       5.863   1.228  -0.449  1.00  0.00     0.004 A 
ATOM     10  C   UNL     1       6.031  -0.768   1.442  1.00  0.00     0.000 A 
ATOM     11  C   UNL     1       5.333   1.420   0.806  1.00  0.00     0.000 A 
ATOM     12  C   UNL     1       5.411   0.418   1.773  1.00  0.00     0.000 A 
ENDBRANCH   6   7
ENDBRANCH   1   6
TORSDOF 4
ENDMDL
MODEL 2
REMARK VINA RESULT:      -7.3      0.145      1.720
REMARK SMILES O=C(O)CCc1ccccc1
REMARK SMILES IDX 4 1 2 2 1 3 3 4 5 6 6 7 7 8 11 9 8 10 10 11 9 12
REMARK H PARENT 3 5
REMARK Flexibility Score: inf
ROOT
ATOM      1  C   UNL     1       8.439  -0.622  -2.102  1.00  0.00     0.127 C 
ENDROOT
BRANCH   1   2
ATOM      2  C   UNL     1       8.369  -1.881  -2.889  1.00  0.00     0.303 C 
ATOM      3  O   UNL     1       7.294  -2.423  -3.251  1.00  0.00    -0.252 OA
BRANCH   2   4
ATOM      4  O   UNL     1       9.550  -2.510  -3.255  1.00  0.00    -0.481 OA
ATOM      5  H   UNL     1      10.317  -1.894  -3.533  1.00  0.00     0.296 HD
ENDBRANCH   2   4
ENDBRANCH   1   2
BRANCH   1   6
ATOM      6  C   UNL     1       7.098   0.051  -2.117  1.00  0.00     0.047 C 
BRANCH   6   7
ATOM      7  C   UNL     1       6.488   0.211  -0.799  1.00  0.00    -0.047 A 
ATOM      8  C   UNL     1       5.755   1.310  -0.424  1.00  0.00     0.004 A 
ATOM      9  C   UNL     1       6.649  -0.786   0.131  1.00  0.00     0.004 A 
ATOM     10  C   UNL     1       5.188   1.445   0.821  1.00  0.00     0.000 A 
ATOM     11  C   UNL     1       6.096  -0.684   1.387  1.00  0.00     0.000 A 
ATOM     12  C   UNL     1       5.354   0.440   1.749  1.00  0.00     0.000 A 
ENDBRANCH   6   7
ENDBRANCH   1   6
TORSDOF 4
ENDMDL
MODEL 3
REMARK VINA RESULT:      -7.3      0.637      1.601
REMARK SMILES O=C(O)CCc1ccccc1
REMARK SMILES IDX 4 1 2 2 1 3 3 4 5 6 6 7 7 8 11 9 8 10 10 11 9 12
REMARK H PARENT 3 5
REMARK Flexibility Score: inf
ROOT
ATOM      1  C   UNL     1       8.278  -0.837  -1.924  1.00  0.00     0.127 C 
ENDROOT
BRANCH   1   2
ATOM      2  C   UNL     1       8.455  -1.975  -2.862  1.00  0.00     0.303 C 
ATOM      3  O   UNL     1       9.569  -2.488  -3.140  1.00  0.00    -0.252 OA
BRANCH   2   4
ATOM      4  O   UNL     1       7.337  -2.518  -3.477  1.00  0.00    -0.481 OA
ATOM      5  H   UNL     1       6.498  -1.934  -3.478  1.00  0.00     0.296 HD
ENDBRANCH   2   4
ENDBRANCH   1   2
BRANCH   1   6
ATOM      6  C   UNL     1       7.434  -1.274  -0.762  1.00  0.00     0.047 C 
BRANCH   6   7
ATOM      7  C   UNL     1       6.587  -0.223  -0.202  1.00  0.00    -0.047 A 
ATOM      8  C   UNL     1       6.192   0.892  -0.899  1.00  0.00     0.004 A 
ATOM      9  C   UNL     1       6.154  -0.343   1.095  1.00  0.00     0.004 A 
ATOM     10  C   UNL     1       5.394   1.871  -0.356  1.00  0.00     0.000 A 
ATOM     11  C   UNL     1       5.355   0.619   1.670  1.00  0.00     0.000 A 
ATOM     12  C   UNL     1       4.963   1.744   0.947  1.00  0.00     0.000 A 
ENDBRANCH   6   7
ENDBRANCH   1   6
TORSDOF 4
ENDMDL
MODEL 4
REMARK VINA RESULT:      -6.8      3.367      5.061
REMARK SMILES O=C(O)CCc1ccccc1
REMARK SMILES IDX 4 1 2 2 1 3 3 4 5 6 6 7 7 8 11 9 8 10 10 11 9 12
REMARK H PARENT 3 5
REMARK Flexibility Score: inf
ROOT
ATOM      1  C   UNL     1       4.989   1.821   0.697  1.00  0.00     0.127 C 
ENDROOT
BRANCH   1   2
ATOM      2  C   UNL     1       4.504   1.109   1.908  1.00  0.00     0.303 C 
ATOM      3  O   UNL     1       5.144   0.197   2.490  1.00  0.00    -0.252 OA
BRANCH   2   4
ATOM      4  O   UNL     1       3.274   1.460   2.444  1.00  0.00    -0.481 OA
ATOM      5  H   UNL     1       2.568   0.720   2.469  1.00  0.00     0.296 HD
ENDBRANCH   2   4
ENDBRANCH   1   2
BRANCH   1   6
ATOM      6  C   UNL     1       6.490   1.842   0.698  1.00  0.00     0.047 C 
BRANCH   6   7
ATOM      7  C   UNL     1       7.106   1.044  -0.359  1.00  0.00    -0.047 A 
ATOM      8  C   UNL     1       6.431   0.106  -1.101  1.00  0.00     0.004 A 
ATOM      9  C   UNL     1       8.437   1.231  -0.639  1.00  0.00     0.004 A 
ATOM     10  C   UNL     1       7.026  -0.636  -2.092  1.00  0.00     0.000 A 
ATOM     11  C   UNL     1       9.065   0.505  -1.624  1.00  0.00     0.000 A 
ATOM     12  C   UNL     1       8.363  -0.443  -2.367  1.00  0.00     0.000 A 
ENDBRANCH   6   7
ENDBRANCH   1   6
TORSDOF 4
ENDMDL
MODEL 5
REMARK VINA RESULT:      -6.6      2.074      2.347
REMARK SMILES O=C(O)CCc1ccccc1
REMARK SMILES IDX 4 1 2 2 1 3 3 4 5 6 6 7 7 8 11 9 8 10 10 11 9 12
REMARK H PARENT 3 5
REMARK Flexibility Score: inf
ROOT
ATOM      1  C   UNL     1       8.500   0.646  -1.718  1.00  0.00     0.127 C 
ENDROOT
BRANCH   1   2
ATOM      2  C   UNL     1       9.626   0.268  -0.825  1.00  0.00     0.303 C 
ATOM      3  O   UNL     1       9.512  -0.509   0.157  1.00  0.00    -0.252 OA
BRANCH   2   4
ATOM      4  O   UNL     1      10.885   0.795  -1.073  1.00  0.00    -0.481 OA
ATOM      5  H   UNL     1      11.031   1.188  -2.006  1.00  0.00     0.296 HD
ENDBRANCH   2   4
ENDBRANCH   1   2
BRANCH   1   6
ATOM      6  C   UNL     1       7.312  -0.219  -1.417  1.00  0.00     0.047 C 
BRANCH   6   7
ATOM      7  C   UNL     1       6.434   0.304  -0.372  1.00  0.00    -0.047 A 
ATOM      8  C   UNL     1       6.180  -0.348   0.810  1.00  0.00     0.004 A 
ATOM      9  C   UNL     1       5.820   1.516  -0.568  1.00  0.00     0.004 A 
ATOM     10  C   UNL     1       5.352   0.159   1.782  1.00  0.00     0.000 A 
ATOM     11  C   UNL     1       4.984   2.053   0.384  1.00  0.00     0.000 A 
ATOM     12  C   UNL     1       4.739   1.376   1.578  1.00  0.00     0.000 A 
ENDBRANCH   6   7
ENDBRANCH   1   6
TORSDOF 4
ENDMDL
