@<TRIPOS>MOLECULE
/home/cewinharhar/GITHUB/reincatalyze/data/processed/docking_pred/2023-Apr-25-2140_maxeplen10_maxtrainstep200_exh16_gamma099_lrac3e-4_lrcr1e-3/544f4ddee7da09465e084ab518e20d4fbc72de61_ligand_2.pdbqt
 12 12 0 0 0
SMALL
GASTEIGER

@<TRIPOS>ATOM
      1  C          8.2780   -0.8370   -1.9240 C.3     1  UNL1        0.1270
      2  C          8.4550   -1.9750   -2.8620 C.2     1  UNL1        0.3030
      3  O          9.5690   -2.4880   -3.1400 O.2     1  UNL1       -0.2520
      4  O          7.3370   -2.5180   -3.4770 O.3     1  UNL1       -0.4810
      5  H          6.4980   -1.9340   -3.4780 H       1  UNL1        0.2960
      6  C          7.4340   -1.2740   -0.7620 C.3     1  UNL1        0.0470
      7  C          6.5870   -0.2230   -0.2020 C.2     1  UNL1       -0.0470
      8  C          6.1920    0.8920   -0.8990 C.2     1  UNL1        0.0040
      9  C          6.1540   -0.3430    1.0950 C.2     1  UNL1        0.0040
     10  C          5.3940    1.8710   -0.3560 C.2     1  UNL1        0.0000
     11  C          5.3550    0.6190    1.6700 C.2     1  UNL1        0.0000
     12  C          4.9630    1.7440    0.9470 C.2     1  UNL1        0.0000
@<TRIPOS>BOND
     1     5     4    1
     2     4     2    1
     3     3     2    2
     4     2     1    1
     5     1     6    1
     6     8    10    1
     7     8     7    2
     8     6     7    1
     9    10    12    2
    10     7     9    1
    11    12    11    1
    12     9    11    2
