MODEL 1
REMARK VINA RESULT:      -7.4      0.000      0.000
REMARK SMILES O=C(O)CCc1ccccc1
REMARK SMILES IDX 4 1 2 2 1 3 3 4 5 6 6 7 7 8 11 9 8 10 10 11 9 12
REMARK H PARENT 3 5
REMARK Flexibility Score: inf
ROOT
ATOM      1  C   UNL     1       8.449  -0.585  -2.190  1.00  0.00     0.127 C 
ENDROOT
BRANCH   1   2
ATOM      2  C   UNL     1       8.500  -1.890  -2.899  1.00  0.00     0.303 C 
ATOM      3  O   UNL     1       9.557  -2.543  -3.090  1.00  0.00    -0.252 OA
BRANCH   2   4
ATOM      4  O   UNL     1       7.321  -2.436  -3.384  1.00  0.00    -0.481 OA
ATOM      5  H   UNL     1       7.273  -2.572  -4.396  1.00  0.00     0.296 HD
ENDBRANCH   2   4
ENDBRANCH   1   2
BRANCH   1   6
ATOM      6  C   UNL     1       7.027  -0.110  -2.120  1.00  0.00     0.047 C 
BRANCH   6   7
ATOM      7  C   UNL     1       6.492  -0.002  -0.765  1.00  0.00    -0.047 A 
ATOM      8  C   UNL     1       6.583  -1.000   0.174  1.00  0.00     0.004 A 
ATOM      9  C   UNL     1       5.859   1.158  -0.393  1.00  0.00     0.004 A 
ATOM     10  C   UNL     1       6.074  -0.881   1.446  1.00  0.00     0.000 A 
ATOM     11  C   UNL     1       5.337   1.310   0.871  1.00  0.00     0.000 A 
ATOM     12  C   UNL     1       5.439   0.286   1.811  1.00  0.00     0.000 A 
ENDBRANCH   6   7
ENDBRANCH   1   6
TORSDOF 4
ENDMDL
MODEL 2
REMARK VINA RESULT:      -7.4      0.111      1.430
REMARK SMILES O=C(O)CCc1ccccc1
REMARK SMILES IDX 4 1 2 2 1 3 3 4 5 6 6 7 7 8 11 9 8 10 10 11 9 12
REMARK H PARENT 3 5
REMARK Flexibility Score: inf
ROOT
ATOM      1  C   UNL     1       8.434  -0.693  -2.050  1.00  0.00     0.127 C 
ENDROOT
BRANCH   1   2
ATOM      2  C   UNL     1       8.505  -1.928  -2.874  1.00  0.00     0.303 C 
ATOM      3  O   UNL     1       9.573  -2.540  -3.129  1.00  0.00    -0.252 OA
BRANCH   2   4
ATOM      4  O   UNL     1       7.333  -2.451  -3.400  1.00  0.00    -0.481 OA
ATOM      5  H   UNL     1       7.351  -3.448  -3.630  1.00  0.00     0.296 HD
ENDBRANCH   2   4
ENDBRANCH   1   2
BRANCH   1   6
ATOM      6  C   UNL     1       7.033  -0.156  -2.074  1.00  0.00     0.047 C 
BRANCH   6   7
ATOM      7  C   UNL     1       6.452   0.075  -0.754  1.00  0.00    -0.047 A 
ATOM      8  C   UNL     1       5.806   1.232  -0.395  1.00  0.00     0.004 A 
ATOM      9  C   UNL     1       6.549  -0.913   0.195  1.00  0.00     0.004 A 
ATOM     10  C   UNL     1       5.265   1.433   0.853  1.00  0.00     0.000 A 
ATOM     11  C   UNL     1       6.020  -0.745   1.454  1.00  0.00     0.000 A 
ATOM     12  C   UNL     1       5.368   0.437   1.800  1.00  0.00     0.000 A 
ENDBRANCH   6   7
ENDBRANCH   1   6
TORSDOF 4
ENDMDL
MODEL 3
REMARK VINA RESULT:      -7.2      0.645      1.623
REMARK SMILES O=C(O)CCc1ccccc1
REMARK SMILES IDX 4 1 2 2 1 3 3 4 5 6 6 7 7 8 11 9 8 10 10 11 9 12
REMARK H PARENT 3 5
REMARK Flexibility Score: inf
ROOT
ATOM      1  C   UNL     1       8.148  -0.838  -1.987  1.00  0.00     0.127 C 
ENDROOT
BRANCH   1   2
ATOM      2  C   UNL     1       8.409  -1.987  -2.891  1.00  0.00     0.303 C 
ATOM      3  O   UNL     1       9.555  -2.448  -3.127  1.00  0.00    -0.252 OA
BRANCH   2   4
ATOM      4  O   UNL     1       7.338  -2.602  -3.522  1.00  0.00    -0.481 OA
ATOM      5  H   UNL     1       7.570  -3.374  -4.150  1.00  0.00     0.296 HD
ENDBRANCH   2   4
ENDBRANCH   1   2
BRANCH   1   6
ATOM      6  C   UNL     1       7.256  -1.279  -0.864  1.00  0.00     0.047 C 
BRANCH   6   7
ATOM      7  C   UNL     1       6.478  -0.204  -0.252  1.00  0.00    -0.047 A 
ATOM      8  C   UNL     1       6.103   0.940  -0.913  1.00  0.00     0.004 A 
ATOM      9  C   UNL     1       6.094  -0.328   1.060  1.00  0.00     0.004 A 
ATOM     10  C   UNL     1       5.372   1.942  -0.322  1.00  0.00     0.000 A 
ATOM     11  C   UNL     1       5.362   0.656   1.684  1.00  0.00     0.000 A 
ATOM     12  C   UNL     1       4.990   1.810   0.996  1.00  0.00     0.000 A 
ENDBRANCH   6   7
ENDBRANCH   1   6
TORSDOF 4
ENDMDL
MODEL 4
REMARK VINA RESULT:      -6.8      3.363      5.074
REMARK SMILES O=C(O)CCc1ccccc1
REMARK SMILES IDX 4 1 2 2 1 3 3 4 5 6 6 7 7 8 11 9 8 10 10 11 9 12
REMARK H PARENT 3 5
REMARK Flexibility Score: inf
ROOT
ATOM      1  C   UNL     1       4.992   1.841   0.665  1.00  0.00     0.127 C 
ENDROOT
BRANCH   1   2
ATOM      2  C   UNL     1       4.519   1.138   1.886  1.00  0.00     0.303 C 
ATOM      3  O   UNL     1       5.172   0.240   2.476  1.00  0.00    -0.252 OA
BRANCH   2   4
ATOM      4  O   UNL     1       3.286   1.479   2.421  1.00  0.00    -0.481 OA
ATOM      5  H   UNL     1       3.274   1.687   3.422  1.00  0.00     0.296 HD
ENDBRANCH   2   4
ENDBRANCH   1   2
BRANCH   1   6
ATOM      6  C   UNL     1       6.491   1.912   0.679  1.00  0.00     0.047 C 
BRANCH   6   7
ATOM      7  C   UNL     1       7.143   1.123  -0.363  1.00  0.00    -0.047 A 
ATOM      8  C   UNL     1       8.485   1.188  -0.644  1.00  0.00     0.004 A 
ATOM      9  C   UNL     1       6.382   0.262  -1.115  1.00  0.00     0.004 A 
ATOM     10  C   UNL     1       9.082   0.438  -1.629  1.00  0.00     0.000 A 
ATOM     11  C   UNL     1       6.947  -0.503  -2.109  1.00  0.00     0.000 A 
ATOM     12  C   UNL     1       8.312  -0.424  -2.379  1.00  0.00     0.000 A 
ENDBRANCH   6   7
ENDBRANCH   1   6
TORSDOF 4
ENDMDL
MODEL 5
REMARK VINA RESULT:      -6.7      1.953      2.319
REMARK SMILES O=C(O)CCc1ccccc1
REMARK SMILES IDX 4 1 2 2 1 3 3 4 5 6 6 7 7 8 11 9 8 10 10 11 9 12
REMARK H PARENT 3 5
REMARK Flexibility Score: inf
ROOT
ATOM      1  C   UNL     1       8.297   0.151  -2.205  1.00  0.00     0.127 C 
ENDROOT
BRANCH   1   2
ATOM      2  C   UNL     1       9.397   0.322  -1.221  1.00  0.00     0.303 C 
ATOM      3  O   UNL     1       9.514  -0.363  -0.174  1.00  0.00    -0.252 OA
BRANCH   2   4
ATOM      4  O   UNL     1      10.362   1.291  -1.455  1.00  0.00    -0.481 OA
ATOM      5  H   UNL     1      11.325   0.956  -1.530  1.00  0.00     0.296 HD
ENDBRANCH   2   4
ENDBRANCH   1   2
BRANCH   1   6
ATOM      6  C   UNL     1       7.160  -0.586  -1.561  1.00  0.00     0.047 C 
BRANCH   6   7
ATOM      7  C   UNL     1       6.381   0.211  -0.617  1.00  0.00    -0.047 A 
ATOM      8  C   UNL     1       6.133  -0.166   0.680  1.00  0.00     0.004 A 
ATOM      9  C   UNL     1       5.860   1.410  -1.035  1.00  0.00     0.004 A 
ATOM     10  C   UNL     1       5.398   0.597   1.556  1.00  0.00     0.000 A 
ATOM     11  C   UNL     1       5.118   2.199  -0.186  1.00  0.00     0.000 A 
ATOM     12  C   UNL     1       4.877   1.800   1.127  1.00  0.00     0.000 A 
ENDBRANCH   6   7
ENDBRANCH   1   6
TORSDOF 4
ENDMDL
