@<TRIPOS>MOLECULE
/home/cewinharhar/GITHUB/reincatalyze/data/processed/docking_pred/2023-Apr-25-2140_maxeplen10_maxtrainstep200_exh16_gamma099_lrac3e-4_lrcr1e-3/55f9a48c22e019202c812c896c561d7470c53219_ligand_2.pdbqt
 12 12 0 0 0
SMALL
GASTEIGER

@<TRIPOS>ATOM
      1  C          8.2970    0.1510   -2.2050 C.3     1  UNL1        0.1270
      2  C          9.3970    0.3220   -1.2210 C.2     1  UNL1        0.3030
      3  O          9.5140   -0.3630   -0.1740 O.2     1  UNL1       -0.2520
      4  O         10.3620    1.2910   -1.4550 O.3     1  UNL1       -0.4810
      5  H         11.3250    0.9560   -1.5300 H       1  UNL1        0.2960
      6  C          7.1600   -0.5860   -1.5610 C.3     1  UNL1        0.0470
      7  C          6.3810    0.2110   -0.6170 C.2     1  UNL1       -0.0470
      8  C          6.1330   -0.1660    0.6800 C.2     1  UNL1        0.0040
      9  C          5.8600    1.4100   -1.0350 C.2     1  UNL1        0.0040
     10  C          5.3980    0.5970    1.5560 C.2     1  UNL1        0.0000
     11  C          5.1180    2.1990   -0.1860 C.2     1  UNL1        0.0000
     12  C          4.8770    1.8000    1.1270 C.2     1  UNL1        0.0000
@<TRIPOS>BOND
     1     1     6    1
     2     1     2    1
     3     6     7    1
     4     5     4    1
     5     4     2    1
     6     2     3    2
     7     9     7    2
     8     9    11    1
     9     7     8    1
    10    11    12    2
    11     8    10    2
    12    12    10    1
