@<TRIPOS>MOLECULE
/home/cewinharhar/GITHUB/reincatalyze/data/processed/docking_pred/2023-Apr-25-2140_maxeplen10_maxtrainstep200_exh16_gamma099_lrac3e-4_lrcr1e-3/55f9a48c22e019202c812c896c561d7470c53219_ligand_2.pdbqt
 12 12 0 0 0
SMALL
GASTEIGER

@<TRIPOS>ATOM
      1  C          8.4340   -0.6930   -2.0500 C.3     1  UNL1        0.1270
      2  C          8.5050   -1.9280   -2.8740 C.2     1  UNL1        0.3030
      3  O          9.5730   -2.5400   -3.1290 O.2     1  UNL1       -0.2520
      4  O          7.3330   -2.4510   -3.4000 O.3     1  UNL1       -0.4810
      5  H          7.3510   -3.4480   -3.6300 H       1  UNL1        0.2960
      6  C          7.0330   -0.1560   -2.0740 C.3     1  UNL1        0.0470
      7  C          6.4520    0.0750   -0.7540 C.2     1  UNL1       -0.0470
      8  C          5.8060    1.2320   -0.3950 C.2     1  UNL1        0.0040
      9  C          6.5490   -0.9130    0.1950 C.2     1  UNL1        0.0040
     10  C          5.2650    1.4330    0.8530 C.2     1  UNL1        0.0000
     11  C          6.0200   -0.7450    1.4540 C.2     1  UNL1        0.0000
     12  C          5.3680    0.4370    1.8000 C.2     1  UNL1        0.0000
@<TRIPOS>BOND
     1     5     4    1
     2     4     2    1
     3     3     2    2
     4     2     1    1
     5     6     1    1
     6     6     7    1
     7     7     8    2
     8     7     9    1
     9     8    10    1
    10     9    11    2
    11    10    12    2
    12    11    12    1
