@<TRIPOS>MOLECULE
/home/cewinharhar/GITHUB/reincatalyze/data/processed/docking_pred/2023-Apr-25-2140_maxeplen10_maxtrainstep200_exh16_gamma099_lrac3e-4_lrcr1e-3/55f9a48c22e019202c812c896c561d7470c53219_ligand_2.pdbqt
 12 12 0 0 0
SMALL
GASTEIGER

@<TRIPOS>ATOM
      1  C          8.4490   -0.5850   -2.1900 C.3     1  UNL1        0.1270
      2  C          8.5000   -1.8900   -2.8990 C.2     1  UNL1        0.3030
      3  O          9.5570   -2.5430   -3.0900 O.2     1  UNL1       -0.2520
      4  O          7.3210   -2.4360   -3.3840 O.3     1  UNL1       -0.4810
      5  H          7.2730   -2.5720   -4.3960 H       1  UNL1        0.2960
      6  C          7.0270   -0.1100   -2.1200 C.3     1  UNL1        0.0470
      7  C          6.4920   -0.0020   -0.7650 C.2     1  UNL1       -0.0470
      8  C          6.5830   -1.0000    0.1740 C.2     1  UNL1        0.0040
      9  C          5.8590    1.1580   -0.3930 C.2     1  UNL1        0.0040
     10  C          6.0740   -0.8810    1.4460 C.2     1  UNL1        0.0000
     11  C          5.3370    1.3100    0.8710 C.2     1  UNL1        0.0000
     12  C          5.4390    0.2860    1.8110 C.2     1  UNL1        0.0000
@<TRIPOS>BOND
     1     5     4    1
     2     4     2    1
     3     3     2    2
     4     2     1    1
     5     1     6    1
     6     6     7    1
     7     7     9    2
     8     7     8    1
     9     9    11    1
    10     8    10    2
    11    11    12    2
    12    10    12    1
