@<TRIPOS>MOLECULE
/home/cewinharhar/GITHUB/reincatalyze/data/processed/docking_pred/2023-Apr-25-2140_maxeplen10_maxtrainstep200_exh16_gamma099_lrac3e-4_lrcr1e-3/55f9a48c22e019202c812c896c561d7470c53219_ligand_2.pdbqt
 12 12 0 0 0
SMALL
GASTEIGER

@<TRIPOS>ATOM
      1  C          4.9920    1.8410    0.6650 C.3     1  UNL1        0.1270
      2  C          4.5190    1.1380    1.8860 C.2     1  UNL1        0.3030
      3  O          5.1720    0.2400    2.4760 O.2     1  UNL1       -0.2520
      4  O          3.2860    1.4790    2.4210 O.3     1  UNL1       -0.4810
      5  H          3.2740    1.6870    3.4220 H       1  UNL1        0.2960
      6  C          6.4910    1.9120    0.6790 C.3     1  UNL1        0.0470
      7  C          7.1430    1.1230   -0.3630 C.2     1  UNL1       -0.0470
      8  C          8.4850    1.1880   -0.6440 C.2     1  UNL1        0.0040
      9  C          6.3820    0.2620   -1.1150 C.2     1  UNL1        0.0040
     10  C          9.0820    0.4380   -1.6290 C.2     1  UNL1        0.0000
     11  C          6.9470   -0.5030   -2.1090 C.2     1  UNL1        0.0000
     12  C          8.3120   -0.4240   -2.3790 C.2     1  UNL1        0.0000
@<TRIPOS>BOND
     1    12    11    2
     2    12    10    1
     3    11     9    1
     4    10     8    2
     5     9     7    2
     6     8     7    1
     7     7     6    1
     8     1     6    1
     9     1     2    1
    10     2     4    1
    11     2     3    2
    12     4     5    1
