MODEL 1
REMARK VINA RESULT:      -7.4      0.000      0.000
REMARK SMILES O=C(O)CCc1ccccc1
REMARK SMILES IDX 4 1 2 2 1 3 3 4 5 6 6 7 7 8 11 9 8 10 10 11 9 12
REMARK H PARENT 3 5
REMARK Flexibility Score: inf
ROOT
ATOM      1  C   UNL     1       8.448  -0.538  -2.237  1.00  0.00     0.127 C 
ENDROOT
BRANCH   1   2
ATOM      2  C   UNL     1       8.523  -1.850  -2.932  1.00  0.00     0.303 C 
ATOM      3  O   UNL     1       9.591  -2.487  -3.113  1.00  0.00    -0.252 OA
BRANCH   2   4
ATOM      4  O   UNL     1       7.355  -2.421  -3.415  1.00  0.00    -0.481 OA
ATOM      5  H   UNL     1       6.597  -2.533  -2.738  1.00  0.00     0.296 HD
ENDBRANCH   2   4
ENDBRANCH   1   2
BRANCH   1   6
ATOM      6  C   UNL     1       7.019  -0.084  -2.181  1.00  0.00     0.047 C 
BRANCH   6   7
ATOM      7  C   UNL     1       6.488   0.075  -0.829  1.00  0.00    -0.047 A 
ATOM      8  C   UNL     1       6.581  -0.888   0.146  1.00  0.00     0.004 A 
ATOM      9  C   UNL     1       5.856   1.248  -0.499  1.00  0.00     0.004 A 
ATOM     10  C   UNL     1       6.075  -0.722   1.413  1.00  0.00     0.000 A 
ATOM     11  C   UNL     1       5.337   1.447   0.760  1.00  0.00     0.000 A 
ATOM     12  C   UNL     1       5.442   0.459   1.737  1.00  0.00     0.000 A 
ENDBRANCH   6   7
ENDBRANCH   1   6
TORSDOF 4
ENDMDL
MODEL 2
REMARK VINA RESULT:      -7.3      0.118      1.428
REMARK SMILES O=C(O)CCc1ccccc1
REMARK SMILES IDX 4 1 2 2 1 3 3 4 5 6 6 7 7 8 11 9 8 10 10 11 9 12
REMARK H PARENT 3 5
REMARK Flexibility Score: inf
ROOT
ATOM      1  C   UNL     1       8.451  -0.589  -2.180  1.00  0.00     0.127 C 
ENDROOT
BRANCH   1   2
ATOM      2  C   UNL     1       8.511  -1.882  -2.911  1.00  0.00     0.303 C 
ATOM      3  O   UNL     1       9.573  -2.524  -3.113  1.00  0.00    -0.252 OA
BRANCH   2   4
ATOM      4  O   UNL     1       7.336  -2.428  -3.405  1.00  0.00    -0.481 OA
ATOM      5  H   UNL     1       7.119  -3.378  -3.097  1.00  0.00     0.296 HD
ENDBRANCH   2   4
ENDBRANCH   1   2
BRANCH   1   6
ATOM      6  C   UNL     1       7.031  -0.107  -2.135  1.00  0.00     0.047 C 
BRANCH   6   7
ATOM      7  C   UNL     1       6.491   0.057  -0.787  1.00  0.00    -0.047 A 
ATOM      8  C   UNL     1       5.866   1.198  -0.348  1.00  0.00     0.004 A 
ATOM      9  C   UNL     1       6.608  -0.981   0.104  1.00  0.00     0.004 A 
ATOM     10  C   UNL     1       5.363   1.336   0.924  1.00  0.00     0.000 A 
ATOM     11  C   UNL     1       6.117  -0.877   1.385  1.00  0.00     0.000 A 
ATOM     12  C   UNL     1       5.485   0.289   1.813  1.00  0.00     0.000 A 
ENDBRANCH   6   7
ENDBRANCH   1   6
TORSDOF 4
ENDMDL
MODEL 3
REMARK VINA RESULT:      -7.2      0.691      1.608
REMARK SMILES O=C(O)CCc1ccccc1
REMARK SMILES IDX 4 1 2 2 1 3 3 4 5 6 6 7 7 8 11 9 8 10 10 11 9 12
REMARK H PARENT 3 5
REMARK Flexibility Score: inf
ROOT
ATOM      1  C   UNL     1       8.370  -1.019  -1.741  1.00  0.00     0.127 C 
ENDROOT
BRANCH   1   2
ATOM      2  C   UNL     1       8.493  -2.054  -2.801  1.00  0.00     0.303 C 
ATOM      3  O   UNL     1       9.585  -2.566  -3.158  1.00  0.00    -0.252 OA
BRANCH   2   4
ATOM      4  O   UNL     1       7.346  -2.494  -3.445  1.00  0.00    -0.481 OA
ATOM      5  H   UNL     1       7.486  -3.178  -4.191  1.00  0.00     0.296 HD
ENDBRANCH   2   4
ENDBRANCH   1   2
BRANCH   1   6
ATOM      6  C   UNL     1       7.342  -1.451  -0.738  1.00  0.00     0.047 C 
BRANCH   6   7
ATOM      7  C   UNL     1       6.553  -0.359  -0.173  1.00  0.00    -0.047 A 
ATOM      8  C   UNL     1       6.201   0.770  -0.871  1.00  0.00     0.004 A 
ATOM      9  C   UNL     1       6.131  -0.451   1.130  1.00  0.00     0.004 A 
ATOM     10  C   UNL     1       5.458   1.789  -0.324  1.00  0.00     0.000 A 
ATOM     11  C   UNL     1       5.387   0.550   1.710  1.00  0.00     0.000 A 
ATOM     12  C   UNL     1       5.039   1.689   0.985  1.00  0.00     0.000 A 
ENDBRANCH   6   7
ENDBRANCH   1   6
TORSDOF 4
ENDMDL
MODEL 4
REMARK VINA RESULT:      -6.8      3.369      5.062
REMARK SMILES O=C(O)CCc1ccccc1
REMARK SMILES IDX 4 1 2 2 1 3 3 4 5 6 6 7 7 8 11 9 8 10 10 11 9 12
REMARK H PARENT 3 5
REMARK Flexibility Score: inf
ROOT
ATOM      1  C   UNL     1       5.000   1.785   0.684  1.00  0.00     0.127 C 
ENDROOT
BRANCH   1   2
ATOM      2  C   UNL     1       4.500   1.101   1.906  1.00  0.00     0.303 C 
ATOM      3  O   UNL     1       5.127   0.192   2.506  1.00  0.00    -0.252 OA
BRANCH   2   4
ATOM      4  O   UNL     1       3.272   1.477   2.429  1.00  0.00    -0.481 OA
ATOM      5  H   UNL     1       2.470   1.383   1.802  1.00  0.00     0.296 HD
ENDBRANCH   2   4
ENDBRANCH   1   2
BRANCH   1   6
ATOM      6  C   UNL     1       6.500   1.798   0.697  1.00  0.00     0.047 C 
BRANCH   6   7
ATOM      7  C   UNL     1       7.121   1.011  -0.366  1.00  0.00    -0.047 A 
ATOM      8  C   UNL     1       6.459   0.050  -1.090  1.00  0.00     0.004 A 
ATOM      9  C   UNL     1       8.441   1.232  -0.669  1.00  0.00     0.004 A 
ATOM     10  C   UNL     1       7.059  -0.682  -2.088  1.00  0.00     0.000 A 
ATOM     11  C   UNL     1       9.073   0.517  -1.660  1.00  0.00     0.000 A 
ATOM     12  C   UNL     1       8.385  -0.454  -2.386  1.00  0.00     0.000 A 
ENDBRANCH   6   7
ENDBRANCH   1   6
TORSDOF 4
ENDMDL
MODEL 5
REMARK VINA RESULT:      -6.7      1.928      2.629
REMARK SMILES O=C(O)CCc1ccccc1
REMARK SMILES IDX 4 1 2 2 1 3 3 4 5 6 6 7 7 8 11 9 8 10 10 11 9 12
REMARK H PARENT 3 5
REMARK Flexibility Score: inf
ROOT
ATOM      1  C   UNL     1       8.268   0.184  -2.194  1.00  0.00     0.127 C 
ENDROOT
BRANCH   1   2
ATOM      2  C   UNL     1       9.377   0.340  -1.217  1.00  0.00     0.303 C 
ATOM      3  O   UNL     1       9.510  -0.369  -0.188  1.00  0.00    -0.252 OA
BRANCH   2   4
ATOM      4  O   UNL     1      10.332   1.322  -1.438  1.00  0.00    -0.481 OA
ATOM      5  H   UNL     1      10.496   1.970  -0.664  1.00  0.00     0.296 HD
ENDBRANCH   2   4
ENDBRANCH   1   2
BRANCH   1   6
ATOM      6  C   UNL     1       7.129  -0.545  -1.544  1.00  0.00     0.047 C 
BRANCH   6   7
ATOM      7  C   UNL     1       6.353   0.262  -0.606  1.00  0.00    -0.047 A 
ATOM      8  C   UNL     1       5.807   1.484  -0.917  1.00  0.00     0.004 A 
ATOM      9  C   UNL     1       6.149  -0.213   0.666  1.00  0.00     0.004 A 
ATOM     10  C   UNL     1       5.080   2.230  -0.021  1.00  0.00     0.000 A 
ATOM     11  C   UNL     1       5.427   0.508   1.588  1.00  0.00     0.000 A 
ATOM     12  C   UNL     1       4.880   1.746   1.253  1.00  0.00     0.000 A 
ENDBRANCH   6   7
ENDBRANCH   1   6
TORSDOF 4
ENDMDL
