@<TRIPOS>MOLECULE
/home/cewinharhar/GITHUB/reincatalyze/data/processed/docking_pred/2023-Apr-25-2140_maxeplen10_maxtrainstep200_exh16_gamma099_lrac3e-4_lrcr1e-3/5ba5439e64352188cd964ddb86dd28d806e95272_ligand_2.pdbqt
 12 12 0 0 0
SMALL
GASTEIGER

@<TRIPOS>ATOM
      1  C          8.4480   -0.5380   -2.2370 C.3     1  UNL1        0.1270
      2  C          8.5230   -1.8500   -2.9320 C.2     1  UNL1        0.3030
      3  O          9.5910   -2.4870   -3.1130 O.2     1  UNL1       -0.2520
      4  O          7.3550   -2.4210   -3.4150 O.3     1  UNL1       -0.4810
      5  H          6.5970   -2.5330   -2.7380 H       1  UNL1        0.2960
      6  C          7.0190   -0.0840   -2.1810 C.3     1  UNL1        0.0470
      7  C          6.4880    0.0750   -0.8290 C.2     1  UNL1       -0.0470
      8  C          6.5810   -0.8880    0.1460 C.2     1  UNL1        0.0040
      9  C          5.8560    1.2480   -0.4990 C.2     1  UNL1        0.0040
     10  C          6.0750   -0.7220    1.4130 C.2     1  UNL1        0.0000
     11  C          5.3370    1.4470    0.7600 C.2     1  UNL1        0.0000
     12  C          5.4420    0.4590    1.7370 C.2     1  UNL1        0.0000
@<TRIPOS>BOND
     1     4     2    1
     2     4     5    1
     3     3     2    2
     4     2     1    1
     5     1     6    1
     6     6     7    1
     7     7     9    2
     8     7     8    1
     9     9    11    1
    10     8    10    2
    11    11    12    2
    12    10    12    1
