@<TRIPOS>MOLECULE
/home/cewinharhar/GITHUB/reincatalyze/data/processed/docking_pred/2023-Apr-25-2140_maxeplen10_maxtrainstep200_exh16_gamma099_lrac3e-4_lrcr1e-3/5ba5439e64352188cd964ddb86dd28d806e95272_ligand_2.pdbqt
 12 12 0 0 0
SMALL
GASTEIGER

@<TRIPOS>ATOM
      1  C          5.0000    1.7850    0.6840 C.3     1  UNL1        0.1270
      2  C          4.5000    1.1010    1.9060 C.2     1  UNL1        0.3030
      3  O          5.1270    0.1920    2.5060 O.2     1  UNL1       -0.2520
      4  O          3.2720    1.4770    2.4290 O.3     1  UNL1       -0.4810
      5  H          2.4700    1.3830    1.8020 H       1  UNL1        0.2960
      6  C          6.5000    1.7980    0.6970 C.3     1  UNL1        0.0470
      7  C          7.1210    1.0110   -0.3660 C.2     1  UNL1       -0.0470
      8  C          6.4590    0.0500   -1.0900 C.2     1  UNL1        0.0040
      9  C          8.4410    1.2320   -0.6690 C.2     1  UNL1        0.0040
     10  C          7.0590   -0.6820   -2.0880 C.2     1  UNL1        0.0000
     11  C          9.0730    0.5170   -1.6600 C.2     1  UNL1        0.0000
     12  C          8.3850   -0.4540   -2.3860 C.2     1  UNL1        0.0000
@<TRIPOS>BOND
     1    12    10    2
     2    12    11    1
     3    10     8    1
     4    11     9    2
     5     8     7    2
     6     9     7    1
     7     7     6    1
     8     1     6    1
     9     1     2    1
    10     5     4    1
    11     2     4    1
    12     2     3    2
