@<TRIPOS>MOLECULE
/home/cewinharhar/GITHUB/reincatalyze/data/processed/docking_pred/2023-Apr-25-2140_maxeplen10_maxtrainstep200_exh16_gamma099_lrac3e-4_lrcr1e-3/5ba5439e64352188cd964ddb86dd28d806e95272_ligand_2.pdbqt
 12 12 0 0 0
SMALL
GASTEIGER

@<TRIPOS>ATOM
      1  C          8.3700   -1.0190   -1.7410 C.3     1  UNL1        0.1270
      2  C          8.4930   -2.0540   -2.8010 C.2     1  UNL1        0.3030
      3  O          9.5850   -2.5660   -3.1580 O.2     1  UNL1       -0.2520
      4  O          7.3460   -2.4940   -3.4450 O.3     1  UNL1       -0.4810
      5  H          7.4860   -3.1780   -4.1910 H       1  UNL1        0.2960
      6  C          7.3420   -1.4510   -0.7380 C.3     1  UNL1        0.0470
      7  C          6.5530   -0.3590   -0.1730 C.2     1  UNL1       -0.0470
      8  C          6.2010    0.7700   -0.8710 C.2     1  UNL1        0.0040
      9  C          6.1310   -0.4510    1.1300 C.2     1  UNL1        0.0040
     10  C          5.4580    1.7890   -0.3240 C.2     1  UNL1        0.0000
     11  C          5.3870    0.5500    1.7100 C.2     1  UNL1        0.0000
     12  C          5.0390    1.6890    0.9850 C.2     1  UNL1        0.0000
@<TRIPOS>BOND
     1     5     4    1
     2     4     2    1
     3     3     2    2
     4     2     1    1
     5     1     6    1
     6     8    10    1
     7     8     7    2
     8     6     7    1
     9    10    12    2
    10     7     9    1
    11    12    11    1
    12     9    11    2
