@<TRIPOS>MOLECULE
/home/cewinharhar/GITHUB/reincatalyze/data/processed/docking_pred/2023-Apr-25-2140_maxeplen10_maxtrainstep200_exh16_gamma099_lrac3e-4_lrcr1e-3/5ba5439e64352188cd964ddb86dd28d806e95272_ligand_2.pdbqt
 12 12 0 0 0
SMALL
GASTEIGER

@<TRIPOS>ATOM
      1  C          8.4510   -0.5890   -2.1800 C.3     1  UNL1        0.1270
      2  C          8.5110   -1.8820   -2.9110 C.2     1  UNL1        0.3030
      3  O          9.5730   -2.5240   -3.1130 O.2     1  UNL1       -0.2520
      4  O          7.3360   -2.4280   -3.4050 O.3     1  UNL1       -0.4810
      5  H          7.1190   -3.3780   -3.0970 H       1  UNL1        0.2960
      6  C          7.0310   -0.1070   -2.1350 C.3     1  UNL1        0.0470
      7  C          6.4910    0.0570   -0.7870 C.2     1  UNL1       -0.0470
      8  C          5.8660    1.1980   -0.3480 C.2     1  UNL1        0.0040
      9  C          6.6080   -0.9810    0.1040 C.2     1  UNL1        0.0040
     10  C          5.3630    1.3360    0.9240 C.2     1  UNL1        0.0000
     11  C          6.1170   -0.8770    1.3850 C.2     1  UNL1        0.0000
     12  C          5.4850    0.2890    1.8130 C.2     1  UNL1        0.0000
@<TRIPOS>BOND
     1     4     5    1
     2     4     2    1
     3     3     2    2
     4     2     1    1
     5     1     6    1
     6     6     7    1
     7     7     8    2
     8     7     9    1
     9     8    10    1
    10     9    11    2
    11    10    12    2
    12    11    12    1
