@<TRIPOS>MOLECULE
/home/cewinharhar/GITHUB/reincatalyze/data/processed/docking_pred/2023-Apr-25-2140_maxeplen10_maxtrainstep200_exh16_gamma099_lrac3e-4_lrcr1e-3/5ba5439e64352188cd964ddb86dd28d806e95272_ligand_2.pdbqt
 12 12 0 0 0
SMALL
GASTEIGER

@<TRIPOS>ATOM
      1  C          8.2680    0.1840   -2.1940 C.3     1  UNL1        0.1270
      2  C          9.3770    0.3400   -1.2170 C.2     1  UNL1        0.3030
      3  O          9.5100   -0.3690   -0.1880 O.2     1  UNL1       -0.2520
      4  O         10.3320    1.3220   -1.4380 O.3     1  UNL1       -0.4810
      5  H         10.4960    1.9700   -0.6640 H       1  UNL1        0.2960
      6  C          7.1290   -0.5450   -1.5440 C.3     1  UNL1        0.0470
      7  C          6.3530    0.2620   -0.6060 C.2     1  UNL1       -0.0470
      8  C          5.8070    1.4840   -0.9170 C.2     1  UNL1        0.0040
      9  C          6.1490   -0.2130    0.6660 C.2     1  UNL1        0.0040
     10  C          5.0800    2.2300   -0.0210 C.2     1  UNL1        0.0000
     11  C          5.4270    0.5080    1.5880 C.2     1  UNL1        0.0000
     12  C          4.8800    1.7460    1.2530 C.2     1  UNL1        0.0000
@<TRIPOS>BOND
     1     1     6    1
     2     1     2    1
     3     6     7    1
     4     4     2    1
     5     4     5    1
     6     2     3    2
     7     8     7    2
     8     8    10    1
     9     7     9    1
    10    10    12    2
    11     9    11    2
    12    12    11    1
