@<TRIPOS>MOLECULE
/home/cewinharhar/GITHUB/reincatalyze/data/processed/docking_pred/2023-Apr-25-2140_maxeplen10_maxtrainstep200_exh16_gamma099_lrac3e-4_lrcr1e-3/5bd4159c0713ad18fb2d2a846002564f6b7df27c_ligand_2.pdbqt
 12 12 0 0 0
SMALL
GASTEIGER

@<TRIPOS>ATOM
      1  C          8.4870    0.6720   -1.7010 C.3     1  UNL1        0.1270
      2  C          9.6190    0.2880   -0.8170 C.2     1  UNL1        0.3030
      3  O          9.5130   -0.5050    0.1530 O.2     1  UNL1       -0.2520
      4  O         10.8730    0.8260   -1.0610 O.3     1  UNL1       -0.4810
      5  H         11.6350    0.4700   -0.4790 H       1  UNL1        0.2960
      6  C          7.2970   -0.1860   -1.3900 C.3     1  UNL1        0.0470
      7  C          6.4080    0.3620   -0.3680 C.2     1  UNL1       -0.0470
      8  C          5.7580    1.5670   -0.4870 C.2     1  UNL1        0.0040
      9  C          6.2000   -0.3550    0.7830 C.2     1  UNL1        0.0040
     10  C          4.9250    2.0680    0.4840 C.2     1  UNL1        0.0000
     11  C          5.3730    0.1170    1.7770 C.2     1  UNL1        0.0000
     12  C          4.7210    1.3420    1.6380 C.2     1  UNL1        0.0000
@<TRIPOS>BOND
     1     1     6    1
     2     1     2    1
     3     6     7    1
     4     4     2    1
     5     4     5    1
     6     2     3    2
     7     8     7    2
     8     8    10    1
     9     7     9    1
    10    10    12    2
    11     9    11    2
    12    12    11    1
