MODEL 1
REMARK VINA RESULT:      -7.4      0.000      0.000
REMARK SMILES O=C(O)CCc1ccccc1
REMARK SMILES IDX 4 1 2 2 1 3 3 4 5 6 6 7 7 8 11 9 8 10 10 11 9 12
REMARK H PARENT 3 5
REMARK Flexibility Score: inf
ROOT
ATOM      1  C   UNL     1       8.460  -0.592  -2.189  1.00  0.00     0.127 C 
ENDROOT
BRANCH   1   2
ATOM      2  C   UNL     1       8.509  -1.888  -2.915  1.00  0.00     0.303 C 
ATOM      3  O   UNL     1       9.565  -2.544  -3.108  1.00  0.00    -0.252 OA
BRANCH   2   4
ATOM      4  O   UNL     1       7.331  -2.423  -3.414  1.00  0.00    -0.481 OA
ATOM      5  H   UNL     1       6.484  -2.216  -2.881  1.00  0.00     0.296 HD
ENDBRANCH   2   4
ENDBRANCH   1   2
BRANCH   1   6
ATOM      6  C   UNL     1       7.040  -0.114  -2.117  1.00  0.00     0.047 C 
BRANCH   6   7
ATOM      7  C   UNL     1       6.507  -0.007  -0.761  1.00  0.00    -0.047 A 
ATOM      8  C   UNL     1       6.609  -1.000   0.182  1.00  0.00     0.004 A 
ATOM      9  C   UNL     1       5.863   1.148  -0.392  1.00  0.00     0.004 A 
ATOM     10  C   UNL     1       6.102  -0.883   1.454  1.00  0.00     0.000 A 
ATOM     11  C   UNL     1       5.343   1.300   0.873  1.00  0.00     0.000 A 
ATOM     12  C   UNL     1       5.457   0.280   1.816  1.00  0.00     0.000 A 
ENDBRANCH   6   7
ENDBRANCH   1   6
TORSDOF 4
ENDMDL
MODEL 2
REMARK VINA RESULT:      -7.4      0.060      1.426
REMARK SMILES O=C(O)CCc1ccccc1
REMARK SMILES IDX 4 1 2 2 1 3 3 4 5 6 6 7 7 8 11 9 8 10 10 11 9 12
REMARK H PARENT 3 5
REMARK Flexibility Score: inf
ROOT
ATOM      1  C   UNL     1       8.440  -0.583  -2.196  1.00  0.00     0.127 C 
ENDROOT
BRANCH   1   2
ATOM      2  C   UNL     1       8.507  -1.882  -2.915  1.00  0.00     0.303 C 
ATOM      3  O   UNL     1       9.571  -2.524  -3.105  1.00  0.00    -0.252 OA
BRANCH   2   4
ATOM      4  O   UNL     1       7.336  -2.434  -3.412  1.00  0.00    -0.481 OA
ATOM      5  H   UNL     1       6.571  -2.541  -2.742  1.00  0.00     0.296 HD
ENDBRANCH   2   4
ENDBRANCH   1   2
BRANCH   1   6
ATOM      6  C   UNL     1       7.017  -0.108  -2.155  1.00  0.00     0.047 C 
BRANCH   6   7
ATOM      7  C   UNL     1       6.478   0.068  -0.808  1.00  0.00    -0.047 A 
ATOM      8  C   UNL     1       5.848   1.211  -0.380  1.00  0.00     0.004 A 
ATOM      9  C   UNL     1       6.602  -0.959   0.094  1.00  0.00     0.004 A 
ATOM     10  C   UNL     1       5.346   1.360   0.891  1.00  0.00     0.000 A 
ATOM     11  C   UNL     1       6.112  -0.844   1.375  1.00  0.00     0.000 A 
ATOM     12  C   UNL     1       5.475   0.324   1.791  1.00  0.00     0.000 A 
ENDBRANCH   6   7
ENDBRANCH   1   6
TORSDOF 4
ENDMDL
MODEL 3
REMARK VINA RESULT:      -6.9      1.043      1.986
REMARK SMILES O=C(O)CCc1ccccc1
REMARK SMILES IDX 4 1 2 2 1 3 3 4 5 6 6 7 7 8 11 9 8 10 10 11 9 12
REMARK H PARENT 3 5
REMARK Flexibility Score: inf
ROOT
ATOM      1  C   UNL     1       7.310  -1.296  -2.224  1.00  0.00     0.127 C 
ENDROOT
BRANCH   1   2
ATOM      2  C   UNL     1       8.765  -1.393  -2.510  1.00  0.00     0.303 C 
ATOM      3  O   UNL     1       9.291  -2.330  -3.162  1.00  0.00    -0.252 OA
BRANCH   2   4
ATOM      4  O   UNL     1       9.609  -0.397  -2.040  1.00  0.00    -0.481 OA
ATOM      5  H   UNL     1       9.487   0.528  -2.458  1.00  0.00     0.296 HD
ENDBRANCH   2   4
ENDBRANCH   1   2
BRANCH   1   6
ATOM      6  C   UNL     1       7.087  -1.374  -0.742  1.00  0.00     0.047 C 
BRANCH   6   7
ATOM      7  C   UNL     1       6.364  -0.235  -0.180  1.00  0.00    -0.047 A 
ATOM      8  C   UNL     1       6.089   0.915  -0.877  1.00  0.00     0.004 A 
ATOM      9  C   UNL     1       5.929  -0.303   1.121  1.00  0.00     0.004 A 
ATOM     10  C   UNL     1       5.407   1.977  -0.333  1.00  0.00     0.000 A 
ATOM     11  C   UNL     1       5.245   0.741   1.698  1.00  0.00     0.000 A 
ATOM     12  C   UNL     1       4.974   1.901   0.973  1.00  0.00     0.000 A 
ENDBRANCH   6   7
ENDBRANCH   1   6
TORSDOF 4
ENDMDL
MODEL 4
REMARK VINA RESULT:      -6.8      3.381      5.097
REMARK SMILES O=C(O)CCc1ccccc1
REMARK SMILES IDX 4 1 2 2 1 3 3 4 5 6 6 7 7 8 11 9 8 10 10 11 9 12
REMARK H PARENT 3 5
REMARK Flexibility Score: inf
ROOT
ATOM      1  C   UNL     1       5.017   1.794   0.720  1.00  0.00     0.127 C 
ENDROOT
BRANCH   1   2
ATOM      2  C   UNL     1       4.499   1.096   1.925  1.00  0.00     0.303 C 
ATOM      3  O   UNL     1       5.113   0.174   2.519  1.00  0.00    -0.252 OA
BRANCH   2   4
ATOM      4  O   UNL     1       3.266   1.470   2.439  1.00  0.00    -0.481 OA
ATOM      5  H   UNL     1       3.183   2.444   2.740  1.00  0.00     0.296 HD
ENDBRANCH   2   4
ENDBRANCH   1   2
BRANCH   1   6
ATOM      6  C   UNL     1       6.517   1.813   0.760  1.00  0.00     0.047 C 
BRANCH   6   7
ATOM      7  C   UNL     1       7.159   1.071  -0.323  1.00  0.00    -0.047 A 
ATOM      8  C   UNL     1       8.483   1.205  -0.661  1.00  0.00     0.004 A 
ATOM      9  C   UNL     1       6.409   0.185  -1.055  1.00  0.00     0.004 A 
ATOM     10  C   UNL     1       9.072   0.499  -1.683  1.00  0.00     0.000 A 
ATOM     11  C   UNL     1       6.965  -0.538  -2.085  1.00  0.00     0.000 A 
ATOM     12  C   UNL     1       8.311  -0.389  -2.413  1.00  0.00     0.000 A 
ENDBRANCH   6   7
ENDBRANCH   1   6
TORSDOF 4
ENDMDL
MODEL 5
REMARK VINA RESULT:      -6.5      2.094      2.747
REMARK SMILES O=C(O)CCc1ccccc1
REMARK SMILES IDX 4 1 2 2 1 3 3 4 5 6 6 7 7 8 11 9 8 10 10 11 9 12
REMARK H PARENT 3 5
REMARK Flexibility Score: inf
ROOT
ATOM      1  C   UNL     1       8.487   0.672  -1.701  1.00  0.00     0.127 C 
ENDROOT
BRANCH   1   2
ATOM      2  C   UNL     1       9.619   0.288  -0.817  1.00  0.00     0.303 C 
ATOM      3  O   UNL     1       9.513  -0.505   0.153  1.00  0.00    -0.252 OA
BRANCH   2   4
ATOM      4  O   UNL     1      10.873   0.826  -1.061  1.00  0.00    -0.481 OA
ATOM      5  H   UNL     1      11.635   0.470  -0.479  1.00  0.00     0.296 HD
ENDBRANCH   2   4
ENDBRANCH   1   2
BRANCH   1   6
ATOM      6  C   UNL     1       7.297  -0.186  -1.390  1.00  0.00     0.047 C 
BRANCH   6   7
ATOM      7  C   UNL     1       6.408   0.362  -0.368  1.00  0.00    -0.047 A 
ATOM      8  C   UNL     1       5.758   1.567  -0.487  1.00  0.00     0.004 A 
ATOM      9  C   UNL     1       6.200  -0.355   0.783  1.00  0.00     0.004 A 
ATOM     10  C   UNL     1       4.925   2.068   0.484  1.00  0.00     0.000 A 
ATOM     11  C   UNL     1       5.373   0.117   1.777  1.00  0.00     0.000 A 
ATOM     12  C   UNL     1       4.721   1.342   1.638  1.00  0.00     0.000 A 
ENDBRANCH   6   7
ENDBRANCH   1   6
TORSDOF 4
ENDMDL
