@<TRIPOS>MOLECULE
/home/cewinharhar/GITHUB/reincatalyze/data/processed/docking_pred/2023-Apr-25-2140_maxeplen10_maxtrainstep200_exh16_gamma099_lrac3e-4_lrcr1e-3/5bd4159c0713ad18fb2d2a846002564f6b7df27c_ligand_2.pdbqt
 12 12 0 0 0
SMALL
GASTEIGER

@<TRIPOS>ATOM
      1  C          7.3100   -1.2960   -2.2240 C.3     1  UNL1        0.1270
      2  C          8.7650   -1.3930   -2.5100 C.2     1  UNL1        0.3030
      3  O          9.2910   -2.3300   -3.1620 O.2     1  UNL1       -0.2520
      4  O          9.6090   -0.3970   -2.0400 O.3     1  UNL1       -0.4810
      5  H          9.4870    0.5280   -2.4580 H       1  UNL1        0.2960
      6  C          7.0870   -1.3740   -0.7420 C.3     1  UNL1        0.0470
      7  C          6.3640   -0.2350   -0.1800 C.2     1  UNL1       -0.0470
      8  C          6.0890    0.9150   -0.8770 C.2     1  UNL1        0.0040
      9  C          5.9290   -0.3030    1.1210 C.2     1  UNL1        0.0040
     10  C          5.4070    1.9770   -0.3330 C.2     1  UNL1        0.0000
     11  C          5.2450    0.7410    1.6980 C.2     1  UNL1        0.0000
     12  C          4.9740    1.9010    0.9730 C.2     1  UNL1        0.0000
@<TRIPOS>BOND
     1     3     2    2
     2     2     1    1
     3     2     4    1
     4     5     4    1
     5     1     6    1
     6     8    10    1
     7     8     7    2
     8     6     7    1
     9    10    12    2
    10     7     9    1
    11    12    11    1
    12     9    11    2
