@<TRIPOS>MOLECULE
/home/cewinharhar/GITHUB/reincatalyze/data/processed/docking_pred/2023-Apr-25-2140_maxeplen10_maxtrainstep200_exh16_gamma099_lrac3e-4_lrcr1e-3/5bd4159c0713ad18fb2d2a846002564f6b7df27c_ligand_2.pdbqt
 12 12 0 0 0
SMALL
GASTEIGER

@<TRIPOS>ATOM
      1  C          8.4600   -0.5920   -2.1890 C.3     1  UNL1        0.1270
      2  C          8.5090   -1.8880   -2.9150 C.2     1  UNL1        0.3030
      3  O          9.5650   -2.5440   -3.1080 O.2     1  UNL1       -0.2520
      4  O          7.3310   -2.4230   -3.4140 O.3     1  UNL1       -0.4810
      5  H          6.4840   -2.2160   -2.8810 H       1  UNL1        0.2960
      6  C          7.0400   -0.1140   -2.1170 C.3     1  UNL1        0.0470
      7  C          6.5070   -0.0070   -0.7610 C.2     1  UNL1       -0.0470
      8  C          6.6090   -1.0000    0.1820 C.2     1  UNL1        0.0040
      9  C          5.8630    1.1480   -0.3920 C.2     1  UNL1        0.0040
     10  C          6.1020   -0.8830    1.4540 C.2     1  UNL1        0.0000
     11  C          5.3430    1.3000    0.8730 C.2     1  UNL1        0.0000
     12  C          5.4570    0.2800    1.8160 C.2     1  UNL1        0.0000
@<TRIPOS>BOND
     1     4     2    1
     2     4     5    1
     3     3     2    2
     4     2     1    1
     5     1     6    1
     6     6     7    1
     7     7     9    2
     8     7     8    1
     9     9    11    1
    10     8    10    2
    11    11    12    2
    12    10    12    1
