@<TRIPOS>MOLECULE
/home/cewinharhar/GITHUB/reincatalyze/data/processed/docking_pred/2023-Apr-25-2140_maxeplen10_maxtrainstep200_exh16_gamma099_lrac3e-4_lrcr1e-3/5bd4159c0713ad18fb2d2a846002564f6b7df27c_ligand_2.pdbqt
 12 12 0 0 0
SMALL
GASTEIGER

@<TRIPOS>ATOM
      1  C          5.0170    1.7940    0.7200 C.3     1  UNL1        0.1270
      2  C          4.4990    1.0960    1.9250 C.2     1  UNL1        0.3030
      3  O          5.1130    0.1740    2.5190 O.2     1  UNL1       -0.2520
      4  O          3.2660    1.4700    2.4390 O.3     1  UNL1       -0.4810
      5  H          3.1830    2.4440    2.7400 H       1  UNL1        0.2960
      6  C          6.5170    1.8130    0.7600 C.3     1  UNL1        0.0470
      7  C          7.1590    1.0710   -0.3230 C.2     1  UNL1       -0.0470
      8  C          8.4830    1.2050   -0.6610 C.2     1  UNL1        0.0040
      9  C          6.4090    0.1850   -1.0550 C.2     1  UNL1        0.0040
     10  C          9.0720    0.4990   -1.6830 C.2     1  UNL1        0.0000
     11  C          6.9650   -0.5380   -2.0850 C.2     1  UNL1        0.0000
     12  C          8.3110   -0.3890   -2.4130 C.2     1  UNL1        0.0000
@<TRIPOS>BOND
     1    12    11    2
     2    12    10    1
     3    11     9    1
     4    10     8    2
     5     9     7    2
     6     8     7    1
     7     7     6    1
     8     1     6    1
     9     1     2    1
    10     2     4    1
    11     2     3    2
    12     4     5    1
