@<TRIPOS>MOLECULE
/home/cewinharhar/GITHUB/reincatalyze/data/processed/docking_pred/2023-Apr-25-2140_maxeplen10_maxtrainstep200_exh16_gamma099_lrac3e-4_lrcr1e-3/5be73a077ea639c014f12358d863af943f9e92ef_ligand_2.pdbqt
 12 12 0 0 0
SMALL
GASTEIGER

@<TRIPOS>ATOM
      1  C          8.2870    0.2320   -2.2190 C.3     1  UNL1        0.1270
      2  C          9.3910    0.3540   -1.2320 C.2     1  UNL1        0.3030
      3  O          9.4970   -0.3630   -0.2050 O.2     1  UNL1       -0.2520
      4  O         10.3740    1.3100   -1.4410 O.3     1  UNL1       -0.4810
      5  H         10.6040    1.5110   -2.4170 H       1  UNL1        0.2960
      6  C          7.1300   -0.4850   -1.5870 C.3     1  UNL1        0.0470
      7  C          6.3410    0.3330   -0.6680 C.2     1  UNL1       -0.0470
      8  C          5.7940    1.5460   -1.0040 C.2     1  UNL1        0.0040
      9  C          6.1270   -0.1250    0.6080 C.2     1  UNL1        0.0040
     10  C          5.0540    2.3030   -0.1270 C.2     1  UNL1        0.0000
     11  C          5.3920    0.6080    1.5120 C.2     1  UNL1        0.0000
     12  C          4.8430    1.8380    1.1530 C.2     1  UNL1        0.0000
@<TRIPOS>BOND
     1     5     4    1
     2     1     6    1
     3     1     2    1
     4     6     7    1
     5     4     2    1
     6     2     3    2
     7     8     7    2
     8     8    10    1
     9     7     9    1
    10    10    12    2
    11     9    11    2
    12    12    11    1
