@<TRIPOS>MOLECULE
/home/cewinharhar/GITHUB/reincatalyze/data/processed/docking_pred/2023-Apr-25-2140_maxeplen10_maxtrainstep200_exh16_gamma099_lrac3e-4_lrcr1e-3/5be73a077ea639c014f12358d863af943f9e92ef_ligand_2.pdbqt
 12 12 0 0 0
SMALL
GASTEIGER

@<TRIPOS>ATOM
      1  C          8.4970   -0.7030   -2.0320 C.3     1  UNL1        0.1270
      2  C          8.5330   -1.9350   -2.8630 C.2     1  UNL1        0.3030
      3  O          9.5830   -2.5740   -3.1240 O.2     1  UNL1       -0.2520
      4  O          7.3460   -2.4230   -3.3900 O.3     1  UNL1       -0.4810
      5  H          7.1760   -2.2180   -4.3770 H       1  UNL1        0.2960
      6  C          7.1220   -0.1050   -2.0850 C.3     1  UNL1        0.0470
      7  C          6.5050    0.1100   -0.7780 C.2     1  UNL1       -0.0470
      8  C          5.8150    1.2470   -0.4360 C.2     1  UNL1        0.0040
      9  C          6.6140   -0.8730    0.1740 C.2     1  UNL1        0.0040
     10  C          5.2410    1.4320    0.7990 C.2     1  UNL1        0.0000
     11  C          6.0520   -0.7200    1.4210 C.2     1  UNL1        0.0000
     12  C          5.3540    0.4410    1.7500 C.2     1  UNL1        0.0000
@<TRIPOS>BOND
     1     5     4    1
     2     4     2    1
     3     3     2    2
     4     2     1    1
     5     6     1    1
     6     6     7    1
     7     7     8    2
     8     7     9    1
     9     8    10    1
    10     9    11    2
    11    10    12    2
    12    11    12    1
