MODEL 1
REMARK VINA RESULT:      -7.3      0.000      0.000
REMARK SMILES O=C(O)CCc1ccccc1
REMARK SMILES IDX 4 1 2 2 1 3 3 4 5 6 6 7 7 8 11 9 8 10 10 11 9 12
REMARK H PARENT 3 5
REMARK Flexibility Score: inf
ROOT
ATOM      1  C   UNL     1       8.497  -0.703  -2.032  1.00  0.00     0.127 C 
ENDROOT
BRANCH   1   2
ATOM      2  C   UNL     1       8.533  -1.935  -2.863  1.00  0.00     0.303 C 
ATOM      3  O   UNL     1       9.583  -2.574  -3.124  1.00  0.00    -0.252 OA
BRANCH   2   4
ATOM      4  O   UNL     1       7.346  -2.423  -3.390  1.00  0.00    -0.481 OA
ATOM      5  H   UNL     1       7.176  -2.218  -4.377  1.00  0.00     0.296 HD
ENDBRANCH   2   4
ENDBRANCH   1   2
BRANCH   1   6
ATOM      6  C   UNL     1       7.122  -0.105  -2.085  1.00  0.00     0.047 C 
BRANCH   6   7
ATOM      7  C   UNL     1       6.505   0.110  -0.778  1.00  0.00    -0.047 A 
ATOM      8  C   UNL     1       5.815   1.247  -0.436  1.00  0.00     0.004 A 
ATOM      9  C   UNL     1       6.614  -0.873   0.174  1.00  0.00     0.004 A 
ATOM     10  C   UNL     1       5.241   1.432   0.799  1.00  0.00     0.000 A 
ATOM     11  C   UNL     1       6.052  -0.720   1.421  1.00  0.00     0.000 A 
ATOM     12  C   UNL     1       5.354   0.441   1.750  1.00  0.00     0.000 A 
ENDBRANCH   6   7
ENDBRANCH   1   6
TORSDOF 4
ENDMDL
MODEL 2
REMARK VINA RESULT:      -7.2      0.146      1.725
REMARK SMILES O=C(O)CCc1ccccc1
REMARK SMILES IDX 4 1 2 2 1 3 3 4 5 6 6 7 7 8 11 9 8 10 10 11 9 12
REMARK H PARENT 3 5
REMARK Flexibility Score: inf
ROOT
ATOM      1  C   UNL     1       8.417  -0.599  -2.189  1.00  0.00     0.127 C 
ENDROOT
BRANCH   1   2
ATOM      2  C   UNL     1       8.364  -1.889  -2.925  1.00  0.00     0.303 C 
ATOM      3  O   UNL     1       7.297  -2.446  -3.287  1.00  0.00    -0.252 OA
BRANCH   2   4
ATOM      4  O   UNL     1       9.552  -2.530  -3.241  1.00  0.00    -0.481 OA
ATOM      5  H   UNL     1       9.997  -2.243  -4.116  1.00  0.00     0.296 HD
ENDBRANCH   2   4
ENDBRANCH   1   2
BRANCH   1   6
ATOM      6  C   UNL     1       7.037  -0.016  -2.101  1.00  0.00     0.047 C 
BRANCH   6   7
ATOM      7  C   UNL     1       6.499   0.059  -0.745  1.00  0.00    -0.047 A 
ATOM      8  C   UNL     1       6.608  -0.952   0.178  1.00  0.00     0.004 A 
ATOM      9  C   UNL     1       5.843   1.200  -0.355  1.00  0.00     0.004 A 
ATOM     10  C   UNL     1       6.096  -0.864   1.451  1.00  0.00     0.000 A 
ATOM     11  C   UNL     1       5.317   1.322   0.911  1.00  0.00     0.000 A 
ATOM     12  C   UNL     1       5.438   0.285   1.834  1.00  0.00     0.000 A 
ENDBRANCH   6   7
ENDBRANCH   1   6
TORSDOF 4
ENDMDL
MODEL 3
REMARK VINA RESULT:      -7.2      0.617      1.045
REMARK SMILES O=C(O)CCc1ccccc1
REMARK SMILES IDX 4 1 2 2 1 3 3 4 5 6 6 7 7 8 11 9 8 10 10 11 9 12
REMARK H PARENT 3 5
REMARK Flexibility Score: inf
ROOT
ATOM      1  C   UNL     1       8.274  -0.938  -1.833  1.00  0.00     0.127 C 
ENDROOT
BRANCH   1   2
ATOM      2  C   UNL     1       8.447  -2.011  -2.847  1.00  0.00     0.303 C 
ATOM      3  O   UNL     1       9.557  -2.518  -3.149  1.00  0.00    -0.252 OA
BRANCH   2   4
ATOM      4  O   UNL     1       7.328  -2.494  -3.508  1.00  0.00    -0.481 OA
ATOM      5  H   UNL     1       6.569  -1.825  -3.654  1.00  0.00     0.296 HD
ENDBRANCH   2   4
ENDBRANCH   1   2
BRANCH   1   6
ATOM      6  C   UNL     1       7.264  -1.372  -0.813  1.00  0.00     0.047 C 
BRANCH   6   7
ATOM      7  C   UNL     1       6.492  -0.281  -0.224  1.00  0.00    -0.047 A 
ATOM      8  C   UNL     1       6.134   0.856  -0.906  1.00  0.00     0.004 A 
ATOM      9  C   UNL     1       6.094  -0.382   1.086  1.00  0.00     0.004 A 
ATOM     10  C   UNL     1       5.407   1.875  -0.337  1.00  0.00     0.000 A 
ATOM     11  C   UNL     1       5.366   0.619   1.687  1.00  0.00     0.000 A 
ATOM     12  C   UNL     1       5.011   1.766   0.979  1.00  0.00     0.000 A 
ENDBRANCH   6   7
ENDBRANCH   1   6
TORSDOF 4
ENDMDL
MODEL 4
REMARK VINA RESULT:      -6.7      3.335      5.051
REMARK SMILES O=C(O)CCc1ccccc1
REMARK SMILES IDX 4 1 2 2 1 3 3 4 5 6 6 7 7 8 11 9 8 10 10 11 9 12
REMARK H PARENT 3 5
REMARK Flexibility Score: inf
ROOT
ATOM      1  C   UNL     1       5.046   1.768   0.720  1.00  0.00     0.127 C 
ENDROOT
BRANCH   1   2
ATOM      2  C   UNL     1       4.592   1.040   1.933  1.00  0.00     0.303 C 
ATOM      3  O   UNL     1       5.269   0.154   2.514  1.00  0.00    -0.252 OA
BRANCH   2   4
ATOM      4  O   UNL     1       3.350   1.342   2.471  1.00  0.00    -0.481 OA
ATOM      5  H   UNL     1       3.259   1.227   3.483  1.00  0.00     0.296 HD
ENDBRANCH   2   4
ENDBRANCH   1   2
BRANCH   1   6
ATOM      6  C   UNL     1       6.545   1.838   0.712  1.00  0.00     0.047 C 
BRANCH   6   7
ATOM      7  C   UNL     1       7.180   1.062  -0.351  1.00  0.00    -0.047 A 
ATOM      8  C   UNL     1       8.507   1.171  -0.688  1.00  0.00     0.004 A 
ATOM      9  C   UNL     1       6.420   0.168  -1.063  1.00  0.00     0.004 A 
ATOM     10  C   UNL     1       9.089   0.433  -1.691  1.00  0.00     0.000 A 
ATOM     11  C   UNL     1       6.969  -0.586  -2.074  1.00  0.00     0.000 A 
ATOM     12  C   UNL     1       8.319  -0.462  -2.402  1.00  0.00     0.000 A 
ENDBRANCH   6   7
ENDBRANCH   1   6
TORSDOF 4
ENDMDL
MODEL 5
REMARK VINA RESULT:      -6.7      1.954      2.300
REMARK SMILES O=C(O)CCc1ccccc1
REMARK SMILES IDX 4 1 2 2 1 3 3 4 5 6 6 7 7 8 11 9 8 10 10 11 9 12
REMARK H PARENT 3 5
REMARK Flexibility Score: inf
ROOT
ATOM      1  C   UNL     1       8.287   0.232  -2.219  1.00  0.00     0.127 C 
ENDROOT
BRANCH   1   2
ATOM      2  C   UNL     1       9.391   0.354  -1.232  1.00  0.00     0.303 C 
ATOM      3  O   UNL     1       9.497  -0.363  -0.205  1.00  0.00    -0.252 OA
BRANCH   2   4
ATOM      4  O   UNL     1      10.374   1.310  -1.441  1.00  0.00    -0.481 OA
ATOM      5  H   UNL     1      10.604   1.511  -2.417  1.00  0.00     0.296 HD
ENDBRANCH   2   4
ENDBRANCH   1   2
BRANCH   1   6
ATOM      6  C   UNL     1       7.130  -0.485  -1.587  1.00  0.00     0.047 C 
BRANCH   6   7
ATOM      7  C   UNL     1       6.341   0.333  -0.668  1.00  0.00    -0.047 A 
ATOM      8  C   UNL     1       5.794   1.546  -1.004  1.00  0.00     0.004 A 
ATOM      9  C   UNL     1       6.127  -0.125   0.608  1.00  0.00     0.004 A 
ATOM     10  C   UNL     1       5.054   2.303  -0.127  1.00  0.00     0.000 A 
ATOM     11  C   UNL     1       5.392   0.608   1.512  1.00  0.00     0.000 A 
ATOM     12  C   UNL     1       4.843   1.838   1.153  1.00  0.00     0.000 A 
ENDBRANCH   6   7
ENDBRANCH   1   6
TORSDOF 4
ENDMDL
