@<TRIPOS>MOLECULE
/home/cewinharhar/GITHUB/reincatalyze/data/processed/docking_pred/2023-Apr-25-2140_maxeplen10_maxtrainstep200_exh16_gamma099_lrac3e-4_lrcr1e-3/5be73a077ea639c014f12358d863af943f9e92ef_ligand_2.pdbqt
 12 12 0 0 0
SMALL
GASTEIGER

@<TRIPOS>ATOM
      1  C          8.4170   -0.5990   -2.1890 C.3     1  UNL1        0.1270
      2  C          8.3640   -1.8890   -2.9250 C.2     1  UNL1        0.3030
      3  O          7.2970   -2.4460   -3.2870 O.2     1  UNL1       -0.2520
      4  O          9.5520   -2.5300   -3.2410 O.3     1  UNL1       -0.4810
      5  H          9.9970   -2.2430   -4.1160 H       1  UNL1        0.2960
      6  C          7.0370   -0.0160   -2.1010 C.3     1  UNL1        0.0470
      7  C          6.4990    0.0590   -0.7450 C.2     1  UNL1       -0.0470
      8  C          6.6080   -0.9520    0.1780 C.2     1  UNL1        0.0040
      9  C          5.8430    1.2000   -0.3550 C.2     1  UNL1        0.0040
     10  C          6.0960   -0.8640    1.4510 C.2     1  UNL1        0.0000
     11  C          5.3170    1.3220    0.9110 C.2     1  UNL1        0.0000
     12  C          5.4380    0.2850    1.8340 C.2     1  UNL1        0.0000
@<TRIPOS>BOND
     1     5     4    1
     2     3     2    2
     3     4     2    1
     4     2     1    1
     5     1     6    1
     6     6     7    1
     7     7     9    2
     8     7     8    1
     9     9    11    1
    10     8    10    2
    11    11    12    2
    12    10    12    1
