@<TRIPOS>MOLECULE
/home/cewinharhar/GITHUB/reincatalyze/data/processed/docking_pred/2023-Apr-25-2140_maxeplen10_maxtrainstep200_exh16_gamma099_lrac3e-4_lrcr1e-3/5be73a077ea639c014f12358d863af943f9e92ef_ligand_2.pdbqt
 12 12 0 0 0
SMALL
GASTEIGER

@<TRIPOS>ATOM
      1  C          5.0460    1.7680    0.7200 C.3     1  UNL1        0.1270
      2  C          4.5920    1.0400    1.9330 C.2     1  UNL1        0.3030
      3  O          5.2690    0.1540    2.5140 O.2     1  UNL1       -0.2520
      4  O          3.3500    1.3420    2.4710 O.3     1  UNL1       -0.4810
      5  H          3.2590    1.2270    3.4830 H       1  UNL1        0.2960
      6  C          6.5450    1.8380    0.7120 C.3     1  UNL1        0.0470
      7  C          7.1800    1.0620   -0.3510 C.2     1  UNL1       -0.0470
      8  C          8.5070    1.1710   -0.6880 C.2     1  UNL1        0.0040
      9  C          6.4200    0.1680   -1.0630 C.2     1  UNL1        0.0040
     10  C          9.0890    0.4330   -1.6910 C.2     1  UNL1        0.0000
     11  C          6.9690   -0.5860   -2.0740 C.2     1  UNL1        0.0000
     12  C          8.3190   -0.4620   -2.4020 C.2     1  UNL1        0.0000
@<TRIPOS>BOND
     1    12    11    2
     2    12    10    1
     3    11     9    1
     4    10     8    2
     5     9     7    2
     6     8     7    1
     7     7     6    1
     8     6     1    1
     9     1     2    1
    10     2     4    1
    11     2     3    2
    12     4     5    1
