@<TRIPOS>MOLECULE
/home/cewinharhar/GITHUB/reincatalyze/data/processed/docking_pred/2023-Apr-25-2140_maxeplen10_maxtrainstep200_exh16_gamma099_lrac3e-4_lrcr1e-3/5be73a077ea639c014f12358d863af943f9e92ef_ligand_2.pdbqt
 12 12 0 0 0
SMALL
GASTEIGER

@<TRIPOS>ATOM
      1  C          8.2740   -0.9380   -1.8330 C.3     1  UNL1        0.1270
      2  C          8.4470   -2.0110   -2.8470 C.2     1  UNL1        0.3030
      3  O          9.5570   -2.5180   -3.1490 O.2     1  UNL1       -0.2520
      4  O          7.3280   -2.4940   -3.5080 O.3     1  UNL1       -0.4810
      5  H          6.5690   -1.8250   -3.6540 H       1  UNL1        0.2960
      6  C          7.2640   -1.3720   -0.8130 C.3     1  UNL1        0.0470
      7  C          6.4920   -0.2810   -0.2240 C.2     1  UNL1       -0.0470
      8  C          6.1340    0.8560   -0.9060 C.2     1  UNL1        0.0040
      9  C          6.0940   -0.3820    1.0860 C.2     1  UNL1        0.0040
     10  C          5.4070    1.8750   -0.3370 C.2     1  UNL1        0.0000
     11  C          5.3660    0.6190    1.6870 C.2     1  UNL1        0.0000
     12  C          5.0110    1.7660    0.9790 C.2     1  UNL1        0.0000
@<TRIPOS>BOND
     1     5     4    1
     2     4     2    1
     3     3     2    2
     4     2     1    1
     5     1     6    1
     6     8    10    1
     7     8     7    2
     8     6     7    1
     9    10    12    2
    10     7     9    1
    11    12    11    1
    12     9    11    2
