@<TRIPOS>MOLECULE
/home/cewinharhar/GITHUB/reincatalyze/data/processed/docking_pred/2023-Apr-25-2140_maxeplen10_maxtrainstep200_exh16_gamma099_lrac3e-4_lrcr1e-3/5c54d156b22251270ecdcbd3d684e6dc7dd5ede7_ligand_2.pdbqt
 12 12 0 0 0
SMALL
GASTEIGER

@<TRIPOS>ATOM
      1  C          8.4370   -0.5760   -2.1800 C.3     1  UNL1        0.1270
      2  C          8.5030   -1.8650   -2.9150 C.2     1  UNL1        0.3030
      3  O          9.5610   -2.5220   -3.0860 O.2     1  UNL1       -0.2520
      4  O          7.3370   -2.3910   -3.4510 O.3     1  UNL1       -0.4810
      5  H          6.8910   -1.8370   -4.1860 H       1  UNL1        0.2960
      6  C          7.0220   -0.0780   -2.1690 C.3     1  UNL1        0.0470
      7  C          6.4620    0.1230   -0.8340 C.2     1  UNL1       -0.0470
      8  C          5.7880    1.2560   -0.4510 C.2     1  UNL1        0.0040
      9  C          6.6120   -0.8690    0.1030 C.2     1  UNL1        0.0040
     10  C          5.2680    1.4290    0.8100 C.2     1  UNL1        0.0000
     11  C          6.1050   -0.7290    1.3740 C.2     1  UNL1        0.0000
     12  C          5.4220    0.4290    1.7450 C.2     1  UNL1        0.0000
@<TRIPOS>BOND
     1     5     4    1
     2     4     2    1
     3     3     2    2
     4     2     1    1
     5     1     6    1
     6     6     7    1
     7     7     8    2
     8     7     9    1
     9     8    10    1
    10     9    11    2
    11    10    12    2
    12    11    12    1
