@<TRIPOS>MOLECULE
/home/cewinharhar/GITHUB/reincatalyze/data/processed/docking_pred/2023-Apr-25-2140_maxeplen10_maxtrainstep200_exh16_gamma099_lrac3e-4_lrcr1e-3/5c54d156b22251270ecdcbd3d684e6dc7dd5ede7_ligand_2.pdbqt
 12 12 0 0 0
SMALL
GASTEIGER

@<TRIPOS>ATOM
      1  C          8.5150   -0.5890   -2.2060 C.3     1  UNL1        0.1270
      2  C          8.5480   -1.8990   -2.9070 C.2     1  UNL1        0.3030
      3  O          9.5950   -2.5700   -3.0890 O.2     1  UNL1       -0.2520
      4  O          7.3630   -2.4290   -3.3950 O.3     1  UNL1       -0.4810
      5  H          6.5700   -2.4230   -2.7490 H       1  UNL1        0.2960
      6  C          7.1040   -0.0780   -2.1700 C.3     1  UNL1        0.0470
      7  C          6.5410    0.0460   -0.8280 C.2     1  UNL1       -0.0470
      8  C          6.6330   -0.9310    0.1330 C.2     1  UNL1        0.0040
      9  C          5.8770    1.2000   -0.4920 C.2     1  UNL1        0.0040
     10  C          6.0970   -0.7980    1.3920 C.2     1  UNL1        0.0000
     11  C          5.3280    1.3670    0.7580 C.2     1  UNL1        0.0000
     12  C          5.4320    0.3640    1.7210 C.2     1  UNL1        0.0000
@<TRIPOS>BOND
     1     4     2    1
     2     4     5    1
     3     3     2    2
     4     2     1    1
     5     1     6    1
     6     6     7    1
     7     7     9    2
     8     7     8    1
     9     9    11    1
    10     8    10    2
    11    11    12    2
    12    10    12    1
