@<TRIPOS>MOLECULE
/home/cewinharhar/GITHUB/reincatalyze/data/processed/docking_pred/2023-Apr-25-2140_maxeplen10_maxtrainstep200_exh16_gamma099_lrac3e-4_lrcr1e-3/5c54d156b22251270ecdcbd3d684e6dc7dd5ede7_ligand_2.pdbqt
 12 12 0 0 0
SMALL
GASTEIGER

@<TRIPOS>ATOM
      1  C          8.1790   -0.8970   -1.9130 C.3     1  UNL1        0.1270
      2  C          8.3980   -2.0290   -2.8500 C.2     1  UNL1        0.3030
      3  O          9.5260   -2.5250   -3.0980 O.2     1  UNL1       -0.2520
      4  O          7.3050   -2.5840   -3.4990 O.3     1  UNL1       -0.4810
      5  H          7.1110   -3.5660   -3.2880 H       1  UNL1        0.2960
      6  C          7.2830   -1.3410   -0.7940 C.3     1  UNL1        0.0470
      7  C          6.4950   -0.2690   -0.1900 C.2     1  UNL1       -0.0470
      8  C          6.1470    0.8860   -0.8450 C.2     1  UNL1        0.0040
      9  C          6.0720   -0.4100    1.1090 C.2     1  UNL1        0.0040
     10  C          5.4050    1.8850   -0.2610 C.2     1  UNL1        0.0000
     11  C          5.3290    0.5700    1.7250 C.2     1  UNL1        0.0000
     12  C          4.9840    1.7360    1.0430 C.2     1  UNL1        0.0000
@<TRIPOS>BOND
     1     4     5    1
     2     4     2    1
     3     3     2    2
     4     2     1    1
     5     1     6    1
     6     8    10    1
     7     8     7    2
     8     6     7    1
     9    10    12    2
    10     7     9    1
    11    12    11    1
    12     9    11    2
