@<TRIPOS>MOLECULE
/home/cewinharhar/GITHUB/reincatalyze/data/processed/docking_pred/2023-Apr-25-2140_maxeplen10_maxtrainstep200_exh16_gamma099_lrac3e-4_lrcr1e-3/5c54d156b22251270ecdcbd3d684e6dc7dd5ede7_ligand_2.pdbqt
 12 12 0 0 0
SMALL
GASTEIGER

@<TRIPOS>ATOM
      1  C          4.9770    1.8290    0.7150 C.3     1  UNL1        0.1270
      2  C          4.4850    1.1050    1.9160 C.2     1  UNL1        0.3030
      3  O          5.1170    0.1770    2.4830 O.2     1  UNL1       -0.2520
      4  O          3.2600    1.4610    2.4580 O.3     1  UNL1       -0.4810
      5  H          2.7940    0.7450    3.0200 H       1  UNL1        0.2960
      6  C          6.4760    1.8870    0.7460 C.3     1  UNL1        0.0470
      7  C          7.1320    1.1350   -0.3220 C.2     1  UNL1       -0.0470
      8  C          8.4670    1.2430   -0.6240 C.2     1  UNL1        0.0040
      9  C          6.3830    0.2660   -1.0760 C.2     1  UNL1        0.0040
     10  C          9.0670    0.5270   -1.6330 C.2     1  UNL1        0.0000
     11  C          6.9510   -0.4650   -2.0940 C.2     1  UNL1        0.0000
     12  C          8.3080   -0.3430   -2.3850 C.2     1  UNL1        0.0000
@<TRIPOS>BOND
     1    12    11    2
     2    12    10    1
     3    11     9    1
     4    10     8    2
     5     9     7    2
     6     8     7    1
     7     7     6    1
     8     1     6    1
     9     1     2    1
    10     2     4    1
    11     2     3    2
    12     4     5    1
