@<TRIPOS>MOLECULE
/home/cewinharhar/GITHUB/reincatalyze/data/processed/docking_pred/2023-Apr-25-2140_maxeplen10_maxtrainstep200_exh16_gamma099_lrac3e-4_lrcr1e-3/5c54d156b22251270ecdcbd3d684e6dc7dd5ede7_ligand_2.pdbqt
 12 12 0 0 0
SMALL
GASTEIGER

@<TRIPOS>ATOM
      1  C          8.2980    0.1290   -2.1860 C.3     1  UNL1        0.1270
      2  C          9.4000    0.3150   -1.2070 C.2     1  UNL1        0.3030
      3  O          9.5250   -0.3630   -0.1550 O.2     1  UNL1       -0.2520
      4  O         10.3560    1.2880   -1.4510 O.3     1  UNL1       -0.4810
      5  H         10.7070    1.7880   -0.6300 H       1  UNL1        0.2960
      6  C          7.1660   -0.6070   -1.5310 C.3     1  UNL1        0.0470
      7  C          6.3870    0.1970   -0.5920 C.2     1  UNL1       -0.0470
      8  C          6.1360   -0.1730    0.7060 C.2     1  UNL1        0.0040
      9  C          5.8680    1.3950   -1.0180 C.2     1  UNL1        0.0040
     10  C          5.4000    0.5960    1.5760 C.2     1  UNL1        0.0000
     11  C          5.1270    2.1890   -0.1730 C.2     1  UNL1        0.0000
     12  C          4.8830    1.7970    1.1420 C.2     1  UNL1        0.0000
@<TRIPOS>BOND
     1     1     6    1
     2     1     2    1
     3     6     7    1
     4     4     2    1
     5     4     5    1
     6     2     3    2
     7     9     7    2
     8     9    11    1
     9     7     8    1
    10    11    12    2
    11     8    10    2
    12    12    10    1
