MODEL 1
REMARK VINA RESULT:      -7.4      0.000      0.000
REMARK SMILES O=C(O)CCc1ccccc1
REMARK SMILES IDX 4 1 2 2 1 3 3 4 5 6 6 7 7 8 11 9 8 10 10 11 9 12
REMARK H PARENT 3 5
REMARK Flexibility Score: inf
ROOT
ATOM      1  C   UNL     1       8.515  -0.589  -2.206  1.00  0.00     0.127 C 
ENDROOT
BRANCH   1   2
ATOM      2  C   UNL     1       8.548  -1.899  -2.907  1.00  0.00     0.303 C 
ATOM      3  O   UNL     1       9.595  -2.570  -3.089  1.00  0.00    -0.252 OA
BRANCH   2   4
ATOM      4  O   UNL     1       7.363  -2.429  -3.395  1.00  0.00    -0.481 OA
ATOM      5  H   UNL     1       6.570  -2.423  -2.749  1.00  0.00     0.296 HD
ENDBRANCH   2   4
ENDBRANCH   1   2
BRANCH   1   6
ATOM      6  C   UNL     1       7.104  -0.078  -2.170  1.00  0.00     0.047 C 
BRANCH   6   7
ATOM      7  C   UNL     1       6.541   0.046  -0.828  1.00  0.00    -0.047 A 
ATOM      8  C   UNL     1       6.633  -0.931   0.133  1.00  0.00     0.004 A 
ATOM      9  C   UNL     1       5.877   1.200  -0.492  1.00  0.00     0.004 A 
ATOM     10  C   UNL     1       6.097  -0.798   1.392  1.00  0.00     0.000 A 
ATOM     11  C   UNL     1       5.328   1.367   0.758  1.00  0.00     0.000 A 
ATOM     12  C   UNL     1       5.432   0.364   1.721  1.00  0.00     0.000 A 
ENDBRANCH   6   7
ENDBRANCH   1   6
TORSDOF 4
ENDMDL
MODEL 2
REMARK VINA RESULT:      -7.4      0.083      1.427
REMARK SMILES O=C(O)CCc1ccccc1
REMARK SMILES IDX 4 1 2 2 1 3 3 4 5 6 6 7 7 8 11 9 8 10 10 11 9 12
REMARK H PARENT 3 5
REMARK Flexibility Score: inf
ROOT
ATOM      1  C   UNL     1       8.437  -0.576  -2.180  1.00  0.00     0.127 C 
ENDROOT
BRANCH   1   2
ATOM      2  C   UNL     1       8.503  -1.865  -2.915  1.00  0.00     0.303 C 
ATOM      3  O   UNL     1       9.561  -2.522  -3.086  1.00  0.00    -0.252 OA
BRANCH   2   4
ATOM      4  O   UNL     1       7.337  -2.391  -3.451  1.00  0.00    -0.481 OA
ATOM      5  H   UNL     1       6.891  -1.837  -4.186  1.00  0.00     0.296 HD
ENDBRANCH   2   4
ENDBRANCH   1   2
BRANCH   1   6
ATOM      6  C   UNL     1       7.022  -0.078  -2.169  1.00  0.00     0.047 C 
BRANCH   6   7
ATOM      7  C   UNL     1       6.462   0.123  -0.834  1.00  0.00    -0.047 A 
ATOM      8  C   UNL     1       5.788   1.256  -0.451  1.00  0.00     0.004 A 
ATOM      9  C   UNL     1       6.612  -0.869   0.103  1.00  0.00     0.004 A 
ATOM     10  C   UNL     1       5.268   1.429   0.810  1.00  0.00     0.000 A 
ATOM     11  C   UNL     1       6.105  -0.729   1.374  1.00  0.00     0.000 A 
ATOM     12  C   UNL     1       5.422   0.429   1.745  1.00  0.00     0.000 A 
ENDBRANCH   6   7
ENDBRANCH   1   6
TORSDOF 4
ENDMDL
MODEL 3
REMARK VINA RESULT:      -7.2      0.622      1.613
REMARK SMILES O=C(O)CCc1ccccc1
REMARK SMILES IDX 4 1 2 2 1 3 3 4 5 6 6 7 7 8 11 9 8 10 10 11 9 12
REMARK H PARENT 3 5
REMARK Flexibility Score: inf
ROOT
ATOM      1  C   UNL     1       8.179  -0.897  -1.913  1.00  0.00     0.127 C 
ENDROOT
BRANCH   1   2
ATOM      2  C   UNL     1       8.398  -2.029  -2.850  1.00  0.00     0.303 C 
ATOM      3  O   UNL     1       9.526  -2.525  -3.098  1.00  0.00    -0.252 OA
BRANCH   2   4
ATOM      4  O   UNL     1       7.305  -2.584  -3.499  1.00  0.00    -0.481 OA
ATOM      5  H   UNL     1       7.111  -3.566  -3.288  1.00  0.00     0.296 HD
ENDBRANCH   2   4
ENDBRANCH   1   2
BRANCH   1   6
ATOM      6  C   UNL     1       7.283  -1.341  -0.794  1.00  0.00     0.047 C 
BRANCH   6   7
ATOM      7  C   UNL     1       6.495  -0.269  -0.190  1.00  0.00    -0.047 A 
ATOM      8  C   UNL     1       6.147   0.886  -0.845  1.00  0.00     0.004 A 
ATOM      9  C   UNL     1       6.072  -0.410   1.109  1.00  0.00     0.004 A 
ATOM     10  C   UNL     1       5.405   1.885  -0.261  1.00  0.00     0.000 A 
ATOM     11  C   UNL     1       5.329   0.570   1.725  1.00  0.00     0.000 A 
ATOM     12  C   UNL     1       4.984   1.736   1.043  1.00  0.00     0.000 A 
ENDBRANCH   6   7
ENDBRANCH   1   6
TORSDOF 4
ENDMDL
MODEL 4
REMARK VINA RESULT:      -6.8      3.373      5.088
REMARK SMILES O=C(O)CCc1ccccc1
REMARK SMILES IDX 4 1 2 2 1 3 3 4 5 6 6 7 7 8 11 9 8 10 10 11 9 12
REMARK H PARENT 3 5
REMARK Flexibility Score: inf
ROOT
ATOM      1  C   UNL     1       4.977   1.829   0.715  1.00  0.00     0.127 C 
ENDROOT
BRANCH   1   2
ATOM      2  C   UNL     1       4.485   1.105   1.916  1.00  0.00     0.303 C 
ATOM      3  O   UNL     1       5.117   0.177   2.483  1.00  0.00    -0.252 OA
BRANCH   2   4
ATOM      4  O   UNL     1       3.260   1.461   2.458  1.00  0.00    -0.481 OA
ATOM      5  H   UNL     1       2.794   0.745   3.020  1.00  0.00     0.296 HD
ENDBRANCH   2   4
ENDBRANCH   1   2
BRANCH   1   6
ATOM      6  C   UNL     1       6.476   1.887   0.746  1.00  0.00     0.047 C 
BRANCH   6   7
ATOM      7  C   UNL     1       7.132   1.135  -0.322  1.00  0.00    -0.047 A 
ATOM      8  C   UNL     1       8.467   1.243  -0.624  1.00  0.00     0.004 A 
ATOM      9  C   UNL     1       6.383   0.266  -1.076  1.00  0.00     0.004 A 
ATOM     10  C   UNL     1       9.067   0.527  -1.633  1.00  0.00     0.000 A 
ATOM     11  C   UNL     1       6.951  -0.465  -2.094  1.00  0.00     0.000 A 
ATOM     12  C   UNL     1       8.308  -0.343  -2.385  1.00  0.00     0.000 A 
ENDBRANCH   6   7
ENDBRANCH   1   6
TORSDOF 4
ENDMDL
MODEL 5
REMARK VINA RESULT:      -6.7      1.952      2.299
REMARK SMILES O=C(O)CCc1ccccc1
REMARK SMILES IDX 4 1 2 2 1 3 3 4 5 6 6 7 7 8 11 9 8 10 10 11 9 12
REMARK H PARENT 3 5
REMARK Flexibility Score: inf
ROOT
ATOM      1  C   UNL     1       8.298   0.129  -2.186  1.00  0.00     0.127 C 
ENDROOT
BRANCH   1   2
ATOM      2  C   UNL     1       9.400   0.315  -1.207  1.00  0.00     0.303 C 
ATOM      3  O   UNL     1       9.525  -0.363  -0.155  1.00  0.00    -0.252 OA
BRANCH   2   4
ATOM      4  O   UNL     1      10.356   1.288  -1.451  1.00  0.00    -0.481 OA
ATOM      5  H   UNL     1      10.707   1.788  -0.630  1.00  0.00     0.296 HD
ENDBRANCH   2   4
ENDBRANCH   1   2
BRANCH   1   6
ATOM      6  C   UNL     1       7.166  -0.607  -1.531  1.00  0.00     0.047 C 
BRANCH   6   7
ATOM      7  C   UNL     1       6.387   0.197  -0.592  1.00  0.00    -0.047 A 
ATOM      8  C   UNL     1       6.136  -0.173   0.706  1.00  0.00     0.004 A 
ATOM      9  C   UNL     1       5.868   1.395  -1.018  1.00  0.00     0.004 A 
ATOM     10  C   UNL     1       5.400   0.596   1.576  1.00  0.00     0.000 A 
ATOM     11  C   UNL     1       5.127   2.189  -0.173  1.00  0.00     0.000 A 
ATOM     12  C   UNL     1       4.883   1.797   1.142  1.00  0.00     0.000 A 
ENDBRANCH   6   7
ENDBRANCH   1   6
TORSDOF 4
ENDMDL
