MODEL 1
REMARK VINA RESULT:      -7.4      0.000      0.000
REMARK SMILES O=C(O)CCc1ccccc1
REMARK SMILES IDX 4 1 2 2 1 3 3 4 5 6 6 7 7 8 11 9 8 10 10 11 9 12
REMARK H PARENT 3 5
REMARK Flexibility Score: inf
ROOT
ATOM      1  C   UNL     1       8.445  -0.597  -2.173  1.00  0.00     0.127 C 
ENDROOT
BRANCH   1   2
ATOM      2  C   UNL     1       8.517  -1.885  -2.912  1.00  0.00     0.303 C 
ATOM      3  O   UNL     1       9.582  -2.523  -3.108  1.00  0.00    -0.252 OA
BRANCH   2   4
ATOM      4  O   UNL     1       7.348  -2.432  -3.421  1.00  0.00    -0.481 OA
ATOM      5  H   UNL     1       6.547  -2.447  -2.787  1.00  0.00     0.296 HD
ENDBRANCH   2   4
ENDBRANCH   1   2
BRANCH   1   6
ATOM      6  C   UNL     1       7.026  -0.110  -2.156  1.00  0.00     0.047 C 
BRANCH   6   7
ATOM      7  C   UNL     1       6.470   0.084  -0.818  1.00  0.00    -0.047 A 
ATOM      8  C   UNL     1       5.834   1.231  -0.414  1.00  0.00     0.004 A 
ATOM      9  C   UNL     1       6.583  -0.932   0.099  1.00  0.00     0.004 A 
ATOM     10  C   UNL     1       5.317   1.397   0.849  1.00  0.00     0.000 A 
ATOM     11  C   UNL     1       6.078  -0.800   1.372  1.00  0.00     0.000 A 
ATOM     12  C   UNL     1       5.435   0.373   1.764  1.00  0.00     0.000 A 
ENDBRANCH   6   7
ENDBRANCH   1   6
TORSDOF 4
ENDMDL
MODEL 2
REMARK VINA RESULT:      -7.4      0.055      1.427
REMARK SMILES O=C(O)CCc1ccccc1
REMARK SMILES IDX 4 1 2 2 1 3 3 4 5 6 6 7 7 8 11 9 8 10 10 11 9 12
REMARK H PARENT 3 5
REMARK Flexibility Score: inf
ROOT
ATOM      1  C   UNL     1       8.447  -0.544  -2.234  1.00  0.00     0.127 C 
ENDROOT
BRANCH   1   2
ATOM      2  C   UNL     1       8.495  -1.867  -2.909  1.00  0.00     0.303 C 
ATOM      3  O   UNL     1       9.550  -2.529  -3.081  1.00  0.00    -0.252 OA
BRANCH   2   4
ATOM      4  O   UNL     1       7.316  -2.420  -3.385  1.00  0.00    -0.481 OA
ATOM      5  H   UNL     1       6.810  -3.026  -2.734  1.00  0.00     0.296 HD
ENDBRANCH   2   4
ENDBRANCH   1   2
BRANCH   1   6
ATOM      6  C   UNL     1       7.024  -0.074  -2.157  1.00  0.00     0.047 C 
BRANCH   6   7
ATOM      7  C   UNL     1       6.496   0.033  -0.799  1.00  0.00    -0.047 A 
ATOM      8  C   UNL     1       6.594  -0.965   0.140  1.00  0.00     0.004 A 
ATOM      9  C   UNL     1       5.862   1.191  -0.424  1.00  0.00     0.004 A 
ATOM     10  C   UNL     1       6.091  -0.848   1.413  1.00  0.00     0.000 A 
ATOM     11  C   UNL     1       5.346   1.342   0.843  1.00  0.00     0.000 A 
ATOM     12  C   UNL     1       5.455   0.318   1.782  1.00  0.00     0.000 A 
ENDBRANCH   6   7
ENDBRANCH   1   6
TORSDOF 4
ENDMDL
MODEL 3
REMARK VINA RESULT:      -7.3      0.619      1.075
REMARK SMILES O=C(O)CCc1ccccc1
REMARK SMILES IDX 4 1 2 2 1 3 3 4 5 6 6 7 7 8 11 9 8 10 10 11 9 12
REMARK H PARENT 3 5
REMARK Flexibility Score: inf
ROOT
ATOM      1  C   UNL     1       8.188  -0.841  -1.949  1.00  0.00     0.127 C 
ENDROOT
BRANCH   1   2
ATOM      2  C   UNL     1       8.428  -1.978  -2.875  1.00  0.00     0.303 C 
ATOM      3  O   UNL     1       9.567  -2.443  -3.135  1.00  0.00    -0.252 OA
BRANCH   2   4
ATOM      4  O   UNL     1       7.343  -2.576  -3.498  1.00  0.00    -0.481 OA
ATOM      5  H   UNL     1       7.209  -2.345  -4.485  1.00  0.00     0.296 HD
ENDBRANCH   2   4
ENDBRANCH   1   2
BRANCH   1   6
ATOM      6  C   UNL     1       7.315  -1.294  -0.816  1.00  0.00     0.047 C 
BRANCH   6   7
ATOM      7  C   UNL     1       6.512  -0.235  -0.211  1.00  0.00    -0.047 A 
ATOM      8  C   UNL     1       6.119   0.901  -0.876  1.00  0.00     0.004 A 
ATOM      9  C   UNL     1       6.120  -0.366   1.098  1.00  0.00     0.004 A 
ATOM     10  C   UNL     1       5.363   1.889  -0.291  1.00  0.00     0.000 A 
ATOM     11  C   UNL     1       5.363   0.603   1.716  1.00  0.00     0.000 A 
ATOM     12  C   UNL     1       4.973   1.749   1.024  1.00  0.00     0.000 A 
ENDBRANCH   6   7
ENDBRANCH   1   6
TORSDOF 4
ENDMDL
MODEL 4
REMARK VINA RESULT:      -6.8      3.369      5.088
REMARK SMILES O=C(O)CCc1ccccc1
REMARK SMILES IDX 4 1 2 2 1 3 3 4 5 6 6 7 7 8 11 9 8 10 10 11 9 12
REMARK H PARENT 3 5
REMARK Flexibility Score: inf
ROOT
ATOM      1  C   UNL     1       5.015   1.804   0.706  1.00  0.00     0.127 C 
ENDROOT
BRANCH   1   2
ATOM      2  C   UNL     1       4.518   1.094   1.914  1.00  0.00     0.303 C 
ATOM      3  O   UNL     1       5.151   0.180   2.500  1.00  0.00    -0.252 OA
BRANCH   2   4
ATOM      4  O   UNL     1       3.284   1.449   2.440  1.00  0.00    -0.481 OA
ATOM      5  H   UNL     1       2.781   2.187   1.943  1.00  0.00     0.296 HD
ENDBRANCH   2   4
ENDBRANCH   1   2
BRANCH   1   6
ATOM      6  C   UNL     1       6.515   1.800   0.706  1.00  0.00     0.047 C 
BRANCH   6   7
ATOM      7  C   UNL     1       7.117   1.011  -0.366  1.00  0.00    -0.047 A 
ATOM      8  C   UNL     1       6.432   0.080  -1.107  1.00  0.00     0.004 A 
ATOM      9  C   UNL     1       8.444   1.200  -0.663  1.00  0.00     0.004 A 
ATOM     10  C   UNL     1       7.014  -0.654  -2.113  1.00  0.00     0.000 A 
ATOM     11  C   UNL     1       9.059   0.482  -1.663  1.00  0.00     0.000 A 
ATOM     12  C   UNL     1       8.346  -0.459  -2.404  1.00  0.00     0.000 A 
ENDBRANCH   6   7
ENDBRANCH   1   6
TORSDOF 4
ENDMDL
MODEL 5
REMARK VINA RESULT:      -6.7      1.948      2.641
REMARK SMILES O=C(O)CCc1ccccc1
REMARK SMILES IDX 4 1 2 2 1 3 3 4 5 6 6 7 7 8 11 9 8 10 10 11 9 12
REMARK H PARENT 3 5
REMARK Flexibility Score: inf
ROOT
ATOM      1  C   UNL     1       8.312   0.162  -2.188  1.00  0.00     0.127 C 
ENDROOT
BRANCH   1   2
ATOM      2  C   UNL     1       9.404   0.321  -1.192  1.00  0.00     0.303 C 
ATOM      3  O   UNL     1       9.510  -0.374  -0.150  1.00  0.00    -0.252 OA
BRANCH   2   4
ATOM      4  O   UNL     1      10.373   1.289  -1.409  1.00  0.00    -0.481 OA
ATOM      5  H   UNL     1      11.240   0.966  -1.844  1.00  0.00     0.296 HD
ENDBRANCH   2   4
ENDBRANCH   1   2
BRANCH   1   6
ATOM      6  C   UNL     1       7.170  -0.583  -1.562  1.00  0.00     0.047 C 
BRANCH   6   7
ATOM      7  C   UNL     1       6.390   0.199  -0.606  1.00  0.00    -0.047 A 
ATOM      8  C   UNL     1       6.138  -0.201   0.684  1.00  0.00     0.004 A 
ATOM      9  C   UNL     1       5.870   1.405  -1.005  1.00  0.00     0.004 A 
ATOM     10  C   UNL     1       5.401   0.548   1.570  1.00  0.00     0.000 A 
ATOM     11  C   UNL     1       5.127   2.180  -0.144  1.00  0.00     0.000 A 
ATOM     12  C   UNL     1       4.883   1.758   1.162  1.00  0.00     0.000 A 
ENDBRANCH   6   7
ENDBRANCH   1   6
TORSDOF 4
ENDMDL
