@<TRIPOS>MOLECULE
/home/cewinharhar/GITHUB/reincatalyze/data/processed/docking_pred/2023-Apr-25-2140_maxeplen10_maxtrainstep200_exh16_gamma099_lrac3e-4_lrcr1e-3/5e677739909452415bd62a3bb65a8cc9d063ea2f_ligand_2.pdbqt
 12 12 0 0 0
SMALL
GASTEIGER

@<TRIPOS>ATOM
      1  C          8.3120    0.1620   -2.1880 C.3     1  UNL1        0.1270
      2  C          9.4040    0.3210   -1.1920 C.2     1  UNL1        0.3030
      3  O          9.5100   -0.3740   -0.1500 O.2     1  UNL1       -0.2520
      4  O         10.3730    1.2890   -1.4090 O.3     1  UNL1       -0.4810
      5  H         11.2400    0.9660   -1.8440 H       1  UNL1        0.2960
      6  C          7.1700   -0.5830   -1.5620 C.3     1  UNL1        0.0470
      7  C          6.3900    0.1990   -0.6060 C.2     1  UNL1       -0.0470
      8  C          6.1380   -0.2010    0.6840 C.2     1  UNL1        0.0040
      9  C          5.8700    1.4050   -1.0050 C.2     1  UNL1        0.0040
     10  C          5.4010    0.5480    1.5700 C.2     1  UNL1        0.0000
     11  C          5.1270    2.1800   -0.1440 C.2     1  UNL1        0.0000
     12  C          4.8830    1.7580    1.1620 C.2     1  UNL1        0.0000
@<TRIPOS>BOND
     1     1     6    1
     2     1     2    1
     3     5     4    1
     4     6     7    1
     5     4     2    1
     6     2     3    2
     7     9     7    2
     8     9    11    1
     9     7     8    1
    10    11    12    2
    11     8    10    2
    12    12    10    1
