@<TRIPOS>MOLECULE
/home/cewinharhar/GITHUB/reincatalyze/data/processed/docking_pred/2023-Apr-25-2140_maxeplen10_maxtrainstep200_exh16_gamma099_lrac3e-4_lrcr1e-3/5e677739909452415bd62a3bb65a8cc9d063ea2f_ligand_2.pdbqt
 12 12 0 0 0
SMALL
GASTEIGER

@<TRIPOS>ATOM
      1  C          5.0150    1.8040    0.7060 C.3     1  UNL1        0.1270
      2  C          4.5180    1.0940    1.9140 C.2     1  UNL1        0.3030
      3  O          5.1510    0.1800    2.5000 O.2     1  UNL1       -0.2520
      4  O          3.2840    1.4490    2.4400 O.3     1  UNL1       -0.4810
      5  H          2.7810    2.1870    1.9430 H       1  UNL1        0.2960
      6  C          6.5150    1.8000    0.7060 C.3     1  UNL1        0.0470
      7  C          7.1170    1.0110   -0.3660 C.2     1  UNL1       -0.0470
      8  C          6.4320    0.0800   -1.1070 C.2     1  UNL1        0.0040
      9  C          8.4440    1.2000   -0.6630 C.2     1  UNL1        0.0040
     10  C          7.0140   -0.6540   -2.1130 C.2     1  UNL1        0.0000
     11  C          9.0590    0.4820   -1.6630 C.2     1  UNL1        0.0000
     12  C          8.3460   -0.4590   -2.4040 C.2     1  UNL1        0.0000
@<TRIPOS>BOND
     1    12    10    2
     2    12    11    1
     3    10     8    1
     4    11     9    2
     5     8     7    2
     6     9     7    1
     7     7     6    1
     8     1     6    1
     9     1     2    1
    10     2     4    1
    11     2     3    2
    12     5     4    1
