@<TRIPOS>MOLECULE
/home/cewinharhar/GITHUB/reincatalyze/data/processed/docking_pred/2023-Apr-25-2140_maxeplen10_maxtrainstep200_exh16_gamma099_lrac3e-4_lrcr1e-3/5e677739909452415bd62a3bb65a8cc9d063ea2f_ligand_2.pdbqt
 12 12 0 0 0
SMALL
GASTEIGER

@<TRIPOS>ATOM
      1  C          8.4450   -0.5970   -2.1730 C.3     1  UNL1        0.1270
      2  C          8.5170   -1.8850   -2.9120 C.2     1  UNL1        0.3030
      3  O          9.5820   -2.5230   -3.1080 O.2     1  UNL1       -0.2520
      4  O          7.3480   -2.4320   -3.4210 O.3     1  UNL1       -0.4810
      5  H          6.5470   -2.4470   -2.7870 H       1  UNL1        0.2960
      6  C          7.0260   -0.1100   -2.1560 C.3     1  UNL1        0.0470
      7  C          6.4700    0.0840   -0.8180 C.2     1  UNL1       -0.0470
      8  C          5.8340    1.2310   -0.4140 C.2     1  UNL1        0.0040
      9  C          6.5830   -0.9320    0.0990 C.2     1  UNL1        0.0040
     10  C          5.3170    1.3970    0.8490 C.2     1  UNL1        0.0000
     11  C          6.0780   -0.8000    1.3720 C.2     1  UNL1        0.0000
     12  C          5.4350    0.3730    1.7640 C.2     1  UNL1        0.0000
@<TRIPOS>BOND
     1     4     2    1
     2     4     5    1
     3     3     2    2
     4     2     1    1
     5     1     6    1
     6     6     7    1
     7     7     8    2
     8     7     9    1
     9     8    10    1
    10     9    11    2
    11    10    12    2
    12    11    12    1
