@<TRIPOS>MOLECULE
/home/cewinharhar/GITHUB/reincatalyze/data/processed/docking_pred/2023-Apr-25-2140_maxeplen10_maxtrainstep200_exh16_gamma099_lrac3e-4_lrcr1e-3/5e677739909452415bd62a3bb65a8cc9d063ea2f_ligand_2.pdbqt
 12 12 0 0 0
SMALL
GASTEIGER

@<TRIPOS>ATOM
      1  C          8.1880   -0.8410   -1.9490 C.3     1  UNL1        0.1270
      2  C          8.4280   -1.9780   -2.8750 C.2     1  UNL1        0.3030
      3  O          9.5670   -2.4430   -3.1350 O.2     1  UNL1       -0.2520
      4  O          7.3430   -2.5760   -3.4980 O.3     1  UNL1       -0.4810
      5  H          7.2090   -2.3450   -4.4850 H       1  UNL1        0.2960
      6  C          7.3150   -1.2940   -0.8160 C.3     1  UNL1        0.0470
      7  C          6.5120   -0.2350   -0.2110 C.2     1  UNL1       -0.0470
      8  C          6.1190    0.9010   -0.8760 C.2     1  UNL1        0.0040
      9  C          6.1200   -0.3660    1.0980 C.2     1  UNL1        0.0040
     10  C          5.3630    1.8890   -0.2910 C.2     1  UNL1        0.0000
     11  C          5.3630    0.6030    1.7160 C.2     1  UNL1        0.0000
     12  C          4.9730    1.7490    1.0240 C.2     1  UNL1        0.0000
@<TRIPOS>BOND
     1     5     4    1
     2     4     2    1
     3     3     2    2
     4     2     1    1
     5     1     6    1
     6     8    10    1
     7     8     7    2
     8     6     7    1
     9    10    12    2
    10     7     9    1
    11    12    11    1
    12     9    11    2
