@<TRIPOS>MOLECULE
/home/cewinharhar/GITHUB/reincatalyze/data/processed/docking_pred/2023-Apr-25-2140_maxeplen10_maxtrainstep200_exh16_gamma099_lrac3e-4_lrcr1e-3/5e677739909452415bd62a3bb65a8cc9d063ea2f_ligand_2.pdbqt
 12 12 0 0 0
SMALL
GASTEIGER

@<TRIPOS>ATOM
      1  C          8.4470   -0.5440   -2.2340 C.3     1  UNL1        0.1270
      2  C          8.4950   -1.8670   -2.9090 C.2     1  UNL1        0.3030
      3  O          9.5500   -2.5290   -3.0810 O.2     1  UNL1       -0.2520
      4  O          7.3160   -2.4200   -3.3850 O.3     1  UNL1       -0.4810
      5  H          6.8100   -3.0260   -2.7340 H       1  UNL1        0.2960
      6  C          7.0240   -0.0740   -2.1570 C.3     1  UNL1        0.0470
      7  C          6.4960    0.0330   -0.7990 C.2     1  UNL1       -0.0470
      8  C          6.5940   -0.9650    0.1400 C.2     1  UNL1        0.0040
      9  C          5.8620    1.1910   -0.4240 C.2     1  UNL1        0.0040
     10  C          6.0910   -0.8480    1.4130 C.2     1  UNL1        0.0000
     11  C          5.3460    1.3420    0.8430 C.2     1  UNL1        0.0000
     12  C          5.4550    0.3180    1.7820 C.2     1  UNL1        0.0000
@<TRIPOS>BOND
     1     4     2    1
     2     4     5    1
     3     3     2    2
     4     2     1    1
     5     1     6    1
     6     6     7    1
     7     7     9    2
     8     7     8    1
     9     9    11    1
    10     8    10    2
    11    11    12    2
    12    10    12    1
