@<TRIPOS>MOLECULE
/home/cewinharhar/GITHUB/reincatalyze/data/processed/docking_pred/2023-Apr-25-2140_maxeplen10_maxtrainstep200_exh16_gamma099_lrac3e-4_lrcr1e-3/5f00cdda1ab61f28c1ea6d7129614616e9231d70_ligand_2.pdbqt
 12 12 0 0 0
SMALL
GASTEIGER

@<TRIPOS>ATOM
      1  C          8.3930   -0.3830   -2.1710 C.3     1  UNL1        0.1270
      2  C          8.4900   -1.7080   -2.8360 C.2     1  UNL1        0.3030
      3  O          9.5700   -2.3270   -3.0100 O.2     1  UNL1       -0.2520
      4  O          7.3310   -2.3140   -3.2970 O.3     1  UNL1       -0.4810
      5  H          6.8210   -2.8810   -2.6160 H       1  UNL1        0.2960
      6  C          6.9540    0.0340   -2.0950 C.3     1  UNL1        0.0470
      7  C          6.4230    0.1300   -0.7370 C.2     1  UNL1       -0.0470
      8  C          6.5420   -0.8650    0.2020 C.2     1  UNL1        0.0040
      9  C          5.7640    1.2750   -0.3630 C.2     1  UNL1        0.0040
     10  C          6.0360   -0.7570    1.4750 C.2     1  UNL1        0.0000
     11  C          5.2450    1.4160    0.9030 C.2     1  UNL1        0.0000
     12  C          5.3760    0.3950    1.8430 C.2     1  UNL1        0.0000
@<TRIPOS>BOND
     1     4     2    1
     2     4     5    1
     3     3     2    2
     4     2     1    1
     5     1     6    1
     6     6     7    1
     7     7     9    2
     8     7     8    1
     9     9    11    1
    10     8    10    2
    11    11    12    2
    12    10    12    1
