MODEL 1
REMARK VINA RESULT:      -6.7      0.000      0.000
REMARK SMILES O=C(O)CCc1ccccc1
REMARK SMILES IDX 4 1 2 2 1 3 3 4 5 6 6 7 7 8 11 9 8 10 10 11 9 12
REMARK H PARENT 3 5
REMARK Flexibility Score: inf
ROOT
ATOM      1  C   UNL     1       4.985   1.769   0.691  1.00  0.00     0.127 C 
ENDROOT
BRANCH   1   2
ATOM      2  C   UNL     1       4.483   1.091   1.915  1.00  0.00     0.303 C 
ATOM      3  O   UNL     1       5.106   0.180   2.517  1.00  0.00    -0.252 OA
BRANCH   2   4
ATOM      4  O   UNL     1       3.258   1.473   2.439  1.00  0.00    -0.481 OA
ATOM      5  H   UNL     1       3.029   2.467   2.365  1.00  0.00     0.296 HD
ENDBRANCH   2   4
ENDBRANCH   1   2
BRANCH   1   6
ATOM      6  C   UNL     1       6.484   1.823   0.728  1.00  0.00     0.047 C 
BRANCH   6   7
ATOM      7  C   UNL     1       7.141   1.064  -0.333  1.00  0.00    -0.047 A 
ATOM      8  C   UNL     1       8.456   1.234  -0.691  1.00  0.00     0.004 A 
ATOM      9  C   UNL     1       6.416   0.125  -1.023  1.00  0.00     0.004 A 
ATOM     10  C   UNL     1       9.059   0.511  -1.693  1.00  0.00     0.000 A 
ATOM     11  C   UNL     1       6.988  -0.616  -2.032  1.00  0.00     0.000 A 
ATOM     12  C   UNL     1       8.325  -0.430  -2.381  1.00  0.00     0.000 A 
ENDBRANCH   6   7
ENDBRANCH   1   6
TORSDOF 4
ENDMDL
MODEL 2
REMARK VINA RESULT:      -6.7      0.056      1.426
REMARK SMILES O=C(O)CCc1ccccc1
REMARK SMILES IDX 4 1 2 2 1 3 3 4 5 6 6 7 7 8 11 9 8 10 10 11 9 12
REMARK H PARENT 3 5
REMARK Flexibility Score: inf
ROOT
ATOM      1  C   UNL     1       4.987   1.797   0.687  1.00  0.00     0.127 C 
ENDROOT
BRANCH   1   2
ATOM      2  C   UNL     1       4.502   1.099   1.906  1.00  0.00     0.303 C 
ATOM      3  O   UNL     1       5.140   0.189   2.493  1.00  0.00    -0.252 OA
BRANCH   2   4
ATOM      4  O   UNL     1       3.275   1.460   2.441  1.00  0.00    -0.481 OA
ATOM      5  H   UNL     1       3.189   1.382   3.457  1.00  0.00     0.296 HD
ENDBRANCH   2   4
ENDBRANCH   1   2
BRANCH   1   6
ATOM      6  C   UNL     1       6.488   1.826   0.692  1.00  0.00     0.047 C 
BRANCH   6   7
ATOM      7  C   UNL     1       7.110   1.034  -0.367  1.00  0.00    -0.047 A 
ATOM      8  C   UNL     1       6.443   0.091  -1.109  1.00  0.00     0.004 A 
ATOM      9  C   UNL     1       8.439   1.233  -0.648  1.00  0.00     0.004 A 
ATOM     10  C   UNL     1       7.045  -0.645  -2.102  1.00  0.00     0.000 A 
ATOM     11  C   UNL     1       9.074   0.514  -1.634  1.00  0.00     0.000 A 
ATOM     12  C   UNL     1       8.379  -0.440  -2.378  1.00  0.00     0.000 A 
ENDBRANCH   6   7
ENDBRANCH   1   6
TORSDOF 4
ENDMDL
MODEL 3
REMARK VINA RESULT:      -6.7      3.309      5.039
REMARK SMILES O=C(O)CCc1ccccc1
REMARK SMILES IDX 4 1 2 2 1 3 3 4 5 6 6 7 7 8 11 9 8 10 10 11 9 12
REMARK H PARENT 3 5
REMARK Flexibility Score: inf
ROOT
ATOM      1  C   UNL     1       8.393  -0.383  -2.171  1.00  0.00     0.127 C 
ENDROOT
BRANCH   1   2
ATOM      2  C   UNL     1       8.490  -1.708  -2.836  1.00  0.00     0.303 C 
ATOM      3  O   UNL     1       9.570  -2.327  -3.010  1.00  0.00    -0.252 OA
BRANCH   2   4
ATOM      4  O   UNL     1       7.331  -2.314  -3.297  1.00  0.00    -0.481 OA
ATOM      5  H   UNL     1       6.821  -2.881  -2.616  1.00  0.00     0.296 HD
ENDBRANCH   2   4
ENDBRANCH   1   2
BRANCH   1   6
ATOM      6  C   UNL     1       6.954   0.034  -2.095  1.00  0.00     0.047 C 
BRANCH   6   7
ATOM      7  C   UNL     1       6.423   0.130  -0.737  1.00  0.00    -0.047 A 
ATOM      8  C   UNL     1       6.542  -0.865   0.202  1.00  0.00     0.004 A 
ATOM      9  C   UNL     1       5.764   1.275  -0.363  1.00  0.00     0.004 A 
ATOM     10  C   UNL     1       6.036  -0.757   1.475  1.00  0.00     0.000 A 
ATOM     11  C   UNL     1       5.245   1.416   0.903  1.00  0.00     0.000 A 
ATOM     12  C   UNL     1       5.376   0.395   1.843  1.00  0.00     0.000 A 
ENDBRANCH   6   7
ENDBRANCH   1   6
TORSDOF 4
ENDMDL
MODEL 4
REMARK VINA RESULT:      -6.6      2.633      3.319
REMARK SMILES O=C(O)CCc1ccccc1
REMARK SMILES IDX 4 1 2 2 1 3 3 4 5 6 6 7 7 8 11 9 8 10 10 11 9 12
REMARK H PARENT 3 5
REMARK Flexibility Score: inf
ROOT
ATOM      1  C   UNL     1       5.419   2.898  -0.002  1.00  0.00     0.127 C 
ENDROOT
BRANCH   1   2
ATOM      2  C   UNL     1       6.238   3.863   0.777  1.00  0.00     0.303 C 
ATOM      3  O   UNL     1       6.931   4.774   0.257  1.00  0.00    -0.252 OA
BRANCH   2   4
ATOM      4  O   UNL     1       6.251   3.769   2.160  1.00  0.00    -0.481 OA
ATOM      5  H   UNL     1       7.087   3.352   2.574  1.00  0.00     0.296 HD
ENDBRANCH   2   4
ENDBRANCH   1   2
BRANCH   1   6
ATOM      6  C   UNL     1       4.903   1.828   0.915  1.00  0.00     0.047 C 
BRANCH   6   7
ATOM      7  C   UNL     1       5.697   0.601   0.918  1.00  0.00    -0.047 A 
ATOM      8  C   UNL     1       6.382   0.131  -0.175  1.00  0.00     0.004 A 
ATOM      9  C   UNL     1       5.772  -0.136   2.074  1.00  0.00     0.004 A 
ATOM     10  C   UNL     1       7.124  -1.026  -0.154  1.00  0.00     0.000 A 
ATOM     11  C   UNL     1       6.505  -1.299   2.130  1.00  0.00     0.000 A 
ATOM     12  C   UNL     1       7.194  -1.760   1.010  1.00  0.00     0.000 A 
ENDBRANCH   6   7
ENDBRANCH   1   6
TORSDOF 4
ENDMDL
MODEL 5
REMARK VINA RESULT:      -6.6      3.642      5.282
REMARK SMILES O=C(O)CCc1ccccc1
REMARK SMILES IDX 4 1 2 2 1 3 3 4 5 6 6 7 7 8 11 9 8 10 10 11 9 12
REMARK H PARENT 3 5
REMARK Flexibility Score: inf
ROOT
ATOM      1  C   UNL     1       8.122  -0.948  -2.238  1.00  0.00     0.127 C 
ENDROOT
BRANCH   1   2
ATOM      2  C   UNL     1       8.489  -2.120  -3.075  1.00  0.00     0.303 C 
ATOM      3  O   UNL     1       7.660  -2.807  -3.723  1.00  0.00    -0.252 OA
BRANCH   2   4
ATOM      4  O   UNL     1       9.823  -2.492  -3.158  1.00  0.00    -0.481 OA
ATOM      5  H   UNL     1      10.469  -1.772  -3.489  1.00  0.00     0.296 HD
ENDBRANCH   2   4
ENDBRANCH   1   2
BRANCH   1   6
ATOM      6  C   UNL     1       7.374  -1.417  -1.024  1.00  0.00     0.047 C 
BRANCH   6   7
ATOM      7  C   UNL     1       6.599  -0.376  -0.353  1.00  0.00    -0.047 A 
ATOM      8  C   UNL     1       6.203   0.791  -0.958  1.00  0.00     0.004 A 
ATOM      9  C   UNL     1       6.238  -0.561   0.959  1.00  0.00     0.004 A 
ATOM     10  C   UNL     1       5.473   1.760  -0.312  1.00  0.00     0.000 A 
ATOM     11  C   UNL     1       5.508   0.388   1.636  1.00  0.00     0.000 A 
ATOM     12  C   UNL     1       5.114   1.567   1.005  1.00  0.00     0.000 A 
ENDBRANCH   6   7
ENDBRANCH   1   6
TORSDOF 4
ENDMDL
