@<TRIPOS>MOLECULE
/home/cewinharhar/GITHUB/reincatalyze/data/processed/docking_pred/2023-Apr-25-2140_maxeplen10_maxtrainstep200_exh16_gamma099_lrac3e-4_lrcr1e-3/5f00cdda1ab61f28c1ea6d7129614616e9231d70_ligand_2.pdbqt
 12 12 0 0 0
SMALL
GASTEIGER

@<TRIPOS>ATOM
      1  C          5.4190    2.8980   -0.0020 C.3     1  UNL1        0.1270
      2  C          6.2380    3.8630    0.7770 C.2     1  UNL1        0.3030
      3  O          6.9310    4.7740    0.2570 O.2     1  UNL1       -0.2520
      4  O          6.2510    3.7690    2.1600 O.3     1  UNL1       -0.4810
      5  H          7.0870    3.3520    2.5740 H       1  UNL1        0.2960
      6  C          4.9030    1.8280    0.9150 C.3     1  UNL1        0.0470
      7  C          5.6970    0.6010    0.9180 C.2     1  UNL1       -0.0470
      8  C          6.3820    0.1310   -0.1750 C.2     1  UNL1        0.0040
      9  C          5.7720   -0.1360    2.0740 C.2     1  UNL1        0.0040
     10  C          7.1240   -1.0260   -0.1540 C.2     1  UNL1        0.0000
     11  C          6.5050   -1.2990    2.1300 C.2     1  UNL1        0.0000
     12  C          7.1940   -1.7600    1.0100 C.2     1  UNL1        0.0000
@<TRIPOS>BOND
     1     8    10    1
     2     8     7    2
     3    10    12    2
     4     1     2    1
     5     1     6    1
     6     3     2    2
     7     2     4    1
     8     6     7    1
     9     7     9    1
    10    12    11    1
    11     9    11    2
    12     4     5    1
