@<TRIPOS>MOLECULE
/home/cewinharhar/GITHUB/reincatalyze/data/processed/docking_pred/2023-Apr-25-2140_maxeplen10_maxtrainstep200_exh16_gamma099_lrac3e-4_lrcr1e-3/5f00cdda1ab61f28c1ea6d7129614616e9231d70_ligand_2.pdbqt
 12 12 0 0 0
SMALL
GASTEIGER

@<TRIPOS>ATOM
      1  C          8.1220   -0.9480   -2.2380 C.3     1  UNL1        0.1270
      2  C          8.4890   -2.1200   -3.0750 C.2     1  UNL1        0.3030
      3  O          7.6600   -2.8070   -3.7230 O.2     1  UNL1       -0.2520
      4  O          9.8230   -2.4920   -3.1580 O.3     1  UNL1       -0.4810
      5  H         10.4690   -1.7720   -3.4890 H       1  UNL1        0.2960
      6  C          7.3740   -1.4170   -1.0240 C.3     1  UNL1        0.0470
      7  C          6.5990   -0.3760   -0.3530 C.2     1  UNL1       -0.0470
      8  C          6.2030    0.7910   -0.9580 C.2     1  UNL1        0.0040
      9  C          6.2380   -0.5610    0.9590 C.2     1  UNL1        0.0040
     10  C          5.4730    1.7600   -0.3120 C.2     1  UNL1        0.0000
     11  C          5.5080    0.3880    1.6360 C.2     1  UNL1        0.0000
     12  C          5.1140    1.5670    1.0050 C.2     1  UNL1        0.0000
@<TRIPOS>BOND
     1     3     2    2
     2     5     4    1
     3     4     2    1
     4     2     1    1
     5     1     6    1
     6     6     7    1
     7     8     7    2
     8     8    10    1
     9     7     9    1
    10    10    12    2
    11     9    11    2
    12    12    11    1
