@<TRIPOS>MOLECULE
/home/cewinharhar/GITHUB/reincatalyze/data/processed/docking_pred/2023-Apr-25-2140_maxeplen10_maxtrainstep200_exh16_gamma099_lrac3e-4_lrcr1e-3/5f00cdda1ab61f28c1ea6d7129614616e9231d70_ligand_2.pdbqt
 12 12 0 0 0
SMALL
GASTEIGER

@<TRIPOS>ATOM
      1  C          4.9870    1.7970    0.6870 C.3     1  UNL1        0.1270
      2  C          4.5020    1.0990    1.9060 C.2     1  UNL1        0.3030
      3  O          5.1400    0.1890    2.4930 O.2     1  UNL1       -0.2520
      4  O          3.2750    1.4600    2.4410 O.3     1  UNL1       -0.4810
      5  H          3.1890    1.3820    3.4570 H       1  UNL1        0.2960
      6  C          6.4880    1.8260    0.6920 C.3     1  UNL1        0.0470
      7  C          7.1100    1.0340   -0.3670 C.2     1  UNL1       -0.0470
      8  C          6.4430    0.0910   -1.1090 C.2     1  UNL1        0.0040
      9  C          8.4390    1.2330   -0.6480 C.2     1  UNL1        0.0040
     10  C          7.0450   -0.6450   -2.1020 C.2     1  UNL1        0.0000
     11  C          9.0740    0.5140   -1.6340 C.2     1  UNL1        0.0000
     12  C          8.3790   -0.4400   -2.3780 C.2     1  UNL1        0.0000
@<TRIPOS>BOND
     1    12    10    2
     2    12    11    1
     3    10     8    1
     4    11     9    2
     5     8     7    2
     6     9     7    1
     7     7     6    1
     8     1     6    1
     9     1     2    1
    10     2     4    1
    11     2     3    2
    12     4     5    1
