@<TRIPOS>MOLECULE
/home/cewinharhar/GITHUB/reincatalyze/data/processed/docking_pred/2023-Apr-25-2140_maxeplen10_maxtrainstep200_exh16_gamma099_lrac3e-4_lrcr1e-3/5f00cdda1ab61f28c1ea6d7129614616e9231d70_ligand_2.pdbqt
 12 12 0 0 0
SMALL
GASTEIGER

@<TRIPOS>ATOM
      1  C          4.9850    1.7690    0.6910 C.3     1  UNL1        0.1270
      2  C          4.4830    1.0910    1.9150 C.2     1  UNL1        0.3030
      3  O          5.1060    0.1800    2.5170 O.2     1  UNL1       -0.2520
      4  O          3.2580    1.4730    2.4390 O.3     1  UNL1       -0.4810
      5  H          3.0290    2.4670    2.3650 H       1  UNL1        0.2960
      6  C          6.4840    1.8230    0.7280 C.3     1  UNL1        0.0470
      7  C          7.1410    1.0640   -0.3330 C.2     1  UNL1       -0.0470
      8  C          8.4560    1.2340   -0.6910 C.2     1  UNL1        0.0040
      9  C          6.4160    0.1250   -1.0230 C.2     1  UNL1        0.0040
     10  C          9.0590    0.5110   -1.6930 C.2     1  UNL1        0.0000
     11  C          6.9880   -0.6160   -2.0320 C.2     1  UNL1        0.0000
     12  C          8.3250   -0.4300   -2.3810 C.2     1  UNL1        0.0000
@<TRIPOS>BOND
     1    12    11    2
     2    12    10    1
     3    11     9    1
     4    10     8    2
     5     9     7    2
     6     8     7    1
     7     7     6    1
     8     1     6    1
     9     1     2    1
    10     2     4    1
    11     2     3    2
    12     5     4    1
