@<TRIPOS>MOLECULE
/home/cewinharhar/GITHUB/reincatalyze/data/processed/docking_pred/2023-Apr-25-2140_maxeplen10_maxtrainstep200_exh16_gamma099_lrac3e-4_lrcr1e-3/6047b5c71b47d2a809e14c46b0582b8ae3076bc9_ligand_2.pdbqt
 12 12 0 0 0
SMALL
GASTEIGER

@<TRIPOS>ATOM
      1  C          8.4020   -0.4130   -2.1570 C.3     1  UNL1        0.1270
      2  C          8.5030   -1.7300   -2.8400 C.2     1  UNL1        0.3030
      3  O          9.5840   -2.3460   -3.0190 O.2     1  UNL1       -0.2520
      4  O          7.3460   -2.3290   -3.3130 O.3     1  UNL1       -0.4810
      5  H          6.5250   -1.7240   -3.3880 H       1  UNL1        0.2960
      6  C          6.9620    0.0000   -2.0790 C.3     1  UNL1        0.0470
      7  C          6.4340    0.0960   -0.7210 C.2     1  UNL1       -0.0470
      8  C          6.5410   -0.9050    0.2140 C.2     1  UNL1        0.0040
      9  C          5.7890    1.2470   -0.3400 C.2     1  UNL1        0.0040
     10  C          6.0380   -0.7980    1.4880 C.2     1  UNL1        0.0000
     11  C          5.2720    1.3870    0.9270 C.2     1  UNL1        0.0000
     12  C          5.3920    0.3600    1.8620 C.2     1  UNL1        0.0000
@<TRIPOS>BOND
     1     5     4    1
     2     4     2    1
     3     3     2    2
     4     2     1    1
     5     1     6    1
     6     6     7    1
     7     7     9    2
     8     7     8    1
     9     9    11    1
    10     8    10    2
    11    11    12    2
    12    10    12    1
