MODEL 1
REMARK VINA RESULT:      -6.7      0.000      0.000
REMARK SMILES O=C(O)CCc1ccccc1
REMARK SMILES IDX 4 1 2 2 1 3 3 4 5 6 6 7 7 8 11 9 8 10 10 11 9 12
REMARK H PARENT 3 5
REMARK Flexibility Score: inf
ROOT
ATOM      1  C   UNL     1       5.024   1.813   0.733  1.00  0.00     0.127 C 
ENDROOT
BRANCH   1   2
ATOM      2  C   UNL     1       4.486   1.096   1.918  1.00  0.00     0.303 C 
ATOM      3  O   UNL     1       5.081   0.150   2.496  1.00  0.00    -0.252 OA
BRANCH   2   4
ATOM      4  O   UNL     1       3.257   1.479   2.433  1.00  0.00    -0.481 OA
ATOM      5  H   UNL     1       3.091   1.251   3.416  1.00  0.00     0.296 HD
ENDBRANCH   2   4
ENDBRANCH   1   2
BRANCH   1   6
ATOM      6  C   UNL     1       6.524   1.760   0.755  1.00  0.00     0.047 C 
BRANCH   6   7
ATOM      7  C   UNL     1       7.117   0.980  -0.329  1.00  0.00    -0.047 A 
ATOM      8  C   UNL     1       6.452  -0.009  -1.011  1.00  0.00     0.004 A 
ATOM      9  C   UNL     1       8.413   1.239  -0.698  1.00  0.00     0.004 A 
ATOM     10  C   UNL     1       7.025  -0.733  -2.029  1.00  0.00     0.000 A 
ATOM     11  C   UNL     1       9.019   0.533  -1.712  1.00  0.00     0.000 A 
ATOM     12  C   UNL     1       8.328  -0.468  -2.394  1.00  0.00     0.000 A 
ENDBRANCH   6   7
ENDBRANCH   1   6
TORSDOF 4
ENDMDL
MODEL 2
REMARK VINA RESULT:      -6.7      3.318      5.020
REMARK SMILES O=C(O)CCc1ccccc1
REMARK SMILES IDX 4 1 2 2 1 3 3 4 5 6 6 7 7 8 11 9 8 10 10 11 9 12
REMARK H PARENT 3 5
REMARK Flexibility Score: inf
ROOT
ATOM      1  C   UNL     1       8.402  -0.413  -2.157  1.00  0.00     0.127 C 
ENDROOT
BRANCH   1   2
ATOM      2  C   UNL     1       8.503  -1.730  -2.840  1.00  0.00     0.303 C 
ATOM      3  O   UNL     1       9.584  -2.346  -3.019  1.00  0.00    -0.252 OA
BRANCH   2   4
ATOM      4  O   UNL     1       7.346  -2.329  -3.313  1.00  0.00    -0.481 OA
ATOM      5  H   UNL     1       6.525  -1.724  -3.388  1.00  0.00     0.296 HD
ENDBRANCH   2   4
ENDBRANCH   1   2
BRANCH   1   6
ATOM      6  C   UNL     1       6.962   0.000  -2.079  1.00  0.00     0.047 C 
BRANCH   6   7
ATOM      7  C   UNL     1       6.434   0.096  -0.721  1.00  0.00    -0.047 A 
ATOM      8  C   UNL     1       6.541  -0.905   0.214  1.00  0.00     0.004 A 
ATOM      9  C   UNL     1       5.789   1.247  -0.340  1.00  0.00     0.004 A 
ATOM     10  C   UNL     1       6.038  -0.798   1.488  1.00  0.00     0.000 A 
ATOM     11  C   UNL     1       5.272   1.387   0.927  1.00  0.00     0.000 A 
ATOM     12  C   UNL     1       5.392   0.360   1.862  1.00  0.00     0.000 A 
ENDBRANCH   6   7
ENDBRANCH   1   6
TORSDOF 4
ENDMDL
MODEL 3
REMARK VINA RESULT:      -6.7      0.139      1.427
REMARK SMILES O=C(O)CCc1ccccc1
REMARK SMILES IDX 4 1 2 2 1 3 3 4 5 6 6 7 7 8 11 9 8 10 10 11 9 12
REMARK H PARENT 3 5
REMARK Flexibility Score: inf
ROOT
ATOM      1  C   UNL     1       5.028   1.795   0.731  1.00  0.00     0.127 C 
ENDROOT
BRANCH   1   2
ATOM      2  C   UNL     1       4.582   1.046   1.934  1.00  0.00     0.303 C 
ATOM      3  O   UNL     1       5.264   0.152   2.497  1.00  0.00    -0.252 OA
BRANCH   2   4
ATOM      4  O   UNL     1       3.342   1.337   2.483  1.00  0.00    -0.481 OA
ATOM      5  H   UNL     1       2.697   0.549   2.576  1.00  0.00     0.296 HD
ENDBRANCH   2   4
ENDBRANCH   1   2
BRANCH   1   6
ATOM      6  C   UNL     1       6.527   1.869   0.716  1.00  0.00     0.047 C 
BRANCH   6   7
ATOM      7  C   UNL     1       7.160   1.090  -0.345  1.00  0.00    -0.047 A 
ATOM      8  C   UNL     1       8.488   1.192  -0.679  1.00  0.00     0.004 A 
ATOM      9  C   UNL     1       6.396   0.200  -1.059  1.00  0.00     0.004 A 
ATOM     10  C   UNL     1       9.068   0.450  -1.681  1.00  0.00     0.000 A 
ATOM     11  C   UNL     1       6.944  -0.557  -2.069  1.00  0.00     0.000 A 
ATOM     12  C   UNL     1       8.294  -0.440  -2.394  1.00  0.00     0.000 A 
ENDBRANCH   6   7
ENDBRANCH   1   6
TORSDOF 4
ENDMDL
MODEL 4
REMARK VINA RESULT:      -6.7      3.384      5.181
REMARK SMILES O=C(O)CCc1ccccc1
REMARK SMILES IDX 4 1 2 2 1 3 3 4 5 6 6 7 7 8 11 9 8 10 10 11 9 12
REMARK H PARENT 3 5
REMARK Flexibility Score: inf
ROOT
ATOM      1  C   UNL     1       8.424  -0.582  -2.134  1.00  0.00     0.127 C 
ENDROOT
BRANCH   1   2
ATOM      2  C   UNL     1       8.467  -1.862  -2.887  1.00  0.00     0.303 C 
ATOM      3  O   UNL     1       7.455  -2.418  -3.383  1.00  0.00    -0.252 OA
BRANCH   2   4
ATOM      4  O   UNL     1       9.689  -2.494  -3.065  1.00  0.00    -0.481 OA
ATOM      5  H   UNL     1       9.739  -3.467  -2.755  1.00  0.00     0.296 HD
ENDBRANCH   2   4
ENDBRANCH   1   2
BRANCH   1   6
ATOM      6  C   UNL     1       7.012  -0.075  -2.092  1.00  0.00     0.047 C 
BRANCH   6   7
ATOM      7  C   UNL     1       6.465   0.079  -0.746  1.00  0.00    -0.047 A 
ATOM      8  C   UNL     1       5.838   1.217  -0.301  1.00  0.00     0.004 A 
ATOM      9  C   UNL     1       6.577  -0.966   0.138  1.00  0.00     0.004 A 
ATOM     10  C   UNL     1       5.329   1.345   0.969  1.00  0.00     0.000 A 
ATOM     11  C   UNL     1       6.080  -0.872   1.417  1.00  0.00     0.000 A 
ATOM     12  C   UNL     1       5.446   0.291   1.851  1.00  0.00     0.000 A 
ENDBRANCH   6   7
ENDBRANCH   1   6
TORSDOF 4
ENDMDL
MODEL 5
REMARK VINA RESULT:      -6.6      2.780      4.658
REMARK SMILES O=C(O)CCc1ccccc1
REMARK SMILES IDX 4 1 2 2 1 3 3 4 5 6 6 7 7 8 11 9 8 10 10 11 9 12
REMARK H PARENT 3 5
REMARK Flexibility Score: inf
ROOT
ATOM      1  C   UNL     1       8.287   0.262  -2.169  1.00  0.00     0.127 C 
ENDROOT
BRANCH   1   2
ATOM      2  C   UNL     1       9.403   0.366  -1.192  1.00  0.00     0.303 C 
ATOM      3  O   UNL     1       9.513  -0.362  -0.173  1.00  0.00    -0.252 OA
BRANCH   2   4
ATOM      4  O   UNL     1      10.390   1.317  -1.401  1.00  0.00    -0.481 OA
ATOM      5  H   UNL     1      11.126   1.362  -0.692  1.00  0.00     0.296 HD
ENDBRANCH   2   4
ENDBRANCH   1   2
BRANCH   1   6
ATOM      6  C   UNL     1       7.168  -0.535  -1.566  1.00  0.00     0.047 C 
BRANCH   6   7
ATOM      7  C   UNL     1       6.388   0.184  -0.562  1.00  0.00    -0.047 A 
ATOM      8  C   UNL     1       6.160  -0.285   0.709  1.00  0.00     0.004 A 
ATOM      9  C   UNL     1       5.842   1.400  -0.892  1.00  0.00     0.004 A 
ATOM     10  C   UNL     1       5.423   0.404   1.642  1.00  0.00     0.000 A 
ATOM     11  C   UNL     1       5.098   2.116   0.017  1.00  0.00     0.000 A 
ATOM     12  C   UNL     1       4.879   1.624   1.303  1.00  0.00     0.000 A 
ENDBRANCH   6   7
ENDBRANCH   1   6
TORSDOF 4
ENDMDL
