@<TRIPOS>MOLECULE
/home/cewinharhar/GITHUB/reincatalyze/data/processed/docking_pred/2023-Apr-25-2140_maxeplen10_maxtrainstep200_exh16_gamma099_lrac3e-4_lrcr1e-3/6047b5c71b47d2a809e14c46b0582b8ae3076bc9_ligand_2.pdbqt
 12 12 0 0 0
SMALL
GASTEIGER

@<TRIPOS>ATOM
      1  C          5.0280    1.7950    0.7310 C.3     1  UNL1        0.1270
      2  C          4.5820    1.0460    1.9340 C.2     1  UNL1        0.3030
      3  O          5.2640    0.1520    2.4970 O.2     1  UNL1       -0.2520
      4  O          3.3420    1.3370    2.4830 O.3     1  UNL1       -0.4810
      5  H          2.6970    0.5490    2.5760 H       1  UNL1        0.2960
      6  C          6.5270    1.8690    0.7160 C.3     1  UNL1        0.0470
      7  C          7.1600    1.0900   -0.3450 C.2     1  UNL1       -0.0470
      8  C          8.4880    1.1920   -0.6790 C.2     1  UNL1        0.0040
      9  C          6.3960    0.2000   -1.0590 C.2     1  UNL1        0.0040
     10  C          9.0680    0.4500   -1.6810 C.2     1  UNL1        0.0000
     11  C          6.9440   -0.5570   -2.0690 C.2     1  UNL1        0.0000
     12  C          8.2940   -0.4400   -2.3940 C.2     1  UNL1        0.0000
@<TRIPOS>BOND
     1    12    11    2
     2    12    10    1
     3    11     9    1
     4    10     8    2
     5     9     7    2
     6     8     7    1
     7     7     6    1
     8     6     1    1
     9     1     2    1
    10     2     4    1
    11     2     3    2
    12     4     5    1
