@<TRIPOS>MOLECULE
/home/cewinharhar/GITHUB/reincatalyze/data/processed/docking_pred/2023-Apr-25-2140_maxeplen10_maxtrainstep200_exh16_gamma099_lrac3e-4_lrcr1e-3/6047b5c71b47d2a809e14c46b0582b8ae3076bc9_ligand_2.pdbqt
 12 12 0 0 0
SMALL
GASTEIGER

@<TRIPOS>ATOM
      1  C          8.4240   -0.5820   -2.1340 C.3     1  UNL1        0.1270
      2  C          8.4670   -1.8620   -2.8870 C.2     1  UNL1        0.3030
      3  O          7.4550   -2.4180   -3.3830 O.2     1  UNL1       -0.2520
      4  O          9.6890   -2.4940   -3.0650 O.3     1  UNL1       -0.4810
      5  H          9.7390   -3.4670   -2.7550 H       1  UNL1        0.2960
      6  C          7.0120   -0.0750   -2.0920 C.3     1  UNL1        0.0470
      7  C          6.4650    0.0790   -0.7460 C.2     1  UNL1       -0.0470
      8  C          5.8380    1.2170   -0.3010 C.2     1  UNL1        0.0040
      9  C          6.5770   -0.9660    0.1380 C.2     1  UNL1        0.0040
     10  C          5.3290    1.3450    0.9690 C.2     1  UNL1        0.0000
     11  C          6.0800   -0.8720    1.4170 C.2     1  UNL1        0.0000
     12  C          5.4460    0.2910    1.8510 C.2     1  UNL1        0.0000
@<TRIPOS>BOND
     1     3     2    2
     2     4     2    1
     3     4     5    1
     4     2     1    1
     5     1     6    1
     6     6     7    1
     7     7     8    2
     8     7     9    1
     9     8    10    1
    10     9    11    2
    11    10    12    2
    12    11    12    1
