@<TRIPOS>MOLECULE
/home/cewinharhar/GITHUB/reincatalyze/data/processed/docking_pred/2023-Apr-25-2140_maxeplen10_maxtrainstep200_exh16_gamma099_lrac3e-4_lrcr1e-3/6047b5c71b47d2a809e14c46b0582b8ae3076bc9_ligand_2.pdbqt
 12 12 0 0 0
SMALL
GASTEIGER

@<TRIPOS>ATOM
      1  C          8.2870    0.2620   -2.1690 C.3     1  UNL1        0.1270
      2  C          9.4030    0.3660   -1.1920 C.2     1  UNL1        0.3030
      3  O          9.5130   -0.3620   -0.1730 O.2     1  UNL1       -0.2520
      4  O         10.3900    1.3170   -1.4010 O.3     1  UNL1       -0.4810
      5  H         11.1260    1.3620   -0.6920 H       1  UNL1        0.2960
      6  C          7.1680   -0.5350   -1.5660 C.3     1  UNL1        0.0470
      7  C          6.3880    0.1840   -0.5620 C.2     1  UNL1       -0.0470
      8  C          6.1600   -0.2850    0.7090 C.2     1  UNL1        0.0040
      9  C          5.8420    1.4000   -0.8920 C.2     1  UNL1        0.0040
     10  C          5.4230    0.4040    1.6420 C.2     1  UNL1        0.0000
     11  C          5.0980    2.1160    0.0170 C.2     1  UNL1        0.0000
     12  C          4.8790    1.6240    1.3030 C.2     1  UNL1        0.0000
@<TRIPOS>BOND
     1     1     6    1
     2     1     2    1
     3     6     7    1
     4     4     2    1
     5     4     5    1
     6     2     3    2
     7     9     7    2
     8     9    11    1
     9     7     8    1
    10    11    12    2
    11     8    10    2
    12    12    10    1
