@<TRIPOS>MOLECULE
/home/cewinharhar/GITHUB/reincatalyze/data/processed/docking_pred/2023-Apr-25-2140_maxeplen10_maxtrainstep200_exh16_gamma099_lrac3e-4_lrcr1e-3/6070aa1b8336213875ea865ca7f6d729a9af33a9_ligand_2.pdbqt
 12 12 0 0 0
SMALL
GASTEIGER

@<TRIPOS>ATOM
      1  C          8.4410   -0.5290   -2.2890 C.3     1  UNL1        0.1270
      2  C          8.5220   -1.8750   -2.9120 C.2     1  UNL1        0.3030
      3  O          9.5920   -2.5190   -3.0540 O.2     1  UNL1       -0.2520
      4  O          7.3570   -2.4730   -3.3710 O.3     1  UNL1       -0.4810
      5  H          6.5390   -1.8640   -3.4410 H       1  UNL1        0.2960
      6  C          7.0060   -0.0970   -2.2170 C.3     1  UNL1        0.0470
      7  C          6.4890    0.0590   -0.8590 C.2     1  UNL1       -0.0470
      8  C          6.5840   -0.9090    0.1100 C.2     1  UNL1        0.0040
      9  C          5.8690    1.2350   -0.5170 C.2     1  UNL1        0.0040
     10  C          6.0920   -0.7460    1.3830 C.2     1  UNL1        0.0000
     11  C          5.3640    1.4320    0.7470 C.2     1  UNL1        0.0000
     12  C          5.4710    0.4380    1.7190 C.2     1  UNL1        0.0000
@<TRIPOS>BOND
     1     5     4    1
     2     4     2    1
     3     3     2    2
     4     2     1    1
     5     1     6    1
     6     6     7    1
     7     7     9    2
     8     7     8    1
     9     9    11    1
    10     8    10    2
    11    11    12    2
    12    10    12    1
