@<TRIPOS>MOLECULE
/home/cewinharhar/GITHUB/reincatalyze/data/processed/docking_pred/2023-Apr-25-2140_maxeplen10_maxtrainstep200_exh16_gamma099_lrac3e-4_lrcr1e-3/6070aa1b8336213875ea865ca7f6d729a9af33a9_ligand_2.pdbqt
 12 12 0 0 0
SMALL
GASTEIGER

@<TRIPOS>ATOM
      1  C          8.3400   -0.8470   -1.9740 C.3     1  UNL1        0.1270
      2  C          8.4660   -2.0270   -2.8690 C.2     1  UNL1        0.3030
      3  O          9.5440   -2.6430   -3.0700 O.2     1  UNL1       -0.2520
      4  O          7.3380   -2.4920   -3.5280 O.3     1  UNL1       -0.4810
      5  H          6.9040   -1.8430   -4.1870 H       1  UNL1        0.2960
      6  C          7.6650   -1.2570   -0.6980 C.3     1  UNL1        0.0470
      7  C          6.7470   -0.2590   -0.1540 C.2     1  UNL1       -0.0470
      8  C          6.3330    0.8550   -0.8420 C.2     1  UNL1        0.0040
      9  C          6.2610   -0.4310    1.1180 C.2     1  UNL1        0.0040
     10  C          5.4680    1.7830   -0.3140 C.2     1  UNL1        0.0000
     11  C          5.3940    0.4790    1.6780 C.2     1  UNL1        0.0000
     12  C          4.9840    1.6040    0.9640 C.2     1  UNL1        0.0000
@<TRIPOS>BOND
     1     5     4    1
     2     4     2    1
     3     3     2    2
     4     2     1    1
     5     1     6    1
     6     8    10    1
     7     8     7    2
     8     6     7    1
     9    10    12    2
    10     7     9    1
    11    12    11    1
    12     9    11    2
