@<TRIPOS>MOLECULE
/home/cewinharhar/GITHUB/reincatalyze/data/processed/docking_pred/2023-Apr-25-2140_maxeplen10_maxtrainstep200_exh16_gamma099_lrac3e-4_lrcr1e-3/6070aa1b8336213875ea865ca7f6d729a9af33a9_ligand_2.pdbqt
 12 12 0 0 0
SMALL
GASTEIGER

@<TRIPOS>ATOM
      1  C          8.4240   -0.6360   -2.1320 C.3     1  UNL1        0.1270
      2  C          8.5060   -1.9110   -2.8900 C.2     1  UNL1        0.3030
      3  O          9.5800   -2.5260   -3.1150 O.2     1  UNL1       -0.2520
      4  O          7.3390   -2.4720   -3.3870 O.3     1  UNL1       -0.4810
      5  H          6.8200   -3.0710   -2.7420 H       1  UNL1        0.2960
      6  C          7.0040   -0.1510   -2.1220 C.3     1  UNL1        0.0470
      7  C          6.4500    0.0680   -0.7880 C.2     1  UNL1       -0.0470
      8  C          5.8040    1.2190   -0.4090 C.2     1  UNL1        0.0040
      9  C          6.5750   -0.9230    0.1530 C.2     1  UNL1        0.0040
     10  C          5.2880    1.4090    0.8510 C.2     1  UNL1        0.0000
     11  C          6.0720   -0.7670    1.4240 C.2     1  UNL1        0.0000
     12  C          5.4180    0.4090    1.7900 C.2     1  UNL1        0.0000
@<TRIPOS>BOND
     1     4     2    1
     2     4     5    1
     3     3     2    2
     4     2     1    1
     5     1     6    1
     6     6     7    1
     7     7     8    2
     8     7     9    1
     9     8    10    1
    10     9    11    2
    11    10    12    2
    12    11    12    1
