@<TRIPOS>MOLECULE
/home/cewinharhar/GITHUB/reincatalyze/data/processed/docking_pred/2023-Apr-25-2140_maxeplen10_maxtrainstep200_exh16_gamma099_lrac3e-4_lrcr1e-3/6070aa1b8336213875ea865ca7f6d729a9af33a9_ligand_2.pdbqt
 12 12 0 0 0
SMALL
GASTEIGER

@<TRIPOS>ATOM
      1  C          4.9830    1.7700    0.6800 C.3     1  UNL1        0.1270
      2  C          4.5080    1.0780    1.9060 C.2     1  UNL1        0.3030
      3  O          5.1500    0.1700    2.4930 O.2     1  UNL1       -0.2520
      4  O          3.2860    1.4430    2.4510 O.3     1  UNL1       -0.4810
      5  H          3.2850    2.2910    3.0230 H       1  UNL1        0.2960
      6  C          6.4830    1.8100    0.6780 C.3     1  UNL1        0.0470
      7  C          7.1070    1.0190   -0.3790 C.2     1  UNL1       -0.0470
      8  C          6.4390    0.0830   -1.1290 C.2     1  UNL1        0.0040
      9  C          8.4390    1.2100   -0.6510 C.2     1  UNL1        0.0040
     10  C          7.0420   -0.6530   -2.1210 C.2     1  UNL1        0.0000
     11  C          9.0750    0.4900   -1.6360 C.2     1  UNL1        0.0000
     12  C          8.3800   -0.4560   -2.3880 C.2     1  UNL1        0.0000
@<TRIPOS>BOND
     1    12    10    2
     2    12    11    1
     3    10     8    1
     4    11     9    2
     5     8     7    2
     6     9     7    1
     7     7     6    1
     8     6     1    1
     9     1     2    1
    10     2     4    1
    11     2     3    2
    12     4     5    1
