MODEL 1
REMARK VINA RESULT:      -7.4      0.000      0.000
REMARK SMILES O=C(O)CCc1ccccc1
REMARK SMILES IDX 4 1 2 2 1 3 3 4 5 6 6 7 7 8 11 9 8 10 10 11 9 12
REMARK H PARENT 3 5
REMARK Flexibility Score: inf
ROOT
ATOM      1  C   UNL     1       8.424  -0.636  -2.132  1.00  0.00     0.127 C 
ENDROOT
BRANCH   1   2
ATOM      2  C   UNL     1       8.506  -1.911  -2.890  1.00  0.00     0.303 C 
ATOM      3  O   UNL     1       9.580  -2.526  -3.115  1.00  0.00    -0.252 OA
BRANCH   2   4
ATOM      4  O   UNL     1       7.339  -2.472  -3.387  1.00  0.00    -0.481 OA
ATOM      5  H   UNL     1       6.820  -3.071  -2.742  1.00  0.00     0.296 HD
ENDBRANCH   2   4
ENDBRANCH   1   2
BRANCH   1   6
ATOM      6  C   UNL     1       7.004  -0.151  -2.122  1.00  0.00     0.047 C 
BRANCH   6   7
ATOM      7  C   UNL     1       6.450   0.068  -0.788  1.00  0.00    -0.047 A 
ATOM      8  C   UNL     1       5.804   1.219  -0.409  1.00  0.00     0.004 A 
ATOM      9  C   UNL     1       6.575  -0.923   0.153  1.00  0.00     0.004 A 
ATOM     10  C   UNL     1       5.288   1.409   0.851  1.00  0.00     0.000 A 
ATOM     11  C   UNL     1       6.072  -0.767   1.424  1.00  0.00     0.000 A 
ATOM     12  C   UNL     1       5.418   0.409   1.790  1.00  0.00     0.000 A 
ENDBRANCH   6   7
ENDBRANCH   1   6
TORSDOF 4
ENDMDL
MODEL 2
REMARK VINA RESULT:      -7.3      0.099      1.429
REMARK SMILES O=C(O)CCc1ccccc1
REMARK SMILES IDX 4 1 2 2 1 3 3 4 5 6 6 7 7 8 11 9 8 10 10 11 9 12
REMARK H PARENT 3 5
REMARK Flexibility Score: inf
ROOT
ATOM      1  C   UNL     1       8.441  -0.529  -2.289  1.00  0.00     0.127 C 
ENDROOT
BRANCH   1   2
ATOM      2  C   UNL     1       8.522  -1.875  -2.912  1.00  0.00     0.303 C 
ATOM      3  O   UNL     1       9.592  -2.519  -3.054  1.00  0.00    -0.252 OA
BRANCH   2   4
ATOM      4  O   UNL     1       7.357  -2.473  -3.371  1.00  0.00    -0.481 OA
ATOM      5  H   UNL     1       6.539  -1.864  -3.441  1.00  0.00     0.296 HD
ENDBRANCH   2   4
ENDBRANCH   1   2
BRANCH   1   6
ATOM      6  C   UNL     1       7.006  -0.097  -2.217  1.00  0.00     0.047 C 
BRANCH   6   7
ATOM      7  C   UNL     1       6.489   0.059  -0.859  1.00  0.00    -0.047 A 
ATOM      8  C   UNL     1       6.584  -0.909   0.110  1.00  0.00     0.004 A 
ATOM      9  C   UNL     1       5.869   1.235  -0.517  1.00  0.00     0.004 A 
ATOM     10  C   UNL     1       6.092  -0.746   1.383  1.00  0.00     0.000 A 
ATOM     11  C   UNL     1       5.364   1.432   0.747  1.00  0.00     0.000 A 
ATOM     12  C   UNL     1       5.471   0.438   1.719  1.00  0.00     0.000 A 
ENDBRANCH   6   7
ENDBRANCH   1   6
TORSDOF 4
ENDMDL
MODEL 3
REMARK VINA RESULT:      -7.2      0.634      1.053
REMARK SMILES O=C(O)CCc1ccccc1
REMARK SMILES IDX 4 1 2 2 1 3 3 4 5 6 6 7 7 8 11 9 8 10 10 11 9 12
REMARK H PARENT 3 5
REMARK Flexibility Score: inf
ROOT
ATOM      1  C   UNL     1       8.340  -0.847  -1.974  1.00  0.00     0.127 C 
ENDROOT
BRANCH   1   2
ATOM      2  C   UNL     1       8.466  -2.027  -2.869  1.00  0.00     0.303 C 
ATOM      3  O   UNL     1       9.544  -2.643  -3.070  1.00  0.00    -0.252 OA
BRANCH   2   4
ATOM      4  O   UNL     1       7.338  -2.492  -3.528  1.00  0.00    -0.481 OA
ATOM      5  H   UNL     1       6.904  -1.843  -4.187  1.00  0.00     0.296 HD
ENDBRANCH   2   4
ENDBRANCH   1   2
BRANCH   1   6
ATOM      6  C   UNL     1       7.665  -1.257  -0.698  1.00  0.00     0.047 C 
BRANCH   6   7
ATOM      7  C   UNL     1       6.747  -0.259  -0.154  1.00  0.00    -0.047 A 
ATOM      8  C   UNL     1       6.333   0.855  -0.842  1.00  0.00     0.004 A 
ATOM      9  C   UNL     1       6.261  -0.431   1.118  1.00  0.00     0.004 A 
ATOM     10  C   UNL     1       5.468   1.783  -0.314  1.00  0.00     0.000 A 
ATOM     11  C   UNL     1       5.394   0.479   1.678  1.00  0.00     0.000 A 
ATOM     12  C   UNL     1       4.984   1.604   0.964  1.00  0.00     0.000 A 
ENDBRANCH   6   7
ENDBRANCH   1   6
TORSDOF 4
ENDMDL
MODEL 4
REMARK VINA RESULT:      -6.8      3.365      5.091
REMARK SMILES O=C(O)CCc1ccccc1
REMARK SMILES IDX 4 1 2 2 1 3 3 4 5 6 6 7 7 8 11 9 8 10 10 11 9 12
REMARK H PARENT 3 5
REMARK Flexibility Score: inf
ROOT
ATOM      1  C   UNL     1       4.983   1.770   0.680  1.00  0.00     0.127 C 
ENDROOT
BRANCH   1   2
ATOM      2  C   UNL     1       4.508   1.078   1.906  1.00  0.00     0.303 C 
ATOM      3  O   UNL     1       5.150   0.170   2.493  1.00  0.00    -0.252 OA
BRANCH   2   4
ATOM      4  O   UNL     1       3.286   1.443   2.451  1.00  0.00    -0.481 OA
ATOM      5  H   UNL     1       3.285   2.291   3.023  1.00  0.00     0.296 HD
ENDBRANCH   2   4
ENDBRANCH   1   2
BRANCH   1   6
ATOM      6  C   UNL     1       6.483   1.810   0.678  1.00  0.00     0.047 C 
BRANCH   6   7
ATOM      7  C   UNL     1       7.107   1.019  -0.379  1.00  0.00    -0.047 A 
ATOM      8  C   UNL     1       6.439   0.083  -1.129  1.00  0.00     0.004 A 
ATOM      9  C   UNL     1       8.439   1.210  -0.651  1.00  0.00     0.004 A 
ATOM     10  C   UNL     1       7.042  -0.653  -2.121  1.00  0.00     0.000 A 
ATOM     11  C   UNL     1       9.075   0.490  -1.636  1.00  0.00     0.000 A 
ATOM     12  C   UNL     1       8.380  -0.456  -2.388  1.00  0.00     0.000 A 
ENDBRANCH   6   7
ENDBRANCH   1   6
TORSDOF 4
ENDMDL
MODEL 5
REMARK VINA RESULT:      -6.7      3.844      4.940
REMARK SMILES O=C(O)CCc1ccccc1
REMARK SMILES IDX 4 1 2 2 1 3 3 4 5 6 6 7 7 8 11 9 8 10 10 11 9 12
REMARK H PARENT 3 5
REMARK Flexibility Score: inf
ROOT
ATOM      1  C   UNL     1       5.442   2.862   0.019  1.00  0.00     0.127 C 
ENDROOT
BRANCH   1   2
ATOM      2  C   UNL     1       6.244   3.847   0.790  1.00  0.00     0.303 C 
ATOM      3  O   UNL     1       6.909   4.775   0.265  1.00  0.00    -0.252 OA
BRANCH   2   4
ATOM      4  O   UNL     1       6.271   3.752   2.174  1.00  0.00    -0.481 OA
ATOM      5  H   UNL     1       5.378   3.893   2.650  1.00  0.00     0.296 HD
ENDBRANCH   2   4
ENDBRANCH   1   2
BRANCH   1   6
ATOM      6  C   UNL     1       4.946   1.788   0.942  1.00  0.00     0.047 C 
BRANCH   6   7
ATOM      7  C   UNL     1       5.761   0.576   0.951  1.00  0.00    -0.047 A 
ATOM      8  C   UNL     1       6.539   0.170  -0.106  1.00  0.00     0.004 A 
ATOM      9  C   UNL     1       5.759  -0.216   2.072  1.00  0.00     0.004 A 
ATOM     10  C   UNL     1       7.301  -0.974  -0.081  1.00  0.00     0.000 A 
ATOM     11  C   UNL     1       6.509  -1.368   2.131  1.00  0.00     0.000 A 
ATOM     12  C   UNL     1       7.293  -1.763   1.049  1.00  0.00     0.000 A 
ENDBRANCH   6   7
ENDBRANCH   1   6
TORSDOF 4
ENDMDL
