@<TRIPOS>MOLECULE
/home/cewinharhar/GITHUB/reincatalyze/data/processed/docking_pred/2023-Apr-25-2140_maxeplen10_maxtrainstep200_exh16_gamma099_lrac3e-4_lrcr1e-3/6070aa1b8336213875ea865ca7f6d729a9af33a9_ligand_2.pdbqt
 12 12 0 0 0
SMALL
GASTEIGER

@<TRIPOS>ATOM
      1  C          5.4420    2.8620    0.0190 C.3     1  UNL1        0.1270
      2  C          6.2440    3.8470    0.7900 C.2     1  UNL1        0.3030
      3  O          6.9090    4.7750    0.2650 O.2     1  UNL1       -0.2520
      4  O          6.2710    3.7520    2.1740 O.3     1  UNL1       -0.4810
      5  H          5.3780    3.8930    2.6500 H       1  UNL1        0.2960
      6  C          4.9460    1.7880    0.9420 C.3     1  UNL1        0.0470
      7  C          5.7610    0.5760    0.9510 C.2     1  UNL1       -0.0470
      8  C          6.5390    0.1700   -0.1060 C.2     1  UNL1        0.0040
      9  C          5.7590   -0.2160    2.0720 C.2     1  UNL1        0.0040
     10  C          7.3010   -0.9740   -0.0810 C.2     1  UNL1        0.0000
     11  C          6.5090   -1.3680    2.1310 C.2     1  UNL1        0.0000
     12  C          7.2930   -1.7630    1.0490 C.2     1  UNL1        0.0000
@<TRIPOS>BOND
     1     8    10    1
     2     8     7    2
     3    10    12    2
     4     1     2    1
     5     1     6    1
     6     3     2    2
     7     2     4    1
     8     6     7    1
     9     7     9    1
    10    12    11    1
    11     9    11    2
    12     4     5    1
