MODEL 1
REMARK VINA RESULT:      -7.4      0.000      0.000
REMARK SMILES O=C(O)CCc1ccccc1
REMARK SMILES IDX 4 1 2 2 1 3 3 4 5 6 6 7 7 8 11 9 8 10 10 11 9 12
REMARK H PARENT 3 5
REMARK Flexibility Score: inf
ROOT
ATOM      1  C   UNL     1       8.479  -0.654  -2.099  1.00  0.00     0.127 C 
ENDROOT
BRANCH   1   2
ATOM      2  C   UNL     1       8.509  -1.916  -2.883  1.00  0.00     0.303 C 
ATOM      3  O   UNL     1       9.556  -2.572  -3.115  1.00  0.00    -0.252 OA
BRANCH   2   4
ATOM      4  O   UNL     1       7.322  -2.415  -3.397  1.00  0.00    -0.481 OA
ATOM      5  H   UNL     1       6.542  -1.756  -3.444  1.00  0.00     0.296 HD
ENDBRANCH   2   4
ENDBRANCH   1   2
BRANCH   1   6
ATOM      6  C   UNL     1       7.088  -0.091  -2.112  1.00  0.00     0.047 C 
BRANCH   6   7
ATOM      7  C   UNL     1       6.502   0.103  -0.788  1.00  0.00    -0.047 A 
ATOM      8  C   UNL     1       5.840   1.243  -0.405  1.00  0.00     0.004 A 
ATOM      9  C   UNL     1       6.612  -0.904   0.139  1.00  0.00     0.004 A 
ATOM     10  C   UNL     1       5.295   1.410   0.846  1.00  0.00     0.000 A 
ATOM     11  C   UNL     1       6.079  -0.771   1.401  1.00  0.00     0.000 A 
ATOM     12  C   UNL     1       5.410   0.394   1.771  1.00  0.00     0.000 A 
ENDBRANCH   6   7
ENDBRANCH   1   6
TORSDOF 4
ENDMDL
MODEL 2
REMARK VINA RESULT:      -7.4      0.097      1.429
REMARK SMILES O=C(O)CCc1ccccc1
REMARK SMILES IDX 4 1 2 2 1 3 3 4 5 6 6 7 7 8 11 9 8 10 10 11 9 12
REMARK H PARENT 3 5
REMARK Flexibility Score: inf
ROOT
ATOM      1  C   UNL     1       8.474  -0.545  -2.250  1.00  0.00     0.127 C 
ENDROOT
BRANCH   1   2
ATOM      2  C   UNL     1       8.530  -1.861  -2.937  1.00  0.00     0.303 C 
ATOM      3  O   UNL     1       9.587  -2.521  -3.103  1.00  0.00    -0.252 OA
BRANCH   2   4
ATOM      4  O   UNL     1       7.357  -2.411  -3.430  1.00  0.00    -0.481 OA
ATOM      5  H   UNL     1       6.941  -3.159  -2.870  1.00  0.00     0.296 HD
ENDBRANCH   2   4
ENDBRANCH   1   2
BRANCH   1   6
ATOM      6  C   UNL     1       7.049  -0.081  -2.176  1.00  0.00     0.047 C 
BRANCH   6   7
ATOM      7  C   UNL     1       6.519   0.025  -0.818  1.00  0.00    -0.047 A 
ATOM      8  C   UNL     1       6.633  -0.965   0.126  1.00  0.00     0.004 A 
ATOM      9  C   UNL     1       5.866   1.175  -0.450  1.00  0.00     0.004 A 
ATOM     10  C   UNL     1       6.128  -0.849   1.399  1.00  0.00     0.000 A 
ATOM     11  C   UNL     1       5.347   1.325   0.815  1.00  0.00     0.000 A 
ATOM     12  C   UNL     1       5.473   0.309   1.761  1.00  0.00     0.000 A 
ENDBRANCH   6   7
ENDBRANCH   1   6
TORSDOF 4
ENDMDL
MODEL 3
REMARK VINA RESULT:      -6.8      3.360      5.090
REMARK SMILES O=C(O)CCc1ccccc1
REMARK SMILES IDX 4 1 2 2 1 3 3 4 5 6 6 7 7 8 11 9 8 10 10 11 9 12
REMARK H PARENT 3 5
REMARK Flexibility Score: inf
ROOT
ATOM      1  C   UNL     1       4.985   1.798   0.675  1.00  0.00     0.127 C 
ENDROOT
BRANCH   1   2
ATOM      2  C   UNL     1       4.506   1.113   1.904  1.00  0.00     0.303 C 
ATOM      3  O   UNL     1       5.153   0.218   2.504  1.00  0.00    -0.252 OA
BRANCH   2   4
ATOM      4  O   UNL     1       3.276   1.470   2.434  1.00  0.00    -0.481 OA
ATOM      5  H   UNL     1       2.819   0.767   3.019  1.00  0.00     0.296 HD
ENDBRANCH   2   4
ENDBRANCH   1   2
BRANCH   1   6
ATOM      6  C   UNL     1       6.485   1.838   0.677  1.00  0.00     0.047 C 
BRANCH   6   7
ATOM      7  C   UNL     1       7.112   1.041  -0.375  1.00  0.00    -0.047 A 
ATOM      8  C   UNL     1       6.449   0.090  -1.111  1.00  0.00     0.004 A 
ATOM      9  C   UNL     1       8.441   1.243  -0.655  1.00  0.00     0.004 A 
ATOM     10  C   UNL     1       7.055  -0.651  -2.097  1.00  0.00     0.000 A 
ATOM     11  C   UNL     1       9.079   0.518  -1.635  1.00  0.00     0.000 A 
ATOM     12  C   UNL     1       8.389  -0.443  -2.373  1.00  0.00     0.000 A 
ENDBRANCH   6   7
ENDBRANCH   1   6
TORSDOF 4
ENDMDL
MODEL 4
REMARK VINA RESULT:      -6.7      3.834      4.994
REMARK SMILES O=C(O)CCc1ccccc1
REMARK SMILES IDX 4 1 2 2 1 3 3 4 5 6 6 7 7 8 11 9 8 10 10 11 9 12
REMARK H PARENT 3 5
REMARK Flexibility Score: inf
ROOT
ATOM      1  C   UNL     1       5.499   2.801   0.000  1.00  0.00     0.127 C 
ENDROOT
BRANCH   1   2
ATOM      2  C   UNL     1       6.244   3.831   0.771  1.00  0.00     0.303 C 
ATOM      3  O   UNL     1       6.885   4.775   0.242  1.00  0.00    -0.252 OA
BRANCH   2   4
ATOM      4  O   UNL     1       6.243   3.763   2.156  1.00  0.00    -0.481 OA
ATOM      5  H   UNL     1       6.358   4.652   2.648  1.00  0.00     0.296 HD
ENDBRANCH   2   4
ENDBRANCH   1   2
BRANCH   1   6
ATOM      6  C   UNL     1       4.970   1.759   0.941  1.00  0.00     0.047 C 
BRANCH   6   7
ATOM      7  C   UNL     1       5.752   0.526   0.979  1.00  0.00    -0.047 A 
ATOM      8  C   UNL     1       5.789  -0.323   2.058  1.00  0.00     0.004 A 
ATOM      9  C   UNL     1       6.500   0.182  -0.120  1.00  0.00     0.004 A 
ATOM     10  C   UNL     1       6.531  -1.480   2.076  1.00  0.00     0.000 A 
ATOM     11  C   UNL     1       7.256  -0.968  -0.135  1.00  0.00     0.000 A 
ATOM     12  C   UNL     1       7.280  -1.818   0.970  1.00  0.00     0.000 A 
ENDBRANCH   6   7
ENDBRANCH   1   6
TORSDOF 4
ENDMDL
MODEL 5
REMARK VINA RESULT:      -6.6      2.085      2.363
REMARK SMILES O=C(O)CCc1ccccc1
REMARK SMILES IDX 4 1 2 2 1 3 3 4 5 6 6 7 7 8 11 9 8 10 10 11 9 12
REMARK H PARENT 3 5
REMARK Flexibility Score: inf
ROOT
ATOM      1  C   UNL     1       8.513   0.658  -1.721  1.00  0.00     0.127 C 
ENDROOT
BRANCH   1   2
ATOM      2  C   UNL     1       9.636   0.280  -0.823  1.00  0.00     0.303 C 
ATOM      3  O   UNL     1       9.519  -0.502   0.154  1.00  0.00    -0.252 OA
BRANCH   2   4
ATOM      4  O   UNL     1      10.894   0.811  -1.063  1.00  0.00    -0.481 OA
ATOM      5  H   UNL     1      11.638   0.135  -1.251  1.00  0.00     0.296 HD
ENDBRANCH   2   4
ENDBRANCH   1   2
BRANCH   1   6
ATOM      6  C   UNL     1       7.316  -0.190  -1.408  1.00  0.00     0.047 C 
BRANCH   6   7
ATOM      7  C   UNL     1       6.420   0.378  -0.402  1.00  0.00    -0.047 A 
ATOM      8  C   UNL     1       5.770   1.579  -0.548  1.00  0.00     0.004 A 
ATOM      9  C   UNL     1       6.206  -0.318   0.762  1.00  0.00     0.004 A 
ATOM     10  C   UNL     1       4.931   2.098   0.408  1.00  0.00     0.000 A 
ATOM     11  C   UNL     1       5.373   0.173   1.741  1.00  0.00     0.000 A 
ATOM     12  C   UNL     1       4.722   1.394   1.575  1.00  0.00     0.000 A 
ENDBRANCH   6   7
ENDBRANCH   1   6
TORSDOF 4
ENDMDL
