@<TRIPOS>MOLECULE
/home/cewinharhar/GITHUB/reincatalyze/data/processed/docking_pred/2023-Apr-25-2140_maxeplen10_maxtrainstep200_exh16_gamma099_lrac3e-4_lrcr1e-3/64ade7361adfbcba1ebdf367c3e16aacabd62181_ligand_2.pdbqt
 12 12 0 0 0
SMALL
GASTEIGER

@<TRIPOS>ATOM
      1  C          8.4790   -0.6540   -2.0990 C.3     1  UNL1        0.1270
      2  C          8.5090   -1.9160   -2.8830 C.2     1  UNL1        0.3030
      3  O          9.5560   -2.5720   -3.1150 O.2     1  UNL1       -0.2520
      4  O          7.3220   -2.4150   -3.3970 O.3     1  UNL1       -0.4810
      5  H          6.5420   -1.7560   -3.4440 H       1  UNL1        0.2960
      6  C          7.0880   -0.0910   -2.1120 C.3     1  UNL1        0.0470
      7  C          6.5020    0.1030   -0.7880 C.2     1  UNL1       -0.0470
      8  C          5.8400    1.2430   -0.4050 C.2     1  UNL1        0.0040
      9  C          6.6120   -0.9040    0.1390 C.2     1  UNL1        0.0040
     10  C          5.2950    1.4100    0.8460 C.2     1  UNL1        0.0000
     11  C          6.0790   -0.7710    1.4010 C.2     1  UNL1        0.0000
     12  C          5.4100    0.3940    1.7710 C.2     1  UNL1        0.0000
@<TRIPOS>BOND
     1     5     4    1
     2     4     2    1
     3     3     2    2
     4     2     1    1
     5     6     1    1
     6     6     7    1
     7     7     8    2
     8     7     9    1
     9     8    10    1
    10     9    11    2
    11    10    12    2
    12    11    12    1
