@<TRIPOS>MOLECULE
/home/cewinharhar/GITHUB/reincatalyze/data/processed/docking_pred/2023-Apr-25-2140_maxeplen10_maxtrainstep200_exh16_gamma099_lrac3e-4_lrcr1e-3/64ade7361adfbcba1ebdf367c3e16aacabd62181_ligand_2.pdbqt
 12 12 0 0 0
SMALL
GASTEIGER

@<TRIPOS>ATOM
      1  C          4.9850    1.7980    0.6750 C.3     1  UNL1        0.1270
      2  C          4.5060    1.1130    1.9040 C.2     1  UNL1        0.3030
      3  O          5.1530    0.2180    2.5040 O.2     1  UNL1       -0.2520
      4  O          3.2760    1.4700    2.4340 O.3     1  UNL1       -0.4810
      5  H          2.8190    0.7670    3.0190 H       1  UNL1        0.2960
      6  C          6.4850    1.8380    0.6770 C.3     1  UNL1        0.0470
      7  C          7.1120    1.0410   -0.3750 C.2     1  UNL1       -0.0470
      8  C          6.4490    0.0900   -1.1110 C.2     1  UNL1        0.0040
      9  C          8.4410    1.2430   -0.6550 C.2     1  UNL1        0.0040
     10  C          7.0550   -0.6510   -2.0970 C.2     1  UNL1        0.0000
     11  C          9.0790    0.5180   -1.6350 C.2     1  UNL1        0.0000
     12  C          8.3890   -0.4430   -2.3730 C.2     1  UNL1        0.0000
@<TRIPOS>BOND
     1    12    10    2
     2    12    11    1
     3    10     8    1
     4    11     9    2
     5     8     7    2
     6     9     7    1
     7     7     6    1
     8     1     6    1
     9     1     2    1
    10     2     4    1
    11     2     3    2
    12     4     5    1
