@<TRIPOS>MOLECULE
/home/cewinharhar/GITHUB/reincatalyze/data/processed/docking_pred/2023-Apr-25-2140_maxeplen10_maxtrainstep200_exh16_gamma099_lrac3e-4_lrcr1e-3/64ade7361adfbcba1ebdf367c3e16aacabd62181_ligand_2.pdbqt
 12 12 0 0 0
SMALL
GASTEIGER

@<TRIPOS>ATOM
      1  C          5.4990    2.8010    0.0000 C.3     1  UNL1        0.1270
      2  C          6.2440    3.8310    0.7710 C.2     1  UNL1        0.3030
      3  O          6.8850    4.7750    0.2420 O.2     1  UNL1       -0.2520
      4  O          6.2430    3.7630    2.1560 O.3     1  UNL1       -0.4810
      5  H          6.3580    4.6520    2.6480 H       1  UNL1        0.2960
      6  C          4.9700    1.7590    0.9410 C.3     1  UNL1        0.0470
      7  C          5.7520    0.5260    0.9790 C.2     1  UNL1       -0.0470
      8  C          5.7890   -0.3230    2.0580 C.2     1  UNL1        0.0040
      9  C          6.5000    0.1820   -0.1200 C.2     1  UNL1        0.0040
     10  C          6.5310   -1.4800    2.0760 C.2     1  UNL1        0.0000
     11  C          7.2560   -0.9680   -0.1350 C.2     1  UNL1        0.0000
     12  C          7.2800   -1.8180    0.9700 C.2     1  UNL1        0.0000
@<TRIPOS>BOND
     1    11     9    1
     2    11    12    2
     3     9     7    2
     4     1     2    1
     5     1     6    1
     6     3     2    2
     7     2     4    1
     8     6     7    1
     9    12    10    1
    10     7     8    1
    11     8    10    2
    12     4     5    1
