@<TRIPOS>MOLECULE
/home/cewinharhar/GITHUB/reincatalyze/data/processed/docking_pred/2023-Apr-25-2140_maxeplen10_maxtrainstep200_exh16_gamma099_lrac3e-4_lrcr1e-3/64ade7361adfbcba1ebdf367c3e16aacabd62181_ligand_2.pdbqt
 12 12 0 0 0
SMALL
GASTEIGER

@<TRIPOS>ATOM
      1  C          8.5130    0.6580   -1.7210 C.3     1  UNL1        0.1270
      2  C          9.6360    0.2800   -0.8230 C.2     1  UNL1        0.3030
      3  O          9.5190   -0.5020    0.1540 O.2     1  UNL1       -0.2520
      4  O         10.8940    0.8110   -1.0630 O.3     1  UNL1       -0.4810
      5  H         11.6380    0.1350   -1.2510 H       1  UNL1        0.2960
      6  C          7.3160   -0.1900   -1.4080 C.3     1  UNL1        0.0470
      7  C          6.4200    0.3780   -0.4020 C.2     1  UNL1       -0.0470
      8  C          5.7700    1.5790   -0.5480 C.2     1  UNL1        0.0040
      9  C          6.2060   -0.3180    0.7620 C.2     1  UNL1        0.0040
     10  C          4.9310    2.0980    0.4080 C.2     1  UNL1        0.0000
     11  C          5.3730    0.1730    1.7410 C.2     1  UNL1        0.0000
     12  C          4.7220    1.3940    1.5750 C.2     1  UNL1        0.0000
@<TRIPOS>BOND
     1     1     6    1
     2     1     2    1
     3     6     7    1
     4     5     4    1
     5     4     2    1
     6     2     3    2
     7     8     7    2
     8     8    10    1
     9     7     9    1
    10    10    12    2
    11     9    11    2
    12    12    11    1
