@<TRIPOS>MOLECULE
/home/cewinharhar/GITHUB/reincatalyze/data/processed/docking_pred/2023-Apr-25-2140_maxeplen10_maxtrainstep200_exh16_gamma099_lrac3e-4_lrcr1e-3/67714d3181cdcfbe83529be90e704c7fe5693ba3_ligand_2.pdbqt
 12 12 0 0 0
SMALL
GASTEIGER

@<TRIPOS>ATOM
      1  C          8.4650   -0.5840   -2.2080 C.3     1  UNL1        0.1270
      2  C          8.5110   -1.8840   -2.9270 C.2     1  UNL1        0.3030
      3  O          9.5650   -2.5430   -3.1160 O.2     1  UNL1       -0.2520
      4  O          7.3320   -2.4180   -3.4240 O.3     1  UNL1       -0.4810
      5  H          6.7130   -1.7640   -3.9080 H       1  UNL1        0.2960
      6  C          7.0450   -0.1050   -2.1330 C.3     1  UNL1        0.0470
      7  C          6.5130   -0.0060   -0.7760 C.2     1  UNL1       -0.0470
      8  C          6.6260   -1.0010    0.1640 C.2     1  UNL1        0.0040
      9  C          5.8580    1.1420   -0.4030 C.2     1  UNL1        0.0040
     10  C          6.1190   -0.8910    1.4370 C.2     1  UNL1        0.0000
     11  C          5.3370    1.2850    0.8620 C.2     1  UNL1        0.0000
     12  C          5.4630    0.2650    1.8030 C.2     1  UNL1        0.0000
@<TRIPOS>BOND
     1     5     4    1
     2     4     2    1
     3     3     2    2
     4     2     1    1
     5     1     6    1
     6     6     7    1
     7     7     9    2
     8     7     8    1
     9     9    11    1
    10     8    10    2
    11    11    12    2
    12    10    12    1
