@<TRIPOS>MOLECULE
/home/cewinharhar/GITHUB/reincatalyze/data/processed/docking_pred/2023-Apr-25-2140_maxeplen10_maxtrainstep200_exh16_gamma099_lrac3e-4_lrcr1e-3/67714d3181cdcfbe83529be90e704c7fe5693ba3_ligand_2.pdbqt
 12 12 0 0 0
SMALL
GASTEIGER

@<TRIPOS>ATOM
      1  C          5.0100    1.8010    0.6930 C.3     1  UNL1        0.1270
      2  C          4.5230    1.0960    1.9080 C.2     1  UNL1        0.3030
      3  O          5.1640    0.1890    2.4970 O.2     1  UNL1       -0.2520
      4  O          3.2910    1.4480    2.4380 O.3     1  UNL1       -0.4810
      5  H          2.6990    0.6740    2.7490 H       1  UNL1        0.2960
      6  C          6.5110    1.8150    0.6920 C.3     1  UNL1        0.0470
      7  C          7.1210    1.0230   -0.3730 C.2     1  UNL1       -0.0470
      8  C          6.4410    0.0930   -1.1200 C.2     1  UNL1        0.0040
      9  C          8.4520    1.2080   -0.6560 C.2     1  UNL1        0.0040
     10  C          7.0310   -0.6430   -2.1190 C.2     1  UNL1        0.0000
     11  C          9.0750    0.4870   -1.6480 C.2     1  UNL1        0.0000
     12  C          8.3680   -0.4520   -2.3970 C.2     1  UNL1        0.0000
@<TRIPOS>BOND
     1    12    10    2
     2    12    11    1
     3    10     8    1
     4    11     9    2
     5     8     7    2
     6     9     7    1
     7     7     6    1
     8     6     1    1
     9     1     2    1
    10     2     4    1
    11     2     3    2
    12     4     5    1
