@<TRIPOS>MOLECULE
/home/cewinharhar/GITHUB/reincatalyze/data/processed/docking_pred/2023-Apr-25-2140_maxeplen10_maxtrainstep200_exh16_gamma099_lrac3e-4_lrcr1e-3/67714d3181cdcfbe83529be90e704c7fe5693ba3_ligand_2.pdbqt
 12 12 0 0 0
SMALL
GASTEIGER

@<TRIPOS>ATOM
      1  C          7.3440   -1.3230   -2.1430 C.3     1  UNL1        0.1270
      2  C          8.7860   -1.4040   -2.4950 C.2     1  UNL1        0.3030
      3  O          9.2940   -2.3410   -3.1610 O.2     1  UNL1       -0.2520
      4  O          9.6370   -0.3930   -2.0740 O.3     1  UNL1       -0.4810
      5  H          9.2890    0.2000   -1.3170 H       1  UNL1        0.2960
      6  C          7.1890   -1.4070   -0.6520 C.3     1  UNL1        0.0470
      7  C          6.4210   -0.3130   -0.0630 C.2     1  UNL1       -0.0470
      8  C          5.9250   -0.3300    1.2170 C.2     1  UNL1        0.0040
      9  C          6.1710    0.8050   -0.8210 C.2     1  UNL1        0.0040
     10  C          5.2040    0.7090    1.7560 C.2     1  UNL1        0.0000
     11  C          5.4520    1.8620   -0.3140 C.2     1  UNL1        0.0000
     12  C          4.9570    1.8270    0.9890 C.2     1  UNL1        0.0000
@<TRIPOS>BOND
     1     3     2    2
     2     2     1    1
     3     2     4    1
     4     1     6    1
     5     4     5    1
     6     9    11    1
     7     9     7    2
     8     6     7    1
     9    11    12    2
    10     7     8    1
    11    12    10    1
    12     8    10    2
