MODEL 1
REMARK VINA RESULT:      -7.4      0.000      0.000
REMARK SMILES O=C(O)CCc1ccccc1
REMARK SMILES IDX 4 1 2 2 1 3 3 4 5 6 6 7 7 8 11 9 8 10 10 11 9 12
REMARK H PARENT 3 5
REMARK Flexibility Score: inf
ROOT
ATOM      1  C   UNL     1       8.465  -0.584  -2.208  1.00  0.00     0.127 C 
ENDROOT
BRANCH   1   2
ATOM      2  C   UNL     1       8.511  -1.884  -2.927  1.00  0.00     0.303 C 
ATOM      3  O   UNL     1       9.565  -2.543  -3.116  1.00  0.00    -0.252 OA
BRANCH   2   4
ATOM      4  O   UNL     1       7.332  -2.418  -3.424  1.00  0.00    -0.481 OA
ATOM      5  H   UNL     1       6.713  -1.764  -3.908  1.00  0.00     0.296 HD
ENDBRANCH   2   4
ENDBRANCH   1   2
BRANCH   1   6
ATOM      6  C   UNL     1       7.045  -0.105  -2.133  1.00  0.00     0.047 C 
BRANCH   6   7
ATOM      7  C   UNL     1       6.513  -0.006  -0.776  1.00  0.00    -0.047 A 
ATOM      8  C   UNL     1       6.626  -1.001   0.164  1.00  0.00     0.004 A 
ATOM      9  C   UNL     1       5.858   1.142  -0.403  1.00  0.00     0.004 A 
ATOM     10  C   UNL     1       6.119  -0.891   1.437  1.00  0.00     0.000 A 
ATOM     11  C   UNL     1       5.337   1.285   0.862  1.00  0.00     0.000 A 
ATOM     12  C   UNL     1       5.463   0.265   1.803  1.00  0.00     0.000 A 
ENDBRANCH   6   7
ENDBRANCH   1   6
TORSDOF 4
ENDMDL
MODEL 2
REMARK VINA RESULT:      -7.3      0.089      1.428
REMARK SMILES O=C(O)CCc1ccccc1
REMARK SMILES IDX 4 1 2 2 1 3 3 4 5 6 6 7 7 8 11 9 8 10 10 11 9 12
REMARK H PARENT 3 5
REMARK Flexibility Score: inf
ROOT
ATOM      1  C   UNL     1       8.433  -0.547  -2.230  1.00  0.00     0.127 C 
ENDROOT
BRANCH   1   2
ATOM      2  C   UNL     1       8.516  -1.870  -2.902  1.00  0.00     0.303 C 
ATOM      3  O   UNL     1       9.588  -2.503  -3.073  1.00  0.00    -0.252 OA
BRANCH   2   4
ATOM      4  O   UNL     1       7.351  -2.456  -3.374  1.00  0.00    -0.481 OA
ATOM      5  H   UNL     1       7.398  -3.461  -3.559  1.00  0.00     0.296 HD
ENDBRANCH   2   4
ENDBRANCH   1   2
BRANCH   1   6
ATOM      6  C   UNL     1       7.001  -0.101  -2.179  1.00  0.00     0.047 C 
BRANCH   6   7
ATOM      7  C   UNL     1       6.474   0.088  -0.829  1.00  0.00    -0.047 A 
ATOM      8  C   UNL     1       5.841   1.231  -0.409  1.00  0.00     0.004 A 
ATOM      9  C   UNL     1       6.614  -0.928   0.084  1.00  0.00     0.004 A 
ATOM     10  C   UNL     1       5.351   1.392   0.865  1.00  0.00     0.000 A 
ATOM     11  C   UNL     1       6.137  -0.800   1.368  1.00  0.00     0.000 A 
ATOM     12  C   UNL     1       5.495   0.368   1.776  1.00  0.00     0.000 A 
ENDBRANCH   6   7
ENDBRANCH   1   6
TORSDOF 4
ENDMDL
MODEL 3
REMARK VINA RESULT:      -6.8      1.036      1.629
REMARK SMILES O=C(O)CCc1ccccc1
REMARK SMILES IDX 4 1 2 2 1 3 3 4 5 6 6 7 7 8 11 9 8 10 10 11 9 12
REMARK H PARENT 3 5
REMARK Flexibility Score: inf
ROOT
ATOM      1  C   UNL     1       7.344  -1.323  -2.143  1.00  0.00     0.127 C 
ENDROOT
BRANCH   1   2
ATOM      2  C   UNL     1       8.786  -1.404  -2.495  1.00  0.00     0.303 C 
ATOM      3  O   UNL     1       9.294  -2.341  -3.161  1.00  0.00    -0.252 OA
BRANCH   2   4
ATOM      4  O   UNL     1       9.637  -0.393  -2.074  1.00  0.00    -0.481 OA
ATOM      5  H   UNL     1       9.289   0.200  -1.317  1.00  0.00     0.296 HD
ENDBRANCH   2   4
ENDBRANCH   1   2
BRANCH   1   6
ATOM      6  C   UNL     1       7.189  -1.407  -0.652  1.00  0.00     0.047 C 
BRANCH   6   7
ATOM      7  C   UNL     1       6.421  -0.313  -0.063  1.00  0.00    -0.047 A 
ATOM      8  C   UNL     1       5.925  -0.330   1.217  1.00  0.00     0.004 A 
ATOM      9  C   UNL     1       6.171   0.805  -0.821  1.00  0.00     0.004 A 
ATOM     10  C   UNL     1       5.204   0.709   1.756  1.00  0.00     0.000 A 
ATOM     11  C   UNL     1       5.452   1.862  -0.314  1.00  0.00     0.000 A 
ATOM     12  C   UNL     1       4.957   1.827   0.989  1.00  0.00     0.000 A 
ENDBRANCH   6   7
ENDBRANCH   1   6
TORSDOF 4
ENDMDL
MODEL 4
REMARK VINA RESULT:      -6.8      3.371      5.067
REMARK SMILES O=C(O)CCc1ccccc1
REMARK SMILES IDX 4 1 2 2 1 3 3 4 5 6 6 7 7 8 11 9 8 10 10 11 9 12
REMARK H PARENT 3 5
REMARK Flexibility Score: inf
ROOT
ATOM      1  C   UNL     1       5.010   1.801   0.693  1.00  0.00     0.127 C 
ENDROOT
BRANCH   1   2
ATOM      2  C   UNL     1       4.523   1.096   1.908  1.00  0.00     0.303 C 
ATOM      3  O   UNL     1       5.164   0.189   2.497  1.00  0.00    -0.252 OA
BRANCH   2   4
ATOM      4  O   UNL     1       3.291   1.448   2.438  1.00  0.00    -0.481 OA
ATOM      5  H   UNL     1       2.699   0.674   2.749  1.00  0.00     0.296 HD
ENDBRANCH   2   4
ENDBRANCH   1   2
BRANCH   1   6
ATOM      6  C   UNL     1       6.511   1.815   0.692  1.00  0.00     0.047 C 
BRANCH   6   7
ATOM      7  C   UNL     1       7.121   1.023  -0.373  1.00  0.00    -0.047 A 
ATOM      8  C   UNL     1       6.441   0.093  -1.120  1.00  0.00     0.004 A 
ATOM      9  C   UNL     1       8.452   1.208  -0.656  1.00  0.00     0.004 A 
ATOM     10  C   UNL     1       7.031  -0.643  -2.119  1.00  0.00     0.000 A 
ATOM     11  C   UNL     1       9.075   0.487  -1.648  1.00  0.00     0.000 A 
ATOM     12  C   UNL     1       8.368  -0.452  -2.397  1.00  0.00     0.000 A 
ENDBRANCH   6   7
ENDBRANCH   1   6
TORSDOF 4
ENDMDL
MODEL 5
REMARK VINA RESULT:      -6.6      3.797      5.002
REMARK SMILES O=C(O)CCc1ccccc1
REMARK SMILES IDX 4 1 2 2 1 3 3 4 5 6 6 7 7 8 11 9 8 10 10 11 9 12
REMARK H PARENT 3 5
REMARK Flexibility Score: inf
ROOT
ATOM      1  C   UNL     1       5.328   2.913   0.049  1.00  0.00     0.127 C 
ENDROOT
BRANCH   1   2
ATOM      2  C   UNL     1       6.198   3.858   0.796  1.00  0.00     0.303 C 
ATOM      3  O   UNL     1       6.865   4.775   0.255  1.00  0.00    -0.252 OA
BRANCH   2   4
ATOM      4  O   UNL     1       6.291   3.736   2.175  1.00  0.00    -0.481 OA
ATOM      5  H   UNL     1       6.133   2.799   2.554  1.00  0.00     0.296 HD
ENDBRANCH   2   4
ENDBRANCH   1   2
BRANCH   1   6
ATOM      6  C   UNL     1       4.930   1.781   0.950  1.00  0.00     0.047 C 
BRANCH   6   7
ATOM      7  C   UNL     1       5.758   0.584   0.817  1.00  0.00    -0.047 A 
ATOM      8  C   UNL     1       6.489   0.281  -0.305  1.00  0.00     0.004 A 
ATOM      9  C   UNL     1       5.819  -0.299   1.866  1.00  0.00     0.004 A 
ATOM     10  C   UNL     1       7.263  -0.850  -0.413  1.00  0.00     0.000 A 
ATOM     11  C   UNL     1       6.583  -1.441   1.792  1.00  0.00     0.000 A 
ATOM     12  C   UNL     1       7.319  -1.731   0.645  1.00  0.00     0.000 A 
ENDBRANCH   6   7
ENDBRANCH   1   6
TORSDOF 4
ENDMDL
