@<TRIPOS>MOLECULE
/home/cewinharhar/GITHUB/reincatalyze/data/processed/docking_pred/2023-Apr-25-2140_maxeplen10_maxtrainstep200_exh16_gamma099_lrac3e-4_lrcr1e-3/67714d3181cdcfbe83529be90e704c7fe5693ba3_ligand_2.pdbqt
 12 12 0 0 0
SMALL
GASTEIGER

@<TRIPOS>ATOM
      1  C          8.4330   -0.5470   -2.2300 C.3     1  UNL1        0.1270
      2  C          8.5160   -1.8700   -2.9020 C.2     1  UNL1        0.3030
      3  O          9.5880   -2.5030   -3.0730 O.2     1  UNL1       -0.2520
      4  O          7.3510   -2.4560   -3.3740 O.3     1  UNL1       -0.4810
      5  H          7.3980   -3.4610   -3.5590 H       1  UNL1        0.2960
      6  C          7.0010   -0.1010   -2.1790 C.3     1  UNL1        0.0470
      7  C          6.4740    0.0880   -0.8290 C.2     1  UNL1       -0.0470
      8  C          5.8410    1.2310   -0.4090 C.2     1  UNL1        0.0040
      9  C          6.6140   -0.9280    0.0840 C.2     1  UNL1        0.0040
     10  C          5.3510    1.3920    0.8650 C.2     1  UNL1        0.0000
     11  C          6.1370   -0.8000    1.3680 C.2     1  UNL1        0.0000
     12  C          5.4950    0.3680    1.7760 C.2     1  UNL1        0.0000
@<TRIPOS>BOND
     1     5     4    1
     2     4     2    1
     3     3     2    2
     4     2     1    1
     5     1     6    1
     6     6     7    1
     7     7     8    2
     8     7     9    1
     9     8    10    1
    10     9    11    2
    11    10    12    2
    12    11    12    1
