@<TRIPOS>MOLECULE
/home/cewinharhar/GITHUB/reincatalyze/data/processed/docking_pred/2023-Apr-25-2140_maxeplen10_maxtrainstep200_exh16_gamma099_lrac3e-4_lrcr1e-3/67714d3181cdcfbe83529be90e704c7fe5693ba3_ligand_2.pdbqt
 12 12 0 0 0
SMALL
GASTEIGER

@<TRIPOS>ATOM
      1  C          5.3280    2.9130    0.0490 C.3     1  UNL1        0.1270
      2  C          6.1980    3.8580    0.7960 C.2     1  UNL1        0.3030
      3  O          6.8650    4.7750    0.2550 O.2     1  UNL1       -0.2520
      4  O          6.2910    3.7360    2.1750 O.3     1  UNL1       -0.4810
      5  H          6.1330    2.7990    2.5540 H       1  UNL1        0.2960
      6  C          4.9300    1.7810    0.9500 C.3     1  UNL1        0.0470
      7  C          5.7580    0.5840    0.8170 C.2     1  UNL1       -0.0470
      8  C          6.4890    0.2810   -0.3050 C.2     1  UNL1        0.0040
      9  C          5.8190   -0.2990    1.8660 C.2     1  UNL1        0.0040
     10  C          7.2630   -0.8500   -0.4130 C.2     1  UNL1        0.0000
     11  C          6.5830   -1.4410    1.7920 C.2     1  UNL1        0.0000
     12  C          7.3190   -1.7310    0.6450 C.2     1  UNL1        0.0000
@<TRIPOS>BOND
     1    10     8    1
     2    10    12    2
     3     8     7    2
     4     1     2    1
     5     1     6    1
     6     3     2    2
     7    12    11    1
     8     2     4    1
     9     7     6    1
    10     7     9    1
    11    11     9    2
    12     4     5    1
