@<TRIPOS>MOLECULE
/home/cewinharhar/GITHUB/reincatalyze/data/processed/docking_pred/2023-Apr-25-2140_maxeplen10_maxtrainstep200_exh16_gamma099_lrac3e-4_lrcr1e-3/677496c5c46bc5e4ac1ff58ba47d0b72a83fedc5_ligand_2.pdbqt
 12 12 0 0 0
SMALL
GASTEIGER

@<TRIPOS>ATOM
      1  C          4.9880    1.7850    0.6830 C.3     1  UNL1        0.1270
      2  C          4.5010    1.0960    1.9060 C.2     1  UNL1        0.3030
      3  O          5.1370    0.1870    2.4990 O.2     1  UNL1       -0.2520
      4  O          3.2760    1.4640    2.4410 O.3     1  UNL1       -0.4810
      5  H          3.3050    2.1520    3.1970 H       1  UNL1        0.2960
      6  C          6.4880    1.8130    0.6890 C.3     1  UNL1        0.0470
      7  C          7.1110    1.0240   -0.3710 C.2     1  UNL1       -0.0470
      8  C          6.4450    0.0800   -1.1130 C.2     1  UNL1        0.0040
      9  C          8.4390    1.2250   -0.6530 C.2     1  UNL1        0.0040
     10  C          7.0470   -0.6540   -2.1080 C.2     1  UNL1        0.0000
     11  C          9.0740    0.5080   -1.6410 C.2     1  UNL1        0.0000
     12  C          8.3810   -0.4460   -2.3850 C.2     1  UNL1        0.0000
@<TRIPOS>BOND
     1    12    10    2
     2    12    11    1
     3    10     8    1
     4    11     9    2
     5     8     7    2
     6     9     7    1
     7     7     6    1
     8     1     6    1
     9     1     2    1
    10     2     4    1
    11     2     3    2
    12     4     5    1
