MODEL 1
REMARK VINA RESULT:      -7.4      0.000      0.000
REMARK SMILES O=C(O)CCc1ccccc1
REMARK SMILES IDX 4 1 2 2 1 3 3 4 5 6 6 7 7 8 11 9 8 10 10 11 9 12
REMARK H PARENT 3 5
REMARK Flexibility Score: inf
ROOT
ATOM      1  C   UNL     1       8.453  -0.527  -2.253  1.00  0.00     0.127 C 
ENDROOT
BRANCH   1   2
ATOM      2  C   UNL     1       8.523  -1.856  -2.914  1.00  0.00     0.303 C 
ATOM      3  O   UNL     1       9.587  -2.507  -3.068  1.00  0.00    -0.252 OA
BRANCH   2   4
ATOM      4  O   UNL     1       7.355  -2.427  -3.396  1.00  0.00    -0.481 OA
ATOM      5  H   UNL     1       7.471  -3.247  -3.996  1.00  0.00     0.296 HD
ENDBRANCH   2   4
ENDBRANCH   1   2
BRANCH   1   6
ATOM      6  C   UNL     1       7.023  -0.077  -2.187  1.00  0.00     0.047 C 
BRANCH   6   7
ATOM      7  C   UNL     1       6.496   0.063  -0.831  1.00  0.00    -0.047 A 
ATOM      8  C   UNL     1       6.610  -0.904   0.137  1.00  0.00     0.004 A 
ATOM      9  C   UNL     1       5.845   1.223  -0.490  1.00  0.00     0.004 A 
ATOM     10  C   UNL     1       6.108  -0.756   1.408  1.00  0.00     0.000 A 
ATOM     11  C   UNL     1       5.329   1.404   0.773  1.00  0.00     0.000 A 
ATOM     12  C   UNL     1       5.456   0.411   1.743  1.00  0.00     0.000 A 
ENDBRANCH   6   7
ENDBRANCH   1   6
TORSDOF 4
ENDMDL
MODEL 2
REMARK VINA RESULT:      -7.3      0.051      1.425
REMARK SMILES O=C(O)CCc1ccccc1
REMARK SMILES IDX 4 1 2 2 1 3 3 4 5 6 6 7 7 8 11 9 8 10 10 11 9 12
REMARK H PARENT 3 5
REMARK Flexibility Score: inf
ROOT
ATOM      1  C   UNL     1       8.449  -0.555  -2.217  1.00  0.00     0.127 C 
ENDROOT
BRANCH   1   2
ATOM      2  C   UNL     1       8.522  -1.866  -2.913  1.00  0.00     0.303 C 
ATOM      3  O   UNL     1       9.588  -2.509  -3.086  1.00  0.00    -0.252 OA
BRANCH   2   4
ATOM      4  O   UNL     1       7.355  -2.429  -3.405  1.00  0.00    -0.481 OA
ATOM      5  H   UNL     1       6.541  -2.388  -2.787  1.00  0.00     0.296 HD
ENDBRANCH   2   4
ENDBRANCH   1   2
BRANCH   1   6
ATOM      6  C   UNL     1       7.024  -0.088  -2.178  1.00  0.00     0.047 C 
BRANCH   6   7
ATOM      7  C   UNL     1       6.484   0.093  -0.833  1.00  0.00    -0.047 A 
ATOM      8  C   UNL     1       5.824   1.225  -0.420  1.00  0.00     0.004 A 
ATOM      9  C   UNL     1       6.639  -0.916   0.085  1.00  0.00     0.004 A 
ATOM     10  C   UNL     1       5.323   1.379   0.850  1.00  0.00     0.000 A 
ATOM     11  C   UNL     1       6.150  -0.795   1.365  1.00  0.00     0.000 A 
ATOM     12  C   UNL     1       5.482   0.361   1.766  1.00  0.00     0.000 A 
ENDBRANCH   6   7
ENDBRANCH   1   6
TORSDOF 4
ENDMDL
MODEL 3
REMARK VINA RESULT:      -7.0      0.636      1.472
REMARK SMILES O=C(O)CCc1ccccc1
REMARK SMILES IDX 4 1 2 2 1 3 3 4 5 6 6 7 7 8 11 9 8 10 10 11 9 12
REMARK H PARENT 3 5
REMARK Flexibility Score: inf
ROOT
ATOM      1  C   UNL     1       8.337  -0.896  -1.839  1.00  0.00     0.127 C 
ENDROOT
BRANCH   1   2
ATOM      2  C   UNL     1       8.337  -1.994  -2.840  1.00  0.00     0.303 C 
ATOM      3  O   UNL     1       7.295  -2.476  -3.352  1.00  0.00    -0.252 OA
BRANCH   2   4
ATOM      4  O   UNL     1       9.550  -2.531  -3.247  1.00  0.00    -0.481 OA
ATOM      5  H   UNL     1       9.905  -3.310  -2.687  1.00  0.00     0.296 HD
ENDBRANCH   2   4
ENDBRANCH   1   2
BRANCH   1   6
ATOM      6  C   UNL     1       7.626  -1.351  -0.598  1.00  0.00     0.047 C 
BRANCH   6   7
ATOM      7  C   UNL     1       6.714  -0.362  -0.029  1.00  0.00    -0.047 A 
ATOM      8  C   UNL     1       6.186  -0.449   1.236  1.00  0.00     0.004 A 
ATOM      9  C   UNL     1       6.353   0.722  -0.789  1.00  0.00     0.004 A 
ATOM     10  C   UNL     1       5.328   0.490   1.757  1.00  0.00     0.000 A 
ATOM     11  C   UNL     1       5.496   1.681  -0.300  1.00  0.00     0.000 A 
ATOM     12  C   UNL     1       4.971   1.576   0.987  1.00  0.00     0.000 A 
ENDBRANCH   6   7
ENDBRANCH   1   6
TORSDOF 4
ENDMDL
MODEL 4
REMARK VINA RESULT:      -6.8      3.364      5.056
REMARK SMILES O=C(O)CCc1ccccc1
REMARK SMILES IDX 4 1 2 2 1 3 3 4 5 6 6 7 7 8 11 9 8 10 10 11 9 12
REMARK H PARENT 3 5
REMARK Flexibility Score: inf
ROOT
ATOM      1  C   UNL     1       4.988   1.785   0.683  1.00  0.00     0.127 C 
ENDROOT
BRANCH   1   2
ATOM      2  C   UNL     1       4.501   1.096   1.906  1.00  0.00     0.303 C 
ATOM      3  O   UNL     1       5.137   0.187   2.499  1.00  0.00    -0.252 OA
BRANCH   2   4
ATOM      4  O   UNL     1       3.276   1.464   2.441  1.00  0.00    -0.481 OA
ATOM      5  H   UNL     1       3.305   2.152   3.197  1.00  0.00     0.296 HD
ENDBRANCH   2   4
ENDBRANCH   1   2
BRANCH   1   6
ATOM      6  C   UNL     1       6.488   1.813   0.689  1.00  0.00     0.047 C 
BRANCH   6   7
ATOM      7  C   UNL     1       7.111   1.024  -0.371  1.00  0.00    -0.047 A 
ATOM      8  C   UNL     1       6.445   0.080  -1.113  1.00  0.00     0.004 A 
ATOM      9  C   UNL     1       8.439   1.225  -0.653  1.00  0.00     0.004 A 
ATOM     10  C   UNL     1       7.047  -0.654  -2.108  1.00  0.00     0.000 A 
ATOM     11  C   UNL     1       9.074   0.508  -1.641  1.00  0.00     0.000 A 
ATOM     12  C   UNL     1       8.381  -0.446  -2.385  1.00  0.00     0.000 A 
ENDBRANCH   6   7
ENDBRANCH   1   6
TORSDOF 4
ENDMDL
MODEL 5
REMARK VINA RESULT:      -6.6      2.064      2.715
REMARK SMILES O=C(O)CCc1ccccc1
REMARK SMILES IDX 4 1 2 2 1 3 3 4 5 6 6 7 7 8 11 9 8 10 10 11 9 12
REMARK H PARENT 3 5
REMARK Flexibility Score: inf
ROOT
ATOM      1  C   UNL     1       8.486   0.660  -1.730  1.00  0.00     0.127 C 
ENDROOT
BRANCH   1   2
ATOM      2  C   UNL     1       9.617   0.279  -0.844  1.00  0.00     0.303 C 
ATOM      3  O   UNL     1       9.506  -0.498   0.139  1.00  0.00    -0.252 OA
BRANCH   2   4
ATOM      4  O   UNL     1      10.875   0.801  -1.100  1.00  0.00    -0.481 OA
ATOM      5  H   UNL     1      10.903   1.634  -1.692  1.00  0.00     0.296 HD
ENDBRANCH   2   4
ENDBRANCH   1   2
BRANCH   1   6
ATOM      6  C   UNL     1       7.292  -0.190  -1.410  1.00  0.00     0.047 C 
BRANCH   6   7
ATOM      7  C   UNL     1       6.402   0.375  -0.399  1.00  0.00    -0.047 A 
ATOM      8  C   UNL     1       5.747   1.574  -0.541  1.00  0.00     0.004 A 
ATOM      9  C   UNL     1       6.198  -0.321   0.767  1.00  0.00     0.004 A 
ATOM     10  C   UNL     1       4.913   2.091   0.421  1.00  0.00     0.000 A 
ATOM     11  C   UNL     1       5.370   0.168   1.751  1.00  0.00     0.000 A 
ATOM     12  C   UNL     1       4.713   1.387   1.589  1.00  0.00     0.000 A 
ENDBRANCH   6   7
ENDBRANCH   1   6
TORSDOF 4
ENDMDL
