@<TRIPOS>MOLECULE
/home/cewinharhar/GITHUB/reincatalyze/data/processed/docking_pred/2023-Apr-25-2140_maxeplen10_maxtrainstep200_exh16_gamma099_lrac3e-4_lrcr1e-3/677496c5c46bc5e4ac1ff58ba47d0b72a83fedc5_ligand_2.pdbqt
 12 12 0 0 0
SMALL
GASTEIGER

@<TRIPOS>ATOM
      1  C          8.4860    0.6600   -1.7300 C.3     1  UNL1        0.1270
      2  C          9.6170    0.2790   -0.8440 C.2     1  UNL1        0.3030
      3  O          9.5060   -0.4980    0.1390 O.2     1  UNL1       -0.2520
      4  O         10.8750    0.8010   -1.1000 O.3     1  UNL1       -0.4810
      5  H         10.9030    1.6340   -1.6920 H       1  UNL1        0.2960
      6  C          7.2920   -0.1900   -1.4100 C.3     1  UNL1        0.0470
      7  C          6.4020    0.3750   -0.3990 C.2     1  UNL1       -0.0470
      8  C          5.7470    1.5740   -0.5410 C.2     1  UNL1        0.0040
      9  C          6.1980   -0.3210    0.7670 C.2     1  UNL1        0.0040
     10  C          4.9130    2.0910    0.4210 C.2     1  UNL1        0.0000
     11  C          5.3700    0.1680    1.7510 C.2     1  UNL1        0.0000
     12  C          4.7130    1.3870    1.5890 C.2     1  UNL1        0.0000
@<TRIPOS>BOND
     1     1     6    1
     2     1     2    1
     3     5     4    1
     4     6     7    1
     5     4     2    1
     6     2     3    2
     7     8     7    2
     8     8    10    1
     9     7     9    1
    10    10    12    2
    11     9    11    2
    12    12    11    1
