@<TRIPOS>MOLECULE
/home/cewinharhar/GITHUB/reincatalyze/data/processed/docking_pred/2023-Apr-25-2140_maxeplen10_maxtrainstep200_exh16_gamma099_lrac3e-4_lrcr1e-3/677496c5c46bc5e4ac1ff58ba47d0b72a83fedc5_ligand_2.pdbqt
 12 12 0 0 0
SMALL
GASTEIGER

@<TRIPOS>ATOM
      1  C          8.4530   -0.5270   -2.2530 C.3     1  UNL1        0.1270
      2  C          8.5230   -1.8560   -2.9140 C.2     1  UNL1        0.3030
      3  O          9.5870   -2.5070   -3.0680 O.2     1  UNL1       -0.2520
      4  O          7.3550   -2.4270   -3.3960 O.3     1  UNL1       -0.4810
      5  H          7.4710   -3.2470   -3.9960 H       1  UNL1        0.2960
      6  C          7.0230   -0.0770   -2.1870 C.3     1  UNL1        0.0470
      7  C          6.4960    0.0630   -0.8310 C.2     1  UNL1       -0.0470
      8  C          6.6100   -0.9040    0.1370 C.2     1  UNL1        0.0040
      9  C          5.8450    1.2230   -0.4900 C.2     1  UNL1        0.0040
     10  C          6.1080   -0.7560    1.4080 C.2     1  UNL1        0.0000
     11  C          5.3290    1.4040    0.7730 C.2     1  UNL1        0.0000
     12  C          5.4560    0.4110    1.7430 C.2     1  UNL1        0.0000
@<TRIPOS>BOND
     1     5     4    1
     2     4     2    1
     3     3     2    2
     4     2     1    1
     5     1     6    1
     6     6     7    1
     7     7     9    2
     8     7     8    1
     9     9    11    1
    10     8    10    2
    11    11    12    2
    12    10    12    1
