@<TRIPOS>MOLECULE
/home/cewinharhar/GITHUB/reincatalyze/data/processed/docking_pred/2023-Apr-25-2140_maxeplen10_maxtrainstep200_exh16_gamma099_lrac3e-4_lrcr1e-3/677496c5c46bc5e4ac1ff58ba47d0b72a83fedc5_ligand_2.pdbqt
 12 12 0 0 0
SMALL
GASTEIGER

@<TRIPOS>ATOM
      1  C          8.4490   -0.5550   -2.2170 C.3     1  UNL1        0.1270
      2  C          8.5220   -1.8660   -2.9130 C.2     1  UNL1        0.3030
      3  O          9.5880   -2.5090   -3.0860 O.2     1  UNL1       -0.2520
      4  O          7.3550   -2.4290   -3.4050 O.3     1  UNL1       -0.4810
      5  H          6.5410   -2.3880   -2.7870 H       1  UNL1        0.2960
      6  C          7.0240   -0.0880   -2.1780 C.3     1  UNL1        0.0470
      7  C          6.4840    0.0930   -0.8330 C.2     1  UNL1       -0.0470
      8  C          5.8240    1.2250   -0.4200 C.2     1  UNL1        0.0040
      9  C          6.6390   -0.9160    0.0850 C.2     1  UNL1        0.0040
     10  C          5.3230    1.3790    0.8500 C.2     1  UNL1        0.0000
     11  C          6.1500   -0.7950    1.3650 C.2     1  UNL1        0.0000
     12  C          5.4820    0.3610    1.7660 C.2     1  UNL1        0.0000
@<TRIPOS>BOND
     1     4     2    1
     2     4     5    1
     3     3     2    2
     4     2     1    1
     5     1     6    1
     6     6     7    1
     7     7     8    2
     8     7     9    1
     9     8    10    1
    10     9    11    2
    11    10    12    2
    12    11    12    1
