@<TRIPOS>MOLECULE
/home/cewinharhar/GITHUB/reincatalyze/data/processed/docking_pred/2023-Apr-25-2140_maxeplen10_maxtrainstep200_exh16_gamma099_lrac3e-4_lrcr1e-3/681e80220216c71ec10eb1429598bf11558fcb24_ligand_2.pdbqt
 12 12 0 0 0
SMALL
GASTEIGER

@<TRIPOS>ATOM
      1  C          8.2810    0.1870   -2.2080 C.3     1  UNL1        0.1270
      2  C          9.3930    0.3540   -1.2370 C.2     1  UNL1        0.3030
      3  O          9.5300   -0.3440   -0.2000 O.2     1  UNL1       -0.2520
      4  O         10.3480    1.3320   -1.4720 O.3     1  UNL1       -0.4810
      5  H         10.7150    1.8080   -0.6450 H       1  UNL1        0.2960
      6  C          7.1480   -0.5430   -1.5480 C.3     1  UNL1        0.0470
      7  C          6.3640    0.2700   -0.6210 C.2     1  UNL1       -0.0470
      8  C          5.8020    1.4790   -0.9520 C.2     1  UNL1        0.0040
      9  C          6.1690   -0.1860    0.6590 C.2     1  UNL1        0.0040
     10  C          5.0670    2.2320   -0.0680 C.2     1  UNL1        0.0000
     11  C          5.4400    0.5420    1.5700 C.2     1  UNL1        0.0000
     12  C          4.8770    1.7670    1.2160 C.2     1  UNL1        0.0000
@<TRIPOS>BOND
     1     1     6    1
     2     1     2    1
     3     6     7    1
     4     4     2    1
     5     4     5    1
     6     2     3    2
     7     8     7    2
     8     8    10    1
     9     7     9    1
    10    10    12    2
    11     9    11    2
    12    12    11    1
