@<TRIPOS>MOLECULE
/home/cewinharhar/GITHUB/reincatalyze/data/processed/docking_pred/2023-Apr-25-2140_maxeplen10_maxtrainstep200_exh16_gamma099_lrac3e-4_lrcr1e-3/681e80220216c71ec10eb1429598bf11558fcb24_ligand_2.pdbqt
 12 12 0 0 0
SMALL
GASTEIGER

@<TRIPOS>ATOM
      1  C          5.6000    2.9520    0.0580 C.3     1  UNL1        0.1270
      2  C          6.3190    3.9110    0.9370 C.2     1  UNL1        0.3030
      3  O          6.1400    3.9940    2.1790 O.2     1  UNL1       -0.2520
      4  O          7.2450    4.7750    0.3710 O.3     1  UNL1       -0.4810
      5  H          6.9800    5.7620    0.3450 H       1  UNL1        0.2960
      6  C          4.9970    1.8630    0.8960 C.3     1  UNL1        0.0470
      7  C          5.7700    0.6230    0.9220 C.2     1  UNL1       -0.0470
      8  C          5.8170   -0.2250    2.0010 C.2     1  UNL1        0.0040
      9  C          6.4980    0.2730   -0.1870 C.2     1  UNL1        0.0040
     10  C          6.5500   -1.3880    2.0100 C.2     1  UNL1        0.0000
     11  C          7.2440   -0.8830   -0.2130 C.2     1  UNL1        0.0000
     12  C          7.2780   -1.7330    0.8920 C.2     1  UNL1        0.0000
@<TRIPOS>BOND
     1    11     9    1
     2    11    12    2
     3     9     7    2
     4     1     6    1
     5     1     2    1
     6     5     4    1
     7     4     2    1
     8    12    10    1
     9     6     7    1
    10     7     8    1
    11     2     3    2
    12     8    10    2
