MODEL 1
REMARK VINA RESULT:      -7.4      0.000      0.000
REMARK SMILES O=C(O)CCc1ccccc1
REMARK SMILES IDX 4 1 2 2 1 3 3 4 5 6 6 7 7 8 11 9 8 10 10 11 9 12
REMARK H PARENT 3 5
REMARK Flexibility Score: inf
ROOT
ATOM      1  C   UNL     1       8.462  -0.593  -2.195  1.00  0.00     0.127 C 
ENDROOT
BRANCH   1   2
ATOM      2  C   UNL     1       8.531  -1.891  -2.915  1.00  0.00     0.303 C 
ATOM      3  O   UNL     1       9.595  -2.532  -3.104  1.00  0.00    -0.252 OA
BRANCH   2   4
ATOM      4  O   UNL     1       7.361  -2.443  -3.415  1.00  0.00    -0.481 OA
ATOM      5  H   UNL     1       7.430  -3.403  -3.761  1.00  0.00     0.296 HD
ENDBRANCH   2   4
ENDBRANCH   1   2
BRANCH   1   6
ATOM      6  C   UNL     1       7.038  -0.122  -2.149  1.00  0.00     0.047 C 
BRANCH   6   7
ATOM      7  C   UNL     1       6.491   0.016  -0.801  1.00  0.00    -0.047 A 
ATOM      8  C   UNL     1       6.570  -0.962   0.160  1.00  0.00     0.004 A 
ATOM      9  C   UNL     1       5.858   1.185  -0.459  1.00  0.00     0.004 A 
ATOM     10  C   UNL     1       6.050  -0.815   1.424  1.00  0.00     0.000 A 
ATOM     11  C   UNL     1       5.325   1.366   0.796  1.00  0.00     0.000 A 
ATOM     12  C   UNL     1       5.416   0.362   1.759  1.00  0.00     0.000 A 
ENDBRANCH   6   7
ENDBRANCH   1   6
TORSDOF 4
ENDMDL
MODEL 2
REMARK VINA RESULT:      -7.3      0.063      1.426
REMARK SMILES O=C(O)CCc1ccccc1
REMARK SMILES IDX 4 1 2 2 1 3 3 4 5 6 6 7 7 8 11 9 8 10 10 11 9 12
REMARK H PARENT 3 5
REMARK Flexibility Score: inf
ROOT
ATOM      1  C   UNL     1       8.445  -0.560  -2.216  1.00  0.00     0.127 C 
ENDROOT
BRANCH   1   2
ATOM      2  C   UNL     1       8.519  -1.869  -2.915  1.00  0.00     0.303 C 
ATOM      3  O   UNL     1       9.586  -2.509  -3.096  1.00  0.00    -0.252 OA
BRANCH   2   4
ATOM      4  O   UNL     1       7.351  -2.436  -3.402  1.00  0.00    -0.481 OA
ATOM      5  H   UNL     1       6.834  -1.880  -4.087  1.00  0.00     0.296 HD
ENDBRANCH   2   4
ENDBRANCH   1   2
BRANCH   1   6
ATOM      6  C   UNL     1       7.019  -0.095  -2.176  1.00  0.00     0.047 C 
BRANCH   6   7
ATOM      7  C   UNL     1       6.481   0.084  -0.829  1.00  0.00    -0.047 A 
ATOM      8  C   UNL     1       5.851   1.228  -0.404  1.00  0.00     0.004 A 
ATOM      9  C   UNL     1       6.604  -0.941   0.075  1.00  0.00     0.004 A 
ATOM     10  C   UNL     1       5.350   1.380   0.867  1.00  0.00     0.000 A 
ATOM     11  C   UNL     1       6.115  -0.823   1.356  1.00  0.00     0.000 A 
ATOM     12  C   UNL     1       5.478   0.346   1.769  1.00  0.00     0.000 A 
ENDBRANCH   6   7
ENDBRANCH   1   6
TORSDOF 4
ENDMDL
MODEL 3
REMARK VINA RESULT:      -6.8      3.345      5.043
REMARK SMILES O=C(O)CCc1ccccc1
REMARK SMILES IDX 4 1 2 2 1 3 3 4 5 6 6 7 7 8 11 9 8 10 10 11 9 12
REMARK H PARENT 3 5
REMARK Flexibility Score: inf
ROOT
ATOM      1  C   UNL     1       5.023   1.765   0.707  1.00  0.00     0.127 C 
ENDROOT
BRANCH   1   2
ATOM      2  C   UNL     1       4.597   1.031   1.927  1.00  0.00     0.303 C 
ATOM      3  O   UNL     1       5.294   0.153   2.496  1.00  0.00    -0.252 OA
BRANCH   2   4
ATOM      4  O   UNL     1       3.361   1.319   2.485  1.00  0.00    -0.481 OA
ATOM      5  H   UNL     1       2.623   1.584   1.828  1.00  0.00     0.296 HD
ENDBRANCH   2   4
ENDBRANCH   1   2
BRANCH   1   6
ATOM      6  C   UNL     1       6.522   1.829   0.660  1.00  0.00     0.047 C 
BRANCH   6   7
ATOM      7  C   UNL     1       7.129   1.018  -0.393  1.00  0.00    -0.047 A 
ATOM      8  C   UNL     1       6.440   0.093  -1.137  1.00  0.00     0.004 A 
ATOM      9  C   UNL     1       8.464   1.179  -0.666  1.00  0.00     0.004 A 
ATOM     10  C   UNL     1       7.026  -0.662  -2.125  1.00  0.00     0.000 A 
ATOM     11  C   UNL     1       9.084   0.440  -1.647  1.00  0.00     0.000 A 
ATOM     12  C   UNL     1       8.368  -0.495  -2.393  1.00  0.00     0.000 A 
ENDBRANCH   6   7
ENDBRANCH   1   6
TORSDOF 4
ENDMDL
MODEL 4
REMARK VINA RESULT:      -6.7      1.950      2.653
REMARK SMILES O=C(O)CCc1ccccc1
REMARK SMILES IDX 4 1 2 2 1 3 3 4 5 6 6 7 7 8 11 9 8 10 10 11 9 12
REMARK H PARENT 3 5
REMARK Flexibility Score: inf
ROOT
ATOM      1  C   UNL     1       8.281   0.187  -2.208  1.00  0.00     0.127 C 
ENDROOT
BRANCH   1   2
ATOM      2  C   UNL     1       9.393   0.354  -1.237  1.00  0.00     0.303 C 
ATOM      3  O   UNL     1       9.530  -0.344  -0.200  1.00  0.00    -0.252 OA
BRANCH   2   4
ATOM      4  O   UNL     1      10.348   1.332  -1.472  1.00  0.00    -0.481 OA
ATOM      5  H   UNL     1      10.715   1.808  -0.645  1.00  0.00     0.296 HD
ENDBRANCH   2   4
ENDBRANCH   1   2
BRANCH   1   6
ATOM      6  C   UNL     1       7.148  -0.543  -1.548  1.00  0.00     0.047 C 
BRANCH   6   7
ATOM      7  C   UNL     1       6.364   0.270  -0.621  1.00  0.00    -0.047 A 
ATOM      8  C   UNL     1       5.802   1.479  -0.952  1.00  0.00     0.004 A 
ATOM      9  C   UNL     1       6.169  -0.186   0.659  1.00  0.00     0.004 A 
ATOM     10  C   UNL     1       5.067   2.232  -0.068  1.00  0.00     0.000 A 
ATOM     11  C   UNL     1       5.440   0.542   1.570  1.00  0.00     0.000 A 
ATOM     12  C   UNL     1       4.877   1.767   1.216  1.00  0.00     0.000 A 
ENDBRANCH   6   7
ENDBRANCH   1   6
TORSDOF 4
ENDMDL
MODEL 5
REMARK VINA RESULT:      -6.5      3.828      4.995
REMARK SMILES O=C(O)CCc1ccccc1
REMARK SMILES IDX 4 1 2 2 1 3 3 4 5 6 6 7 7 8 11 9 8 10 10 11 9 12
REMARK H PARENT 3 5
REMARK Flexibility Score: inf
ROOT
ATOM      1  C   UNL     1       5.600   2.952   0.058  1.00  0.00     0.127 C 
ENDROOT
BRANCH   1   2
ATOM      2  C   UNL     1       6.319   3.911   0.937  1.00  0.00     0.303 C 
ATOM      3  O   UNL     1       6.140   3.994   2.179  1.00  0.00    -0.252 OA
BRANCH   2   4
ATOM      4  O   UNL     1       7.245   4.775   0.371  1.00  0.00    -0.481 OA
ATOM      5  H   UNL     1       6.980   5.762   0.345  1.00  0.00     0.296 HD
ENDBRANCH   2   4
ENDBRANCH   1   2
BRANCH   1   6
ATOM      6  C   UNL     1       4.997   1.863   0.896  1.00  0.00     0.047 C 
BRANCH   6   7
ATOM      7  C   UNL     1       5.770   0.623   0.922  1.00  0.00    -0.047 A 
ATOM      8  C   UNL     1       5.817  -0.225   2.001  1.00  0.00     0.004 A 
ATOM      9  C   UNL     1       6.498   0.273  -0.187  1.00  0.00     0.004 A 
ATOM     10  C   UNL     1       6.550  -1.388   2.010  1.00  0.00     0.000 A 
ATOM     11  C   UNL     1       7.244  -0.883  -0.213  1.00  0.00     0.000 A 
ATOM     12  C   UNL     1       7.278  -1.733   0.892  1.00  0.00     0.000 A 
ENDBRANCH   6   7
ENDBRANCH   1   6
TORSDOF 4
ENDMDL
