@<TRIPOS>MOLECULE
/home/cewinharhar/GITHUB/reincatalyze/data/processed/docking_pred/2023-Apr-25-2140_maxeplen10_maxtrainstep200_exh16_gamma099_lrac3e-4_lrcr1e-3/681e80220216c71ec10eb1429598bf11558fcb24_ligand_2.pdbqt
 12 12 0 0 0
SMALL
GASTEIGER

@<TRIPOS>ATOM
      1  C          8.4620   -0.5930   -2.1950 C.3     1  UNL1        0.1270
      2  C          8.5310   -1.8910   -2.9150 C.2     1  UNL1        0.3030
      3  O          9.5950   -2.5320   -3.1040 O.2     1  UNL1       -0.2520
      4  O          7.3610   -2.4430   -3.4150 O.3     1  UNL1       -0.4810
      5  H          7.4300   -3.4030   -3.7610 H       1  UNL1        0.2960
      6  C          7.0380   -0.1220   -2.1490 C.3     1  UNL1        0.0470
      7  C          6.4910    0.0160   -0.8010 C.2     1  UNL1       -0.0470
      8  C          6.5700   -0.9620    0.1600 C.2     1  UNL1        0.0040
      9  C          5.8580    1.1850   -0.4590 C.2     1  UNL1        0.0040
     10  C          6.0500   -0.8150    1.4240 C.2     1  UNL1        0.0000
     11  C          5.3250    1.3660    0.7960 C.2     1  UNL1        0.0000
     12  C          5.4160    0.3620    1.7590 C.2     1  UNL1        0.0000
@<TRIPOS>BOND
     1     5     4    1
     2     4     2    1
     3     3     2    2
     4     2     1    1
     5     1     6    1
     6     6     7    1
     7     7     9    2
     8     7     8    1
     9     9    11    1
    10     8    10    2
    11    11    12    2
    12    10    12    1
