@<TRIPOS>MOLECULE
/home/cewinharhar/GITHUB/reincatalyze/data/processed/docking_pred/2023-Apr-25-2140_maxeplen10_maxtrainstep200_exh16_gamma099_lrac3e-4_lrcr1e-3/681e80220216c71ec10eb1429598bf11558fcb24_ligand_2.pdbqt
 12 12 0 0 0
SMALL
GASTEIGER

@<TRIPOS>ATOM
      1  C          5.0230    1.7650    0.7070 C.3     1  UNL1        0.1270
      2  C          4.5970    1.0310    1.9270 C.2     1  UNL1        0.3030
      3  O          5.2940    0.1530    2.4960 O.2     1  UNL1       -0.2520
      4  O          3.3610    1.3190    2.4850 O.3     1  UNL1       -0.4810
      5  H          2.6230    1.5840    1.8280 H       1  UNL1        0.2960
      6  C          6.5220    1.8290    0.6600 C.3     1  UNL1        0.0470
      7  C          7.1290    1.0180   -0.3930 C.2     1  UNL1       -0.0470
      8  C          6.4400    0.0930   -1.1370 C.2     1  UNL1        0.0040
      9  C          8.4640    1.1790   -0.6660 C.2     1  UNL1        0.0040
     10  C          7.0260   -0.6620   -2.1250 C.2     1  UNL1        0.0000
     11  C          9.0840    0.4400   -1.6470 C.2     1  UNL1        0.0000
     12  C          8.3680   -0.4950   -2.3930 C.2     1  UNL1        0.0000
@<TRIPOS>BOND
     1    12    10    2
     2    12    11    1
     3    10     8    1
     4    11     9    2
     5     8     7    2
     6     9     7    1
     7     7     6    1
     8     6     1    1
     9     1     2    1
    10     5     4    1
    11     2     4    1
    12     2     3    2
