@<TRIPOS>MOLECULE
/home/cewinharhar/GITHUB/reincatalyze/data/processed/docking_pred/2023-Apr-25-2140_maxeplen10_maxtrainstep200_exh16_gamma099_lrac3e-4_lrcr1e-3/6b061a7890d75c8b26c884693b3b8f9ee5a9c423_ligand_2.pdbqt
 12 12 0 0 0
SMALL
GASTEIGER

@<TRIPOS>ATOM
      1  C          8.1280   -1.5460    1.1660 C.3     1  UNL1        0.1270
      2  C          8.4630   -2.7540    0.3660 C.2     1  UNL1        0.3030
      3  O          9.1270   -3.7250    0.8080 O.2     1  UNL1       -0.2520
      4  O          8.0260   -2.8300   -0.9470 O.3     1  UNL1       -0.4810
      5  H          7.2110   -2.2590   -1.1830 H       1  UNL1        0.2960
      6  C          6.6370   -1.4010    1.2490 C.3     1  UNL1        0.0470
      7  C          6.1230   -0.1390    0.7210 C.2     1  UNL1       -0.0470
      8  C          6.3520    0.3030   -0.5590 C.2     1  UNL1        0.0040
      9  C          5.3670    0.6620    1.5390 C.2     1  UNL1        0.0040
     10  C          5.8610    1.4930   -1.0400 C.2     1  UNL1        0.0000
     11  C          4.8600    1.8600    1.0910 C.2     1  UNL1        0.0000
     12  C          5.1020    2.2920   -0.2120 C.2     1  UNL1        0.0000
@<TRIPOS>BOND
     1     5     4    1
     2    10     8    1
     3    10    12    2
     4     4     2    1
     5     8     7    2
     6    12    11    1
     7     2     3    2
     8     2     1    1
     9     7     6    1
    10     7     9    1
    11    11     9    2
    12     1     6    1
