@<TRIPOS>MOLECULE
/home/cewinharhar/GITHUB/reincatalyze/data/processed/docking_pred/2023-Apr-25-2140_maxeplen10_maxtrainstep200_exh16_gamma099_lrac3e-4_lrcr1e-3/6b061a7890d75c8b26c884693b3b8f9ee5a9c423_ligand_2.pdbqt
 12 12 0 0 0
SMALL
GASTEIGER

@<TRIPOS>ATOM
      1  C          8.4240   -0.5290   -2.2720 C.3     1  UNL1        0.1270
      2  C          8.4900   -1.8620   -2.9240 C.2     1  UNL1        0.3030
      3  O          9.5480   -2.5290   -3.0510 O.2     1  UNL1       -0.2520
      4  O          7.3250   -2.4200   -3.4280 O.3     1  UNL1       -0.4810
      5  H          6.8960   -3.1530   -2.8580 H       1  UNL1        0.2960
      6  C          6.9920   -0.0950   -2.1640 C.3     1  UNL1        0.0470
      7  C          6.4940    0.0100   -0.7950 C.2     1  UNL1       -0.0470
      8  C          6.6070   -0.9910    0.1380 C.2     1  UNL1        0.0040
      9  C          5.8730    1.1700   -0.4030 C.2     1  UNL1        0.0040
     10  C          6.1330   -0.8750    1.4230 C.2     1  UNL1        0.0000
     11  C          5.3860    1.3200    0.8750 C.2     1  UNL1        0.0000
     12  C          5.5110    0.2930    1.8090 C.2     1  UNL1        0.0000
@<TRIPOS>BOND
     1     4     2    1
     2     4     5    1
     3     3     2    2
     4     2     1    1
     5     1     6    1
     6     6     7    1
     7     7     9    2
     8     7     8    1
     9     9    11    1
    10     8    10    2
    11    11    12    2
    12    10    12    1
