@<TRIPOS>MOLECULE
/home/cewinharhar/GITHUB/reincatalyze/data/processed/docking_pred/2023-Apr-25-2140_maxeplen10_maxtrainstep200_exh16_gamma099_lrac3e-4_lrcr1e-3/6b061a7890d75c8b26c884693b3b8f9ee5a9c423_ligand_2.pdbqt
 12 12 0 0 0
SMALL
GASTEIGER

@<TRIPOS>ATOM
      1  C          8.2580    0.1720   -2.1950 C.3     1  UNL1        0.1270
      2  C          9.3650    0.3330   -1.2170 C.2     1  UNL1        0.3030
      3  O          9.4980   -0.3730   -0.1850 O.2     1  UNL1       -0.2520
      4  O         10.3200    1.3140   -1.4390 O.3     1  UNL1       -0.4810
      5  H         10.5610    1.4910   -2.4170 H       1  UNL1        0.2960
      6  C          7.1140   -0.5460   -1.5410 C.3     1  UNL1        0.0470
      7  C          6.3390    0.2730   -0.6110 C.2     1  UNL1       -0.0470
      8  C          5.8090    1.4980   -0.9320 C.2     1  UNL1        0.0040
      9  C          6.1210   -0.1950    0.6600 C.2     1  UNL1        0.0040
     10  C          5.0820    2.2560   -0.0450 C.2     1  UNL1        0.0000
     11  C          5.3980    0.5370    1.5740 C.2     1  UNL1        0.0000
     12  C          4.8670    1.7790    1.2300 C.2     1  UNL1        0.0000
@<TRIPOS>BOND
     1     5     4    1
     2     1     6    1
     3     1     2    1
     4     6     7    1
     5     4     2    1
     6     2     3    2
     7     8     7    2
     8     8    10    1
     9     7     9    1
    10    10    12    2
    11     9    11    2
    12    12    11    1
