MODEL 1
REMARK VINA RESULT:      -7.3      0.000      0.000
REMARK SMILES O=C(O)CCc1ccccc1
REMARK SMILES IDX 4 1 2 2 1 3 3 4 5 6 6 7 7 8 11 9 8 10 10 11 9 12
REMARK H PARENT 3 5
REMARK Flexibility Score: inf
ROOT
ATOM      1  C   UNL     1       8.424  -0.529  -2.272  1.00  0.00     0.127 C 
ENDROOT
BRANCH   1   2
ATOM      2  C   UNL     1       8.490  -1.862  -2.924  1.00  0.00     0.303 C 
ATOM      3  O   UNL     1       9.548  -2.529  -3.051  1.00  0.00    -0.252 OA
BRANCH   2   4
ATOM      4  O   UNL     1       7.325  -2.420  -3.428  1.00  0.00    -0.481 OA
ATOM      5  H   UNL     1       6.896  -3.153  -2.858  1.00  0.00     0.296 HD
ENDBRANCH   2   4
ENDBRANCH   1   2
BRANCH   1   6
ATOM      6  C   UNL     1       6.992  -0.095  -2.164  1.00  0.00     0.047 C 
BRANCH   6   7
ATOM      7  C   UNL     1       6.494   0.010  -0.795  1.00  0.00    -0.047 A 
ATOM      8  C   UNL     1       6.607  -0.991   0.138  1.00  0.00     0.004 A 
ATOM      9  C   UNL     1       5.873   1.170  -0.403  1.00  0.00     0.004 A 
ATOM     10  C   UNL     1       6.133  -0.875   1.423  1.00  0.00     0.000 A 
ATOM     11  C   UNL     1       5.386   1.320   0.875  1.00  0.00     0.000 A 
ATOM     12  C   UNL     1       5.511   0.293   1.809  1.00  0.00     0.000 A 
ENDBRANCH   6   7
ENDBRANCH   1   6
TORSDOF 4
ENDMDL
MODEL 2
REMARK VINA RESULT:      -7.3      0.061      1.426
REMARK SMILES O=C(O)CCc1ccccc1
REMARK SMILES IDX 4 1 2 2 1 3 3 4 5 6 6 7 7 8 11 9 8 10 10 11 9 12
REMARK H PARENT 3 5
REMARK Flexibility Score: inf
ROOT
ATOM      1  C   UNL     1       8.421  -0.526  -2.283  1.00  0.00     0.127 C 
ENDROOT
BRANCH   1   2
ATOM      2  C   UNL     1       8.506  -1.868  -2.917  1.00  0.00     0.303 C 
ATOM      3  O   UNL     1       9.580  -2.503  -3.072  1.00  0.00    -0.252 OA
BRANCH   2   4
ATOM      4  O   UNL     1       7.342  -2.471  -3.368  1.00  0.00    -0.481 OA
ATOM      5  H   UNL     1       7.348  -2.786  -4.341  1.00  0.00     0.296 HD
ENDBRANCH   2   4
ENDBRANCH   1   2
BRANCH   1   6
ATOM      6  C   UNL     1       6.983  -0.105  -2.198  1.00  0.00     0.047 C 
BRANCH   6   7
ATOM      7  C   UNL     1       6.484   0.068  -0.836  1.00  0.00    -0.047 A 
ATOM      8  C   UNL     1       5.893   1.220  -0.378  1.00  0.00     0.004 A 
ATOM      9  C   UNL     1       6.606  -0.973   0.051  1.00  0.00     0.004 A 
ATOM     10  C   UNL     1       5.429   1.365   0.907  1.00  0.00     0.000 A 
ATOM     11  C   UNL     1       6.153  -0.862   1.345  1.00  0.00     0.000 A 
ATOM     12  C   UNL     1       5.555   0.316   1.791  1.00  0.00     0.000 A 
ENDBRANCH   6   7
ENDBRANCH   1   6
TORSDOF 4
ENDMDL
MODEL 3
REMARK VINA RESULT:      -6.8      3.377      5.072
REMARK SMILES O=C(O)CCc1ccccc1
REMARK SMILES IDX 4 1 2 2 1 3 3 4 5 6 6 7 7 8 11 9 8 10 10 11 9 12
REMARK H PARENT 3 5
REMARK Flexibility Score: inf
ROOT
ATOM      1  C   UNL     1       4.983   1.816   0.689  1.00  0.00     0.127 C 
ENDROOT
BRANCH   1   2
ATOM      2  C   UNL     1       4.498   1.107   1.903  1.00  0.00     0.303 C 
ATOM      3  O   UNL     1       5.136   0.193   2.483  1.00  0.00    -0.252 OA
BRANCH   2   4
ATOM      4  O   UNL     1       3.270   1.464   2.441  1.00  0.00    -0.481 OA
ATOM      5  H   UNL     1       3.277   1.746   3.424  1.00  0.00     0.296 HD
ENDBRANCH   2   4
ENDBRANCH   1   2
BRANCH   1   6
ATOM      6  C   UNL     1       6.482   1.883   0.717  1.00  0.00     0.047 C 
BRANCH   6   7
ATOM      7  C   UNL     1       7.140   1.117  -0.339  1.00  0.00    -0.047 A 
ATOM      8  C   UNL     1       8.476   1.219  -0.638  1.00  0.00     0.004 A 
ATOM      9  C   UNL     1       6.393   0.239  -1.085  1.00  0.00     0.004 A 
ATOM     10  C   UNL     1       9.080   0.490  -1.635  1.00  0.00     0.000 A 
ATOM     11  C   UNL     1       6.964  -0.506  -2.091  1.00  0.00     0.000 A 
ATOM     12  C   UNL     1       8.322  -0.388  -2.379  1.00  0.00     0.000 A 
ENDBRANCH   6   7
ENDBRANCH   1   6
TORSDOF 4
ENDMDL
MODEL 4
REMARK VINA RESULT:      -6.7      1.944      2.657
REMARK SMILES O=C(O)CCc1ccccc1
REMARK SMILES IDX 4 1 2 2 1 3 3 4 5 6 6 7 7 8 11 9 8 10 10 11 9 12
REMARK H PARENT 3 5
REMARK Flexibility Score: inf
ROOT
ATOM      1  C   UNL     1       8.258   0.172  -2.195  1.00  0.00     0.127 C 
ENDROOT
BRANCH   1   2
ATOM      2  C   UNL     1       9.365   0.333  -1.217  1.00  0.00     0.303 C 
ATOM      3  O   UNL     1       9.498  -0.373  -0.185  1.00  0.00    -0.252 OA
BRANCH   2   4
ATOM      4  O   UNL     1      10.320   1.314  -1.439  1.00  0.00    -0.481 OA
ATOM      5  H   UNL     1      10.561   1.491  -2.417  1.00  0.00     0.296 HD
ENDBRANCH   2   4
ENDBRANCH   1   2
BRANCH   1   6
ATOM      6  C   UNL     1       7.114  -0.546  -1.541  1.00  0.00     0.047 C 
BRANCH   6   7
ATOM      7  C   UNL     1       6.339   0.273  -0.611  1.00  0.00    -0.047 A 
ATOM      8  C   UNL     1       5.809   1.498  -0.932  1.00  0.00     0.004 A 
ATOM      9  C   UNL     1       6.121  -0.195   0.660  1.00  0.00     0.004 A 
ATOM     10  C   UNL     1       5.082   2.256  -0.045  1.00  0.00     0.000 A 
ATOM     11  C   UNL     1       5.398   0.537   1.574  1.00  0.00     0.000 A 
ATOM     12  C   UNL     1       4.867   1.779   1.230  1.00  0.00     0.000 A 
ENDBRANCH   6   7
ENDBRANCH   1   6
TORSDOF 4
ENDMDL
MODEL 5
REMARK VINA RESULT:      -6.5      1.900      2.875
REMARK SMILES O=C(O)CCc1ccccc1
REMARK SMILES IDX 4 1 2 2 1 3 3 4 5 6 6 7 7 8 11 9 8 10 10 11 9 12
REMARK H PARENT 3 5
REMARK Flexibility Score: inf
ROOT
ATOM      1  C   UNL     1       8.128  -1.546   1.166  1.00  0.00     0.127 C 
ENDROOT
BRANCH   1   2
ATOM      2  C   UNL     1       8.463  -2.754   0.366  1.00  0.00     0.303 C 
ATOM      3  O   UNL     1       9.127  -3.725   0.808  1.00  0.00    -0.252 OA
BRANCH   2   4
ATOM      4  O   UNL     1       8.026  -2.830  -0.947  1.00  0.00    -0.481 OA
ATOM      5  H   UNL     1       7.211  -2.259  -1.183  1.00  0.00     0.296 HD
ENDBRANCH   2   4
ENDBRANCH   1   2
BRANCH   1   6
ATOM      6  C   UNL     1       6.637  -1.401   1.249  1.00  0.00     0.047 C 
BRANCH   6   7
ATOM      7  C   UNL     1       6.123  -0.139   0.721  1.00  0.00    -0.047 A 
ATOM      8  C   UNL     1       6.352   0.303  -0.559  1.00  0.00     0.004 A 
ATOM      9  C   UNL     1       5.367   0.662   1.539  1.00  0.00     0.004 A 
ATOM     10  C   UNL     1       5.861   1.493  -1.040  1.00  0.00     0.000 A 
ATOM     11  C   UNL     1       4.860   1.860   1.091  1.00  0.00     0.000 A 
ATOM     12  C   UNL     1       5.102   2.292  -0.212  1.00  0.00     0.000 A 
ENDBRANCH   6   7
ENDBRANCH   1   6
TORSDOF 4
ENDMDL
