@<TRIPOS>MOLECULE
/home/cewinharhar/GITHUB/reincatalyze/data/processed/docking_pred/2023-Apr-25-2140_maxeplen10_maxtrainstep200_exh16_gamma099_lrac3e-4_lrcr1e-3/6b061a7890d75c8b26c884693b3b8f9ee5a9c423_ligand_2.pdbqt
 12 12 0 0 0
SMALL
GASTEIGER

@<TRIPOS>ATOM
      1  C          8.4210   -0.5260   -2.2830 C.3     1  UNL1        0.1270
      2  C          8.5060   -1.8680   -2.9170 C.2     1  UNL1        0.3030
      3  O          9.5800   -2.5030   -3.0720 O.2     1  UNL1       -0.2520
      4  O          7.3420   -2.4710   -3.3680 O.3     1  UNL1       -0.4810
      5  H          7.3480   -2.7860   -4.3410 H       1  UNL1        0.2960
      6  C          6.9830   -0.1050   -2.1980 C.3     1  UNL1        0.0470
      7  C          6.4840    0.0680   -0.8360 C.2     1  UNL1       -0.0470
      8  C          5.8930    1.2200   -0.3780 C.2     1  UNL1        0.0040
      9  C          6.6060   -0.9730    0.0510 C.2     1  UNL1        0.0040
     10  C          5.4290    1.3650    0.9070 C.2     1  UNL1        0.0000
     11  C          6.1530   -0.8620    1.3450 C.2     1  UNL1        0.0000
     12  C          5.5550    0.3160    1.7910 C.2     1  UNL1        0.0000
@<TRIPOS>BOND
     1     5     4    1
     2     4     2    1
     3     3     2    2
     4     2     1    1
     5     1     6    1
     6     6     7    1
     7     7     8    2
     8     7     9    1
     9     8    10    1
    10     9    11    2
    11    10    12    2
    12    11    12    1
