@<TRIPOS>MOLECULE
/home/cewinharhar/GITHUB/reincatalyze/data/processed/docking_pred/2023-Apr-25-2140_maxeplen10_maxtrainstep200_exh16_gamma099_lrac3e-4_lrcr1e-3/6b061a7890d75c8b26c884693b3b8f9ee5a9c423_ligand_2.pdbqt
 12 12 0 0 0
SMALL
GASTEIGER

@<TRIPOS>ATOM
      1  C          4.9830    1.8160    0.6890 C.3     1  UNL1        0.1270
      2  C          4.4980    1.1070    1.9030 C.2     1  UNL1        0.3030
      3  O          5.1360    0.1930    2.4830 O.2     1  UNL1       -0.2520
      4  O          3.2700    1.4640    2.4410 O.3     1  UNL1       -0.4810
      5  H          3.2770    1.7460    3.4240 H       1  UNL1        0.2960
      6  C          6.4820    1.8830    0.7170 C.3     1  UNL1        0.0470
      7  C          7.1400    1.1170   -0.3390 C.2     1  UNL1       -0.0470
      8  C          8.4760    1.2190   -0.6380 C.2     1  UNL1        0.0040
      9  C          6.3930    0.2390   -1.0850 C.2     1  UNL1        0.0040
     10  C          9.0800    0.4900   -1.6350 C.2     1  UNL1        0.0000
     11  C          6.9640   -0.5060   -2.0910 C.2     1  UNL1        0.0000
     12  C          8.3220   -0.3880   -2.3790 C.2     1  UNL1        0.0000
@<TRIPOS>BOND
     1    12    11    2
     2    12    10    1
     3    11     9    1
     4    10     8    2
     5     9     7    2
     6     8     7    1
     7     7     6    1
     8     1     6    1
     9     1     2    1
    10     2     4    1
    11     2     3    2
    12     4     5    1
