@<TRIPOS>MOLECULE
/home/cewinharhar/GITHUB/reincatalyze/data/processed/docking_pred/2023-Apr-25-2140_maxeplen10_maxtrainstep200_exh16_gamma099_lrac3e-4_lrcr1e-3/6ceeb54199aca0c96a32aff90fdf9e1d9b8e1f8c_ligand_2.pdbqt
 12 12 0 0 0
SMALL
GASTEIGER

@<TRIPOS>ATOM
      1  C          5.4170    2.8800    0.0220 C.3     1  UNL1        0.1270
      2  C          6.2320    3.8630    0.7820 C.2     1  UNL1        0.3030
      3  O          6.9150    4.7720    0.2460 O.2     1  UNL1       -0.2520
      4  O          6.2520    3.7890    2.1670 O.3     1  UNL1       -0.4810
      5  H          7.1530    3.5520    2.5900 H       1  UNL1        0.2960
      6  C          4.9290    1.8100    0.9530 C.3     1  UNL1        0.0470
      7  C          5.7400    0.5950    0.9550 C.2     1  UNL1       -0.0470
      8  C          6.5020    0.1830   -0.1110 C.2     1  UNL1        0.0040
      9  C          5.7530   -0.1920    2.0800 C.2     1  UNL1        0.0040
     10  C          7.2610   -0.9630   -0.0920 C.2     1  UNL1        0.0000
     11  C          6.4990   -1.3460    2.1330 C.2     1  UNL1        0.0000
     12  C          7.2670   -1.7480    1.0410 C.2     1  UNL1        0.0000
@<TRIPOS>BOND
     1     8    10    1
     2     8     7    2
     3    10    12    2
     4     1     2    1
     5     1     6    1
     6     3     2    2
     7     2     4    1
     8     6     7    1
     9     7     9    1
    10    12    11    1
    11     9    11    2
    12     4     5    1
