@<TRIPOS>MOLECULE
/home/cewinharhar/GITHUB/reincatalyze/data/processed/docking_pred/2023-Apr-25-2140_maxeplen10_maxtrainstep200_exh16_gamma099_lrac3e-4_lrcr1e-3/6ceeb54199aca0c96a32aff90fdf9e1d9b8e1f8c_ligand_2.pdbqt
 12 12 0 0 0
SMALL
GASTEIGER

@<TRIPOS>ATOM
      1  C          8.2580    0.3110   -2.1620 C.3     1  UNL1        0.1270
      2  C          9.3950    0.3520   -1.2060 C.2     1  UNL1        0.3030
      3  O          9.4850   -0.3850   -0.1910 O.2     1  UNL1       -0.2520
      4  O         10.4290    1.2480   -1.4310 O.3     1  UNL1       -0.4810
      5  H         11.1400    0.9530   -2.1040 H       1  UNL1        0.2960
      6  C          7.1460   -0.5110   -1.5800 C.3     1  UNL1        0.0470
      7  C          6.3800    0.1620   -0.5340 C.2     1  UNL1       -0.0470
      8  C          6.1850   -0.3550    0.7230 C.2     1  UNL1        0.0040
      9  C          5.8150    1.3830   -0.8080 C.2     1  UNL1        0.0040
     10  C          5.4610    0.2920    1.6960 C.2     1  UNL1        0.0000
     11  C          5.0840    2.0580    0.1410 C.2     1  UNL1        0.0000
     12  C          4.8970    1.5180    1.4130 C.2     1  UNL1        0.0000
@<TRIPOS>BOND
     1     1     6    1
     2     1     2    1
     3     5     4    1
     4     6     7    1
     5     4     2    1
     6     2     3    2
     7     9     7    2
     8     9    11    1
     9     7     8    1
    10    11    12    2
    11     8    10    2
    12    12    10    1
