@<TRIPOS>MOLECULE
/home/cewinharhar/GITHUB/reincatalyze/data/processed/docking_pred/2023-Apr-25-2140_maxeplen10_maxtrainstep200_exh16_gamma099_lrac3e-4_lrcr1e-3/6ceeb54199aca0c96a32aff90fdf9e1d9b8e1f8c_ligand_2.pdbqt
 12 12 0 0 0
SMALL
GASTEIGER

@<TRIPOS>ATOM
      1  C          8.4290   -0.5210   -2.2800 C.3     1  UNL1        0.1270
      2  C          8.4940   -1.8660   -2.9070 C.2     1  UNL1        0.3030
      3  O          9.5520   -2.5330   -3.0290 O.2     1  UNL1       -0.2520
      4  O          7.3260   -2.4370   -3.3920 O.3     1  UNL1       -0.4810
      5  H          7.3890   -3.4190   -3.6700 H       1  UNL1        0.2960
      6  C          6.9980   -0.0790   -2.1900 C.3     1  UNL1        0.0470
      7  C          6.4920    0.0580   -0.8260 C.2     1  UNL1       -0.0470
      8  C          6.5950   -0.9240    0.1290 C.2     1  UNL1        0.0040
      9  C          5.8750    1.2290   -0.4630 C.2     1  UNL1        0.0040
     10  C          6.1130   -0.7780    1.4080 C.2     1  UNL1        0.0000
     11  C          5.3810    1.4090    0.8080 C.2     1  UNL1        0.0000
     12  C          5.4950    0.4010    1.7650 C.2     1  UNL1        0.0000
@<TRIPOS>BOND
     1     5     4    1
     2     4     2    1
     3     3     2    2
     4     2     1    1
     5     1     6    1
     6     6     7    1
     7     7     9    2
     8     7     8    1
     9     9    11    1
    10     8    10    2
    11    11    12    2
    12    10    12    1
