@<TRIPOS>MOLECULE
/home/cewinharhar/GITHUB/reincatalyze/data/processed/docking_pred/2023-Apr-25-2140_maxeplen10_maxtrainstep200_exh16_gamma099_lrac3e-4_lrcr1e-3/6ceeb54199aca0c96a32aff90fdf9e1d9b8e1f8c_ligand_2.pdbqt
 12 12 0 0 0
SMALL
GASTEIGER

@<TRIPOS>ATOM
      1  C          8.4200   -0.6090   -2.1560 C.3     1  UNL1        0.1270
      2  C          8.3630   -1.8850   -2.9150 C.2     1  UNL1        0.3030
      3  O          7.2940   -2.4380   -3.2780 O.2     1  UNL1       -0.2520
      4  O          9.5500   -2.5170   -3.2530 O.3     1  UNL1       -0.4810
      5  H         10.0270   -3.0100   -2.4940 H       1  UNL1        0.2960
      6  C          7.0560    0.0180   -2.1300 C.3     1  UNL1        0.0470
      7  C          6.4830    0.1620   -0.7940 C.2     1  UNL1       -0.0470
      8  C          5.8160    1.2830   -0.3650 C.2     1  UNL1        0.0040
      9  C          6.6110   -0.8750    0.0970 C.2     1  UNL1        0.0040
     10  C          5.2820    1.4010    0.8960 C.2     1  UNL1        0.0000
     11  C          6.0900   -0.7900    1.3680 C.2     1  UNL1        0.0000
     12  C          5.4150    0.3560    1.7850 C.2     1  UNL1        0.0000
@<TRIPOS>BOND
     1     3     2    2
     2     4     2    1
     3     4     5    1
     4     2     1    1
     5     1     6    1
     6     6     7    1
     7     7     8    2
     8     7     9    1
     9     8    10    1
    10     9    11    2
    11    10    12    2
    12    11    12    1
