MODEL 1
REMARK VINA RESULT:      -7.3      0.000      0.000
REMARK SMILES O=C(O)CCc1ccccc1
REMARK SMILES IDX 4 1 2 2 1 3 3 4 5 6 6 7 7 8 11 9 8 10 10 11 9 12
REMARK H PARENT 3 5
REMARK Flexibility Score: inf
ROOT
ATOM      1  C   UNL     1       8.429  -0.521  -2.280  1.00  0.00     0.127 C 
ENDROOT
BRANCH   1   2
ATOM      2  C   UNL     1       8.494  -1.866  -2.907  1.00  0.00     0.303 C 
ATOM      3  O   UNL     1       9.552  -2.533  -3.029  1.00  0.00    -0.252 OA
BRANCH   2   4
ATOM      4  O   UNL     1       7.326  -2.437  -3.392  1.00  0.00    -0.481 OA
ATOM      5  H   UNL     1       7.389  -3.419  -3.670  1.00  0.00     0.296 HD
ENDBRANCH   2   4
ENDBRANCH   1   2
BRANCH   1   6
ATOM      6  C   UNL     1       6.998  -0.079  -2.190  1.00  0.00     0.047 C 
BRANCH   6   7
ATOM      7  C   UNL     1       6.492   0.058  -0.826  1.00  0.00    -0.047 A 
ATOM      8  C   UNL     1       6.595  -0.924   0.129  1.00  0.00     0.004 A 
ATOM      9  C   UNL     1       5.875   1.229  -0.463  1.00  0.00     0.004 A 
ATOM     10  C   UNL     1       6.113  -0.778   1.408  1.00  0.00     0.000 A 
ATOM     11  C   UNL     1       5.381   1.409   0.808  1.00  0.00     0.000 A 
ATOM     12  C   UNL     1       5.495   0.401   1.765  1.00  0.00     0.000 A 
ENDBRANCH   6   7
ENDBRANCH   1   6
TORSDOF 4
ENDMDL
MODEL 2
REMARK VINA RESULT:      -7.3      0.128      1.721
REMARK SMILES O=C(O)CCc1ccccc1
REMARK SMILES IDX 4 1 2 2 1 3 3 4 5 6 6 7 7 8 11 9 8 10 10 11 9 12
REMARK H PARENT 3 5
REMARK Flexibility Score: inf
ROOT
ATOM      1  C   UNL     1       8.420  -0.609  -2.156  1.00  0.00     0.127 C 
ENDROOT
BRANCH   1   2
ATOM      2  C   UNL     1       8.363  -1.885  -2.915  1.00  0.00     0.303 C 
ATOM      3  O   UNL     1       7.294  -2.438  -3.278  1.00  0.00    -0.252 OA
BRANCH   2   4
ATOM      4  O   UNL     1       9.550  -2.517  -3.253  1.00  0.00    -0.481 OA
ATOM      5  H   UNL     1      10.027  -3.010  -2.494  1.00  0.00     0.296 HD
ENDBRANCH   2   4
ENDBRANCH   1   2
BRANCH   1   6
ATOM      6  C   UNL     1       7.056   0.018  -2.130  1.00  0.00     0.047 C 
BRANCH   6   7
ATOM      7  C   UNL     1       6.483   0.162  -0.794  1.00  0.00    -0.047 A 
ATOM      8  C   UNL     1       5.816   1.283  -0.365  1.00  0.00     0.004 A 
ATOM      9  C   UNL     1       6.611  -0.875   0.097  1.00  0.00     0.004 A 
ATOM     10  C   UNL     1       5.282   1.401   0.896  1.00  0.00     0.000 A 
ATOM     11  C   UNL     1       6.090  -0.790   1.368  1.00  0.00     0.000 A 
ATOM     12  C   UNL     1       5.415   0.356   1.785  1.00  0.00     0.000 A 
ENDBRANCH   6   7
ENDBRANCH   1   6
TORSDOF 4
ENDMDL
MODEL 3
REMARK VINA RESULT:      -6.8      3.330      5.011
REMARK SMILES O=C(O)CCc1ccccc1
REMARK SMILES IDX 4 1 2 2 1 3 3 4 5 6 6 7 7 8 11 9 8 10 10 11 9 12
REMARK H PARENT 3 5
REMARK Flexibility Score: inf
ROOT
ATOM      1  C   UNL     1       5.033   1.772   0.715  1.00  0.00     0.127 C 
ENDROOT
BRANCH   1   2
ATOM      2  C   UNL     1       4.594   1.034   1.927  1.00  0.00     0.303 C 
ATOM      3  O   UNL     1       5.280   0.147   2.495  1.00  0.00    -0.252 OA
BRANCH   2   4
ATOM      4  O   UNL     1       3.356   1.328   2.480  1.00  0.00    -0.481 OA
ATOM      5  H   UNL     1       3.357   1.583   3.470  1.00  0.00     0.296 HD
ENDBRANCH   2   4
ENDBRANCH   1   2
BRANCH   1   6
ATOM      6  C   UNL     1       6.532   1.824   0.677  1.00  0.00     0.047 C 
BRANCH   6   7
ATOM      7  C   UNL     1       7.138   1.017  -0.380  1.00  0.00    -0.047 A 
ATOM      8  C   UNL     1       6.456   0.072  -1.106  1.00  0.00     0.004 A 
ATOM      9  C   UNL     1       8.465   1.202  -0.675  1.00  0.00     0.004 A 
ATOM     10  C   UNL     1       7.042  -0.679  -2.097  1.00  0.00     0.000 A 
ATOM     11  C   UNL     1       9.084   0.468  -1.661  1.00  0.00     0.000 A 
ATOM     12  C   UNL     1       8.375  -0.487  -2.388  1.00  0.00     0.000 A 
ENDBRANCH   6   7
ENDBRANCH   1   6
TORSDOF 4
ENDMDL
MODEL 4
REMARK VINA RESULT:      -6.7      3.839      4.985
REMARK SMILES O=C(O)CCc1ccccc1
REMARK SMILES IDX 4 1 2 2 1 3 3 4 5 6 6 7 7 8 11 9 8 10 10 11 9 12
REMARK H PARENT 3 5
REMARK Flexibility Score: inf
ROOT
ATOM      1  C   UNL     1       5.417   2.880   0.022  1.00  0.00     0.127 C 
ENDROOT
BRANCH   1   2
ATOM      2  C   UNL     1       6.232   3.863   0.782  1.00  0.00     0.303 C 
ATOM      3  O   UNL     1       6.915   4.772   0.246  1.00  0.00    -0.252 OA
BRANCH   2   4
ATOM      4  O   UNL     1       6.252   3.789   2.167  1.00  0.00    -0.481 OA
ATOM      5  H   UNL     1       7.153   3.552   2.590  1.00  0.00     0.296 HD
ENDBRANCH   2   4
ENDBRANCH   1   2
BRANCH   1   6
ATOM      6  C   UNL     1       4.929   1.810   0.953  1.00  0.00     0.047 C 
BRANCH   6   7
ATOM      7  C   UNL     1       5.740   0.595   0.955  1.00  0.00    -0.047 A 
ATOM      8  C   UNL     1       6.502   0.183  -0.111  1.00  0.00     0.004 A 
ATOM      9  C   UNL     1       5.753  -0.192   2.080  1.00  0.00     0.004 A 
ATOM     10  C   UNL     1       7.261  -0.963  -0.092  1.00  0.00     0.000 A 
ATOM     11  C   UNL     1       6.499  -1.346   2.133  1.00  0.00     0.000 A 
ATOM     12  C   UNL     1       7.267  -1.748   1.041  1.00  0.00     0.000 A 
ENDBRANCH   6   7
ENDBRANCH   1   6
TORSDOF 4
ENDMDL
MODEL 5
REMARK VINA RESULT:      -6.7      1.927      2.238
REMARK SMILES O=C(O)CCc1ccccc1
REMARK SMILES IDX 4 1 2 2 1 3 3 4 5 6 6 7 7 8 11 9 8 10 10 11 9 12
REMARK H PARENT 3 5
REMARK Flexibility Score: inf
ROOT
ATOM      1  C   UNL     1       8.258   0.311  -2.162  1.00  0.00     0.127 C 
ENDROOT
BRANCH   1   2
ATOM      2  C   UNL     1       9.395   0.352  -1.206  1.00  0.00     0.303 C 
ATOM      3  O   UNL     1       9.485  -0.385  -0.191  1.00  0.00    -0.252 OA
BRANCH   2   4
ATOM      4  O   UNL     1      10.429   1.248  -1.431  1.00  0.00    -0.481 OA
ATOM      5  H   UNL     1      11.140   0.953  -2.104  1.00  0.00     0.296 HD
ENDBRANCH   2   4
ENDBRANCH   1   2
BRANCH   1   6
ATOM      6  C   UNL     1       7.146  -0.511  -1.580  1.00  0.00     0.047 C 
BRANCH   6   7
ATOM      7  C   UNL     1       6.380   0.162  -0.534  1.00  0.00    -0.047 A 
ATOM      8  C   UNL     1       6.185  -0.355   0.723  1.00  0.00     0.004 A 
ATOM      9  C   UNL     1       5.815   1.383  -0.808  1.00  0.00     0.004 A 
ATOM     10  C   UNL     1       5.461   0.292   1.696  1.00  0.00     0.000 A 
ATOM     11  C   UNL     1       5.084   2.058   0.141  1.00  0.00     0.000 A 
ATOM     12  C   UNL     1       4.897   1.518   1.413  1.00  0.00     0.000 A 
ENDBRANCH   6   7
ENDBRANCH   1   6
TORSDOF 4
ENDMDL
