@<TRIPOS>MOLECULE
/home/cewinharhar/GITHUB/reincatalyze/data/processed/docking_pred/2023-Apr-25-2140_maxeplen10_maxtrainstep200_exh16_gamma099_lrac3e-4_lrcr1e-3/6ceeb54199aca0c96a32aff90fdf9e1d9b8e1f8c_ligand_2.pdbqt
 12 12 0 0 0
SMALL
GASTEIGER

@<TRIPOS>ATOM
      1  C          5.0330    1.7720    0.7150 C.3     1  UNL1        0.1270
      2  C          4.5940    1.0340    1.9270 C.2     1  UNL1        0.3030
      3  O          5.2800    0.1470    2.4950 O.2     1  UNL1       -0.2520
      4  O          3.3560    1.3280    2.4800 O.3     1  UNL1       -0.4810
      5  H          3.3570    1.5830    3.4700 H       1  UNL1        0.2960
      6  C          6.5320    1.8240    0.6770 C.3     1  UNL1        0.0470
      7  C          7.1380    1.0170   -0.3800 C.2     1  UNL1       -0.0470
      8  C          6.4560    0.0720   -1.1060 C.2     1  UNL1        0.0040
      9  C          8.4650    1.2020   -0.6750 C.2     1  UNL1        0.0040
     10  C          7.0420   -0.6790   -2.0970 C.2     1  UNL1        0.0000
     11  C          9.0840    0.4680   -1.6610 C.2     1  UNL1        0.0000
     12  C          8.3750   -0.4870   -2.3880 C.2     1  UNL1        0.0000
@<TRIPOS>BOND
     1    12    10    2
     2    12    11    1
     3    10     8    1
     4    11     9    2
     5     8     7    2
     6     9     7    1
     7     7     6    1
     8     6     1    1
     9     1     2    1
    10     2     4    1
    11     2     3    2
    12     4     5    1
