@<TRIPOS>MOLECULE
/home/cewinharhar/GITHUB/reincatalyze/data/processed/docking_pred/2023-Apr-25-2140_maxeplen10_maxtrainstep200_exh16_gamma099_lrac3e-4_lrcr1e-3/6d158fe290fd5017d73aec191e5eef2bb245b649_ligand_2.pdbqt
 12 12 0 0 0
SMALL
GASTEIGER

@<TRIPOS>ATOM
      1  C          8.4360   -0.5210   -2.2740 C.3     1  UNL1        0.1270
      2  C          8.5120   -1.8480   -2.9380 C.2     1  UNL1        0.3030
      3  O          9.5800   -2.4900   -3.1000 O.2     1  UNL1       -0.2520
      4  O          7.3460   -2.4280   -3.4130 O.3     1  UNL1       -0.4810
      5  H          7.4210   -3.4010   -3.7190 H       1  UNL1        0.2960
      6  C          7.0020   -0.0860   -2.1880 C.3     1  UNL1        0.0470
      7  C          6.4920    0.0470   -0.8260 C.2     1  UNL1       -0.0470
      8  C          6.5980   -0.9330    0.1300 C.2     1  UNL1        0.0040
      9  C          5.8670    1.2150   -0.4640 C.2     1  UNL1        0.0040
     10  C          6.1120   -0.7910    1.4070 C.2     1  UNL1        0.0000
     11  C          5.3680    1.3910    0.8060 C.2     1  UNL1        0.0000
     12  C          5.4850    0.3840    1.7630 C.2     1  UNL1        0.0000
@<TRIPOS>BOND
     1     5     4    1
     2     4     2    1
     3     3     2    2
     4     2     1    1
     5     1     6    1
     6     6     7    1
     7     7     9    2
     8     7     8    1
     9     9    11    1
    10     8    10    2
    11    11    12    2
    12    10    12    1
