MODEL 1
REMARK VINA RESULT:      -7.4      0.000      0.000
REMARK SMILES O=C(O)CCc1ccccc1
REMARK SMILES IDX 4 1 2 2 1 3 3 4 5 6 6 7 7 8 11 9 8 10 10 11 9 12
REMARK H PARENT 3 5
REMARK Flexibility Score: inf
ROOT
ATOM      1  C   UNL     1       8.430  -0.595  -2.172  1.00  0.00     0.127 C 
ENDROOT
BRANCH   1   2
ATOM      2  C   UNL     1       8.491  -1.893  -2.893  1.00  0.00     0.303 C 
ATOM      3  O   UNL     1       9.551  -2.544  -3.076  1.00  0.00    -0.252 OA
BRANCH   2   4
ATOM      4  O   UNL     1       7.319  -2.434  -3.401  1.00  0.00    -0.481 OA
ATOM      5  H   UNL     1       7.278  -3.455  -3.441  1.00  0.00     0.296 HD
ENDBRANCH   2   4
ENDBRANCH   1   2
BRANCH   1   6
ATOM      6  C   UNL     1       7.008  -0.117  -2.124  1.00  0.00     0.047 C 
BRANCH   6   7
ATOM      7  C   UNL     1       6.470   0.042  -0.775  1.00  0.00    -0.047 A 
ATOM      8  C   UNL     1       5.832   1.176  -0.336  1.00  0.00     0.004 A 
ATOM      9  C   UNL     1       6.602  -0.992   0.117  1.00  0.00     0.004 A 
ATOM     10  C   UNL     1       5.331   1.309   0.937  1.00  0.00     0.000 A 
ATOM     11  C   UNL     1       6.114  -0.893   1.399  1.00  0.00     0.000 A 
ATOM     12  C   UNL     1       5.468   0.266   1.827  1.00  0.00     0.000 A 
ENDBRANCH   6   7
ENDBRANCH   1   6
TORSDOF 4
ENDMDL
MODEL 2
REMARK VINA RESULT:      -7.3      0.100      1.428
REMARK SMILES O=C(O)CCc1ccccc1
REMARK SMILES IDX 4 1 2 2 1 3 3 4 5 6 6 7 7 8 11 9 8 10 10 11 9 12
REMARK H PARENT 3 5
REMARK Flexibility Score: inf
ROOT
ATOM      1  C   UNL     1       8.436  -0.521  -2.274  1.00  0.00     0.127 C 
ENDROOT
BRANCH   1   2
ATOM      2  C   UNL     1       8.512  -1.848  -2.938  1.00  0.00     0.303 C 
ATOM      3  O   UNL     1       9.580  -2.490  -3.100  1.00  0.00    -0.252 OA
BRANCH   2   4
ATOM      4  O   UNL     1       7.346  -2.428  -3.413  1.00  0.00    -0.481 OA
ATOM      5  H   UNL     1       7.421  -3.401  -3.719  1.00  0.00     0.296 HD
ENDBRANCH   2   4
ENDBRANCH   1   2
BRANCH   1   6
ATOM      6  C   UNL     1       7.002  -0.086  -2.188  1.00  0.00     0.047 C 
BRANCH   6   7
ATOM      7  C   UNL     1       6.492   0.047  -0.826  1.00  0.00    -0.047 A 
ATOM      8  C   UNL     1       6.598  -0.933   0.130  1.00  0.00     0.004 A 
ATOM      9  C   UNL     1       5.867   1.215  -0.464  1.00  0.00     0.004 A 
ATOM     10  C   UNL     1       6.112  -0.791   1.407  1.00  0.00     0.000 A 
ATOM     11  C   UNL     1       5.368   1.391   0.806  1.00  0.00     0.000 A 
ATOM     12  C   UNL     1       5.485   0.384   1.763  1.00  0.00     0.000 A 
ENDBRANCH   6   7
ENDBRANCH   1   6
TORSDOF 4
ENDMDL
MODEL 3
REMARK VINA RESULT:      -6.8      3.368      5.082
REMARK SMILES O=C(O)CCc1ccccc1
REMARK SMILES IDX 4 1 2 2 1 3 3 4 5 6 6 7 7 8 11 9 8 10 10 11 9 12
REMARK H PARENT 3 5
REMARK Flexibility Score: inf
ROOT
ATOM      1  C   UNL     1       5.001   1.824   0.705  1.00  0.00     0.127 C 
ENDROOT
BRANCH   1   2
ATOM      2  C   UNL     1       4.509   1.105   1.910  1.00  0.00     0.303 C 
ATOM      3  O   UNL     1       5.145   0.187   2.487  1.00  0.00    -0.252 OA
BRANCH   2   4
ATOM      4  O   UNL     1       3.277   1.455   2.442  1.00  0.00    -0.481 OA
ATOM      5  H   UNL     1       2.579   0.709   2.486  1.00  0.00     0.296 HD
ENDBRANCH   2   4
ENDBRANCH   1   2
BRANCH   1   6
ATOM      6  C   UNL     1       6.501   1.830   0.706  1.00  0.00     0.047 C 
BRANCH   6   7
ATOM      7  C   UNL     1       7.108   1.033  -0.358  1.00  0.00    -0.047 A 
ATOM      8  C   UNL     1       6.430   0.086  -1.085  1.00  0.00     0.004 A 
ATOM      9  C   UNL     1       8.433   1.230  -0.659  1.00  0.00     0.004 A 
ATOM     10  C   UNL     1       7.017  -0.656  -2.082  1.00  0.00     0.000 A 
ATOM     11  C   UNL     1       9.053   0.505  -1.651  1.00  0.00     0.000 A 
ATOM     12  C   UNL     1       8.348  -0.452  -2.379  1.00  0.00     0.000 A 
ENDBRANCH   6   7
ENDBRANCH   1   6
TORSDOF 4
ENDMDL
MODEL 4
REMARK VINA RESULT:      -6.7      1.957      2.656
REMARK SMILES O=C(O)CCc1ccccc1
REMARK SMILES IDX 4 1 2 2 1 3 3 4 5 6 6 7 7 8 11 9 8 10 10 11 9 12
REMARK H PARENT 3 5
REMARK Flexibility Score: inf
ROOT
ATOM      1  C   UNL     1       8.295   0.166  -2.204  1.00  0.00     0.127 C 
ENDROOT
BRANCH   1   2
ATOM      2  C   UNL     1       9.399   0.331  -1.223  1.00  0.00     0.303 C 
ATOM      3  O   UNL     1       9.516  -0.357  -0.177  1.00  0.00    -0.252 OA
BRANCH   2   4
ATOM      4  O   UNL     1      10.366   1.296  -1.458  1.00  0.00    -0.481 OA
ATOM      5  H   UNL     1      10.021   2.240  -1.645  1.00  0.00     0.296 HD
ENDBRANCH   2   4
ENDBRANCH   1   2
BRANCH   1   6
ATOM      6  C   UNL     1       7.161  -0.576  -1.560  1.00  0.00     0.047 C 
BRANCH   6   7
ATOM      7  C   UNL     1       6.383   0.217  -0.611  1.00  0.00    -0.047 A 
ATOM      8  C   UNL     1       6.142  -0.165   0.686  1.00  0.00     0.004 A 
ATOM      9  C   UNL     1       5.855   1.415  -1.024  1.00  0.00     0.004 A 
ATOM     10  C   UNL     1       5.407   0.593   1.566  1.00  0.00     0.000 A 
ATOM     11  C   UNL     1       5.114   2.198  -0.170  1.00  0.00     0.000 A 
ATOM     12  C   UNL     1       4.881   1.794   1.144  1.00  0.00     0.000 A 
ENDBRANCH   6   7
ENDBRANCH   1   6
TORSDOF 4
ENDMDL
MODEL 5
REMARK VINA RESULT:      -6.5      3.700      5.096
REMARK SMILES O=C(O)CCc1ccccc1
REMARK SMILES IDX 4 1 2 2 1 3 3 4 5 6 6 7 7 8 11 9 8 10 10 11 9 12
REMARK H PARENT 3 5
REMARK Flexibility Score: inf
ROOT
ATOM      1  C   UNL     1       5.427   2.803   0.062  1.00  0.00     0.127 C 
ENDROOT
BRANCH   1   2
ATOM      2  C   UNL     1       6.209   3.756   0.892  1.00  0.00     0.303 C 
ATOM      3  O   UNL     1       6.278   3.701   2.146  1.00  0.00    -0.252 OA
BRANCH   2   4
ATOM      4  O   UNL     1       6.912   4.773   0.262  1.00  0.00    -0.481 OA
ATOM      5  H   UNL     1       7.341   5.468   0.877  1.00  0.00     0.296 HD
ENDBRANCH   2   4
ENDBRANCH   1   2
BRANCH   1   6
ATOM      6  C   UNL     1       5.350   1.478   0.762  1.00  0.00     0.047 C 
BRANCH   6   7
ATOM      7  C   UNL     1       6.138   0.418   0.135  1.00  0.00    -0.047 A 
ATOM      8  C   UNL     1       6.663  -0.650   0.820  1.00  0.00     0.004 A 
ATOM      9  C   UNL     1       6.376   0.480  -1.215  1.00  0.00     0.004 A 
ATOM     10  C   UNL     1       7.401  -1.639   0.215  1.00  0.00     0.000 A 
ATOM     11  C   UNL     1       7.112  -0.491  -1.853  1.00  0.00     0.000 A 
ATOM     12  C   UNL     1       7.636  -1.569  -1.142  1.00  0.00     0.000 A 
ENDBRANCH   6   7
ENDBRANCH   1   6
TORSDOF 4
ENDMDL
