@<TRIPOS>MOLECULE
/home/cewinharhar/GITHUB/reincatalyze/data/processed/docking_pred/2023-Apr-25-2140_maxeplen10_maxtrainstep200_exh16_gamma099_lrac3e-4_lrcr1e-3/6d158fe290fd5017d73aec191e5eef2bb245b649_ligand_2.pdbqt
 12 12 0 0 0
SMALL
GASTEIGER

@<TRIPOS>ATOM
      1  C          5.0010    1.8240    0.7050 C.3     1  UNL1        0.1270
      2  C          4.5090    1.1050    1.9100 C.2     1  UNL1        0.3030
      3  O          5.1450    0.1870    2.4870 O.2     1  UNL1       -0.2520
      4  O          3.2770    1.4550    2.4420 O.3     1  UNL1       -0.4810
      5  H          2.5790    0.7090    2.4860 H       1  UNL1        0.2960
      6  C          6.5010    1.8300    0.7060 C.3     1  UNL1        0.0470
      7  C          7.1080    1.0330   -0.3580 C.2     1  UNL1       -0.0470
      8  C          6.4300    0.0860   -1.0850 C.2     1  UNL1        0.0040
      9  C          8.4330    1.2300   -0.6590 C.2     1  UNL1        0.0040
     10  C          7.0170   -0.6560   -2.0820 C.2     1  UNL1        0.0000
     11  C          9.0530    0.5050   -1.6510 C.2     1  UNL1        0.0000
     12  C          8.3480   -0.4520   -2.3790 C.2     1  UNL1        0.0000
@<TRIPOS>BOND
     1    12    10    2
     2    12    11    1
     3    10     8    1
     4    11     9    2
     5     8     7    2
     6     9     7    1
     7     7     6    1
     8     1     6    1
     9     1     2    1
    10     2     4    1
    11     2     3    2
    12     4     5    1
