@<TRIPOS>MOLECULE
/home/cewinharhar/GITHUB/reincatalyze/data/processed/docking_pred/2023-Apr-25-2140_maxeplen10_maxtrainstep200_exh16_gamma099_lrac3e-4_lrcr1e-3/6d158fe290fd5017d73aec191e5eef2bb245b649_ligand_2.pdbqt
 12 12 0 0 0
SMALL
GASTEIGER

@<TRIPOS>ATOM
      1  C          5.4270    2.8030    0.0620 C.3     1  UNL1        0.1270
      2  C          6.2090    3.7560    0.8920 C.2     1  UNL1        0.3030
      3  O          6.2780    3.7010    2.1460 O.2     1  UNL1       -0.2520
      4  O          6.9120    4.7730    0.2620 O.3     1  UNL1       -0.4810
      5  H          7.3410    5.4680    0.8770 H       1  UNL1        0.2960
      6  C          5.3500    1.4780    0.7620 C.3     1  UNL1        0.0470
      7  C          6.1380    0.4180    0.1350 C.2     1  UNL1       -0.0470
      8  C          6.6630   -0.6500    0.8200 C.2     1  UNL1        0.0040
      9  C          6.3760    0.4800   -1.2150 C.2     1  UNL1        0.0040
     10  C          7.4010   -1.6390    0.2150 C.2     1  UNL1        0.0000
     11  C          7.1120   -0.4910   -1.8530 C.2     1  UNL1        0.0000
     12  C          7.6360   -1.5690   -1.1420 C.2     1  UNL1        0.0000
@<TRIPOS>BOND
     1    11     9    1
     2    11    12    2
     3     9     7    2
     4    12    10    1
     5     1     6    1
     6     1     2    1
     7     7     6    1
     8     7     8    1
     9    10     8    2
    10     4     5    1
    11     4     2    1
    12     2     3    2
