@<TRIPOS>MOLECULE
/home/cewinharhar/GITHUB/reincatalyze/data/processed/docking_pred/2023-Apr-25-2140_maxeplen10_maxtrainstep200_exh16_gamma099_lrac3e-4_lrcr1e-3/6d158fe290fd5017d73aec191e5eef2bb245b649_ligand_2.pdbqt
 12 12 0 0 0
SMALL
GASTEIGER

@<TRIPOS>ATOM
      1  C          8.4300   -0.5950   -2.1720 C.3     1  UNL1        0.1270
      2  C          8.4910   -1.8930   -2.8930 C.2     1  UNL1        0.3030
      3  O          9.5510   -2.5440   -3.0760 O.2     1  UNL1       -0.2520
      4  O          7.3190   -2.4340   -3.4010 O.3     1  UNL1       -0.4810
      5  H          7.2780   -3.4550   -3.4410 H       1  UNL1        0.2960
      6  C          7.0080   -0.1170   -2.1240 C.3     1  UNL1        0.0470
      7  C          6.4700    0.0420   -0.7750 C.2     1  UNL1       -0.0470
      8  C          5.8320    1.1760   -0.3360 C.2     1  UNL1        0.0040
      9  C          6.6020   -0.9920    0.1170 C.2     1  UNL1        0.0040
     10  C          5.3310    1.3090    0.9370 C.2     1  UNL1        0.0000
     11  C          6.1140   -0.8930    1.3990 C.2     1  UNL1        0.0000
     12  C          5.4680    0.2660    1.8270 C.2     1  UNL1        0.0000
@<TRIPOS>BOND
     1     5     4    1
     2     4     2    1
     3     3     2    2
     4     2     1    1
     5     1     6    1
     6     6     7    1
     7     7     8    2
     8     7     9    1
     9     8    10    1
    10     9    11    2
    11    10    12    2
    12    11    12    1
