@<TRIPOS>MOLECULE
/home/cewinharhar/GITHUB/reincatalyze/data/processed/docking_pred/2023-Apr-25-2140_maxeplen10_maxtrainstep200_exh16_gamma099_lrac3e-4_lrcr1e-3/6d158fe290fd5017d73aec191e5eef2bb245b649_ligand_2.pdbqt
 12 12 0 0 0
SMALL
GASTEIGER

@<TRIPOS>ATOM
      1  C          8.2950    0.1660   -2.2040 C.3     1  UNL1        0.1270
      2  C          9.3990    0.3310   -1.2230 C.2     1  UNL1        0.3030
      3  O          9.5160   -0.3570   -0.1770 O.2     1  UNL1       -0.2520
      4  O         10.3660    1.2960   -1.4580 O.3     1  UNL1       -0.4810
      5  H         10.0210    2.2400   -1.6450 H       1  UNL1        0.2960
      6  C          7.1610   -0.5760   -1.5600 C.3     1  UNL1        0.0470
      7  C          6.3830    0.2170   -0.6110 C.2     1  UNL1       -0.0470
      8  C          6.1420   -0.1650    0.6860 C.2     1  UNL1        0.0040
      9  C          5.8550    1.4150   -1.0240 C.2     1  UNL1        0.0040
     10  C          5.4070    0.5930    1.5660 C.2     1  UNL1        0.0000
     11  C          5.1140    2.1980   -0.1700 C.2     1  UNL1        0.0000
     12  C          4.8810    1.7940    1.1440 C.2     1  UNL1        0.0000
@<TRIPOS>BOND
     1     1     6    1
     2     1     2    1
     3     5     4    1
     4     6     7    1
     5     4     2    1
     6     2     3    2
     7     9     7    2
     8     9    11    1
     9     7     8    1
    10    11    12    2
    11     8    10    2
    12    12    10    1
