@<TRIPOS>MOLECULE
/home/cewinharhar/GITHUB/reincatalyze/data/processed/docking_pred/2023-Apr-25-2140_maxeplen10_maxtrainstep200_exh16_gamma099_lrac3e-4_lrcr1e-3/6dc168e099aae66a1c19408847f7f9495b2b5216_ligand_2.pdbqt
 12 12 0 0 0
SMALL
GASTEIGER

@<TRIPOS>ATOM
      1  C          8.3990   -0.6270   -2.1200 C.3     1  UNL1        0.1270
      2  C          8.3450   -1.8900   -2.9020 C.2     1  UNL1        0.3030
      3  O          7.2790   -2.4250   -3.2980 O.2     1  UNL1       -0.2520
      4  O          9.5330   -2.5290   -3.2250 O.3     1  UNL1       -0.4810
      5  H         10.3840   -2.1160   -2.8370 H       1  UNL1        0.2960
      6  C          7.0290   -0.0170   -2.0620 C.3     1  UNL1        0.0470
      7  C          6.4720    0.0890   -0.7160 C.2     1  UNL1       -0.0470
      8  C          6.5660   -0.9020    0.2300 C.2     1  UNL1        0.0040
      9  C          5.8120    1.2390   -0.3610 C.2     1  UNL1        0.0040
     10  C          6.0350   -0.7860    1.4930 C.2     1  UNL1        0.0000
     11  C          5.2680    1.3890    0.8940 C.2     1  UNL1        0.0000
     12  C          5.3740    0.3720    1.8420 C.2     1  UNL1        0.0000
@<TRIPOS>BOND
     1     3     2    2
     2     4     2    1
     3     4     5    1
     4     2     1    1
     5     1     6    1
     6     6     7    1
     7     7     9    2
     8     7     8    1
     9     9    11    1
    10     8    10    2
    11    11    12    2
    12    10    12    1
