@<TRIPOS>MOLECULE
/home/cewinharhar/GITHUB/reincatalyze/data/processed/docking_pred/2023-Apr-25-2140_maxeplen10_maxtrainstep200_exh16_gamma099_lrac3e-4_lrcr1e-3/6dc168e099aae66a1c19408847f7f9495b2b5216_ligand_2.pdbqt
 12 12 0 0 0
SMALL
GASTEIGER

@<TRIPOS>ATOM
      1  C          8.3950   -0.9610   -1.7500 C.3     1  UNL1        0.1270
      2  C          8.3560   -2.0120   -2.8010 C.2     1  UNL1        0.3030
      3  O          7.2960   -2.4510   -3.3150 O.2     1  UNL1       -0.2520
      4  O          9.5500   -2.5520   -3.2530 O.3     1  UNL1       -0.4810
      5  H         10.2950   -2.6400   -2.5580 H       1  UNL1        0.2960
      6  C          7.5410   -1.3820   -0.5910 C.3     1  UNL1        0.0470
      7  C          6.6610   -0.3350   -0.0770 C.2     1  UNL1       -0.0470
      8  C          6.3040    0.7820   -0.7910 C.2     1  UNL1        0.0040
      9  C          6.1550   -0.4600    1.1930 C.2     1  UNL1        0.0040
     10  C          5.4760    1.7580   -0.2920 C.2     1  UNL1        0.0000
     11  C          5.3230    0.4990    1.7250 C.2     1  UNL1        0.0000
     12  C          4.9710    1.6260    0.9840 C.2     1  UNL1        0.0000
@<TRIPOS>BOND
     1     3     2    2
     2     4     2    1
     3     4     5    1
     4     2     1    1
     5     1     6    1
     6     8    10    1
     7     8     7    2
     8     6     7    1
     9    10    12    2
    10     7     9    1
    11    12    11    1
    12     9    11    2
