@<TRIPOS>MOLECULE
/home/cewinharhar/GITHUB/reincatalyze/data/processed/docking_pred/2023-Apr-25-2140_maxeplen10_maxtrainstep200_exh16_gamma099_lrac3e-4_lrcr1e-3/6dc168e099aae66a1c19408847f7f9495b2b5216_ligand_2.pdbqt
 12 12 0 0 0
SMALL
GASTEIGER

@<TRIPOS>ATOM
      1  C          5.3180    2.9320    0.0580 C.3     1  UNL1        0.1270
      2  C          6.2100    3.8530    0.8090 C.2     1  UNL1        0.3030
      3  O          6.8770    4.7750    0.2740 O.2     1  UNL1       -0.2520
      4  O          6.3250    3.7030    2.1830 O.3     1  UNL1       -0.4810
      5  H          5.4470    3.6810    2.7060 H       1  UNL1        0.2960
      6  C          5.2690    1.6050    0.7560 C.3     1  UNL1        0.0470
      7  C          6.0480    0.5520    0.1080 C.2     1  UNL1       -0.0470
      8  C          6.3870    0.5610   -1.2230 C.2     1  UNL1        0.0040
      9  C          6.4730   -0.5150    0.8600 C.2     1  UNL1        0.0040
     10  C          7.1210   -0.4380   -1.8160 C.2     1  UNL1        0.0000
     11  C          7.2090   -1.5330    0.2980 C.2     1  UNL1        0.0000
     12  C          7.5440   -1.5060   -1.0550 C.2     1  UNL1        0.0000
@<TRIPOS>BOND
     1    10     8    1
     2    10    12    2
     3     8     7    2
     4    12    11    1
     5     1     6    1
     6     1     2    1
     7     7     6    1
     8     7     9    1
     9     3     2    2
    10    11     9    2
    11     2     4    1
    12     4     5    1
