MODEL 1
REMARK VINA RESULT:      -7.4      0.000      0.000
REMARK SMILES O=C(O)CCc1ccccc1
REMARK SMILES IDX 4 1 2 2 1 3 3 4 5 6 6 7 7 8 11 9 8 10 10 11 9 12
REMARK H PARENT 3 5
REMARK Flexibility Score: inf
ROOT
ATOM      1  C   UNL     1       8.433  -0.564  -2.206  1.00  0.00     0.127 C 
ENDROOT
BRANCH   1   2
ATOM      2  C   UNL     1       8.507  -1.869  -2.914  1.00  0.00     0.303 C 
ATOM      3  O   UNL     1       9.574  -2.512  -3.089  1.00  0.00    -0.252 OA
BRANCH   2   4
ATOM      4  O   UNL     1       7.341  -2.426  -3.417  1.00  0.00    -0.481 OA
ATOM      5  H   UNL     1       7.021  -2.060  -4.316  1.00  0.00     0.296 HD
ENDBRANCH   2   4
ENDBRANCH   1   2
BRANCH   1   6
ATOM      6  C   UNL     1       7.009  -0.093  -2.175  1.00  0.00     0.047 C 
BRANCH   6   7
ATOM      7  C   UNL     1       6.466   0.101  -0.832  1.00  0.00    -0.047 A 
ATOM      8  C   UNL     1       5.823   1.244  -0.426  1.00  0.00     0.004 A 
ATOM      9  C   UNL     1       6.600  -0.909   0.089  1.00  0.00     0.004 A 
ATOM     10  C   UNL     1       5.318   1.410   0.842  1.00  0.00     0.000 A 
ATOM     11  C   UNL     1       6.107  -0.776   1.366  1.00  0.00     0.000 A 
ATOM     12  C   UNL     1       5.456   0.392   1.761  1.00  0.00     0.000 A 
ENDBRANCH   6   7
ENDBRANCH   1   6
TORSDOF 4
ENDMDL
MODEL 2
REMARK VINA RESULT:      -7.3      0.127      1.723
REMARK SMILES O=C(O)CCc1ccccc1
REMARK SMILES IDX 4 1 2 2 1 3 3 4 5 6 6 7 7 8 11 9 8 10 10 11 9 12
REMARK H PARENT 3 5
REMARK Flexibility Score: inf
ROOT
ATOM      1  C   UNL     1       8.399  -0.627  -2.120  1.00  0.00     0.127 C 
ENDROOT
BRANCH   1   2
ATOM      2  C   UNL     1       8.345  -1.890  -2.902  1.00  0.00     0.303 C 
ATOM      3  O   UNL     1       7.279  -2.425  -3.298  1.00  0.00    -0.252 OA
BRANCH   2   4
ATOM      4  O   UNL     1       9.533  -2.529  -3.225  1.00  0.00    -0.481 OA
ATOM      5  H   UNL     1      10.384  -2.116  -2.837  1.00  0.00     0.296 HD
ENDBRANCH   2   4
ENDBRANCH   1   2
BRANCH   1   6
ATOM      6  C   UNL     1       7.029  -0.017  -2.062  1.00  0.00     0.047 C 
BRANCH   6   7
ATOM      7  C   UNL     1       6.472   0.089  -0.716  1.00  0.00    -0.047 A 
ATOM      8  C   UNL     1       6.566  -0.902   0.230  1.00  0.00     0.004 A 
ATOM      9  C   UNL     1       5.812   1.239  -0.361  1.00  0.00     0.004 A 
ATOM     10  C   UNL     1       6.035  -0.786   1.493  1.00  0.00     0.000 A 
ATOM     11  C   UNL     1       5.268   1.389   0.894  1.00  0.00     0.000 A 
ATOM     12  C   UNL     1       5.374   0.372   1.842  1.00  0.00     0.000 A 
ENDBRANCH   6   7
ENDBRANCH   1   6
TORSDOF 4
ENDMDL
MODEL 3
REMARK VINA RESULT:      -7.0      0.669      1.483
REMARK SMILES O=C(O)CCc1ccccc1
REMARK SMILES IDX 4 1 2 2 1 3 3 4 5 6 6 7 7 8 11 9 8 10 10 11 9 12
REMARK H PARENT 3 5
REMARK Flexibility Score: inf
ROOT
ATOM      1  C   UNL     1       8.395  -0.961  -1.750  1.00  0.00     0.127 C 
ENDROOT
BRANCH   1   2
ATOM      2  C   UNL     1       8.356  -2.012  -2.801  1.00  0.00     0.303 C 
ATOM      3  O   UNL     1       7.296  -2.451  -3.315  1.00  0.00    -0.252 OA
BRANCH   2   4
ATOM      4  O   UNL     1       9.550  -2.552  -3.253  1.00  0.00    -0.481 OA
ATOM      5  H   UNL     1      10.295  -2.640  -2.558  1.00  0.00     0.296 HD
ENDBRANCH   2   4
ENDBRANCH   1   2
BRANCH   1   6
ATOM      6  C   UNL     1       7.541  -1.382  -0.591  1.00  0.00     0.047 C 
BRANCH   6   7
ATOM      7  C   UNL     1       6.661  -0.335  -0.077  1.00  0.00    -0.047 A 
ATOM      8  C   UNL     1       6.304   0.782  -0.791  1.00  0.00     0.004 A 
ATOM      9  C   UNL     1       6.155  -0.460   1.193  1.00  0.00     0.004 A 
ATOM     10  C   UNL     1       5.476   1.758  -0.292  1.00  0.00     0.000 A 
ATOM     11  C   UNL     1       5.323   0.499   1.725  1.00  0.00     0.000 A 
ATOM     12  C   UNL     1       4.971   1.626   0.984  1.00  0.00     0.000 A 
ENDBRANCH   6   7
ENDBRANCH   1   6
TORSDOF 4
ENDMDL
MODEL 4
REMARK VINA RESULT:      -6.8      3.374      5.061
REMARK SMILES O=C(O)CCc1ccccc1
REMARK SMILES IDX 4 1 2 2 1 3 3 4 5 6 6 7 7 8 11 9 8 10 10 11 9 12
REMARK H PARENT 3 5
REMARK Flexibility Score: inf
ROOT
ATOM      1  C   UNL     1       4.984   1.818   0.696  1.00  0.00     0.127 C 
ENDROOT
BRANCH   1   2
ATOM      2  C   UNL     1       4.496   1.107   1.907  1.00  0.00     0.303 C 
ATOM      3  O   UNL     1       5.133   0.190   2.485  1.00  0.00    -0.252 OA
BRANCH   2   4
ATOM      4  O   UNL     1       3.269   1.463   2.445  1.00  0.00    -0.481 OA
ATOM      5  H   UNL     1       3.068   1.103   3.381  1.00  0.00     0.296 HD
ENDBRANCH   2   4
ENDBRANCH   1   2
BRANCH   1   6
ATOM      6  C   UNL     1       6.483   1.883   0.725  1.00  0.00     0.047 C 
BRANCH   6   7
ATOM      7  C   UNL     1       7.140   1.114  -0.329  1.00  0.00    -0.047 A 
ATOM      8  C   UNL     1       8.471   1.234  -0.646  1.00  0.00     0.004 A 
ATOM      9  C   UNL     1       6.398   0.215  -1.054  1.00  0.00     0.004 A 
ATOM     10  C   UNL     1       9.074   0.502  -1.641  1.00  0.00     0.000 A 
ATOM     11  C   UNL     1       6.969  -0.534  -2.057  1.00  0.00     0.000 A 
ATOM     12  C   UNL     1       8.322  -0.398  -2.364  1.00  0.00     0.000 A 
ENDBRANCH   6   7
ENDBRANCH   1   6
TORSDOF 4
ENDMDL
MODEL 5
REMARK VINA RESULT:      -6.6      3.701      4.964
REMARK SMILES O=C(O)CCc1ccccc1
REMARK SMILES IDX 4 1 2 2 1 3 3 4 5 6 6 7 7 8 11 9 8 10 10 11 9 12
REMARK H PARENT 3 5
REMARK Flexibility Score: inf
ROOT
ATOM      1  C   UNL     1       5.318   2.932   0.058  1.00  0.00     0.127 C 
ENDROOT
BRANCH   1   2
ATOM      2  C   UNL     1       6.210   3.853   0.809  1.00  0.00     0.303 C 
ATOM      3  O   UNL     1       6.877   4.775   0.274  1.00  0.00    -0.252 OA
BRANCH   2   4
ATOM      4  O   UNL     1       6.325   3.703   2.183  1.00  0.00    -0.481 OA
ATOM      5  H   UNL     1       5.447   3.681   2.706  1.00  0.00     0.296 HD
ENDBRANCH   2   4
ENDBRANCH   1   2
BRANCH   1   6
ATOM      6  C   UNL     1       5.269   1.605   0.756  1.00  0.00     0.047 C 
BRANCH   6   7
ATOM      7  C   UNL     1       6.048   0.552   0.108  1.00  0.00    -0.047 A 
ATOM      8  C   UNL     1       6.387   0.561  -1.223  1.00  0.00     0.004 A 
ATOM      9  C   UNL     1       6.473  -0.515   0.860  1.00  0.00     0.004 A 
ATOM     10  C   UNL     1       7.121  -0.438  -1.816  1.00  0.00     0.000 A 
ATOM     11  C   UNL     1       7.209  -1.533   0.298  1.00  0.00     0.000 A 
ATOM     12  C   UNL     1       7.544  -1.506  -1.055  1.00  0.00     0.000 A 
ENDBRANCH   6   7
ENDBRANCH   1   6
TORSDOF 4
ENDMDL
