@<TRIPOS>MOLECULE
/home/cewinharhar/GITHUB/reincatalyze/data/processed/docking_pred/2023-Apr-25-2140_maxeplen10_maxtrainstep200_exh16_gamma099_lrac3e-4_lrcr1e-3/6dc168e099aae66a1c19408847f7f9495b2b5216_ligand_2.pdbqt
 12 12 0 0 0
SMALL
GASTEIGER

@<TRIPOS>ATOM
      1  C          4.9840    1.8180    0.6960 C.3     1  UNL1        0.1270
      2  C          4.4960    1.1070    1.9070 C.2     1  UNL1        0.3030
      3  O          5.1330    0.1900    2.4850 O.2     1  UNL1       -0.2520
      4  O          3.2690    1.4630    2.4450 O.3     1  UNL1       -0.4810
      5  H          3.0680    1.1030    3.3810 H       1  UNL1        0.2960
      6  C          6.4830    1.8830    0.7250 C.3     1  UNL1        0.0470
      7  C          7.1400    1.1140   -0.3290 C.2     1  UNL1       -0.0470
      8  C          8.4710    1.2340   -0.6460 C.2     1  UNL1        0.0040
      9  C          6.3980    0.2150   -1.0540 C.2     1  UNL1        0.0040
     10  C          9.0740    0.5020   -1.6410 C.2     1  UNL1        0.0000
     11  C          6.9690   -0.5340   -2.0570 C.2     1  UNL1        0.0000
     12  C          8.3220   -0.3980   -2.3640 C.2     1  UNL1        0.0000
@<TRIPOS>BOND
     1    12    11    2
     2    12    10    1
     3    11     9    1
     4    10     8    2
     5     9     7    2
     6     8     7    1
     7     7     6    1
     8     1     6    1
     9     1     2    1
    10     2     4    1
    11     2     3    2
    12     4     5    1
