@<TRIPOS>MOLECULE
/home/cewinharhar/GITHUB/reincatalyze/data/processed/docking_pred/2023-Apr-25-2140_maxeplen10_maxtrainstep200_exh16_gamma099_lrac3e-4_lrcr1e-3/6e01533e6265e20f53eb8495178921d7241890ed_ligand_2.pdbqt
 12 12 0 0 0
SMALL
GASTEIGER

@<TRIPOS>ATOM
      1  C          5.0070    1.7700    0.6740 C.3     1  UNL1        0.1270
      2  C          4.6150    1.0480    1.9120 C.2     1  UNL1        0.3030
      3  O          5.3400    0.1940    2.4850 O.2     1  UNL1       -0.2520
      4  O          3.3820    1.3180    2.4840 O.3     1  UNL1       -0.4810
      5  H          3.3480    2.1180    3.1200 H       1  UNL1        0.2960
      6  C          6.5020    1.8850    0.6150 C.3     1  UNL1        0.0470
      7  C          7.1310    1.0640   -0.4180 C.2     1  UNL1       -0.0470
      8  C          6.4490    0.1620   -1.1970 C.2     1  UNL1        0.0040
      9  C          8.4800    1.1900   -0.6340 C.2     1  UNL1        0.0040
     10  C          7.0560   -0.6030   -2.1640 C.2     1  UNL1        0.0000
     11  C          9.1210    0.4400   -1.5930 C.2     1  UNL1        0.0000
     12  C          8.4120   -0.4710   -2.3750 C.2     1  UNL1        0.0000
@<TRIPOS>BOND
     1    12    10    2
     2    12    11    1
     3    10     8    1
     4    11     9    2
     5     8     7    2
     6     9     7    1
     7     7     6    1
     8     6     1    1
     9     1     2    1
    10     2     4    1
    11     2     3    2
    12     4     5    1
