@<TRIPOS>MOLECULE
/home/cewinharhar/GITHUB/reincatalyze/data/processed/docking_pred/2023-Apr-25-2140_maxeplen10_maxtrainstep200_exh16_gamma099_lrac3e-4_lrcr1e-3/6e01533e6265e20f53eb8495178921d7241890ed_ligand_2.pdbqt
 12 12 0 0 0
SMALL
GASTEIGER

@<TRIPOS>ATOM
      1  C          7.2930   -1.3040   -2.2660 C.3     1  UNL1        0.1270
      2  C          8.7540   -1.4000   -2.5210 C.2     1  UNL1        0.3030
      3  O          9.2960   -2.3450   -3.1480 O.2     1  UNL1       -0.2520
      4  O          9.5840   -0.3950   -2.0480 O.3     1  UNL1       -0.4810
      5  H          9.4680    0.5240   -2.4810 H       1  UNL1        0.2960
      6  C          7.0340   -1.4220   -0.7930 C.3     1  UNL1        0.0470
      7  C          6.3450   -0.2740   -0.2070 C.2     1  UNL1       -0.0470
      8  C          6.0740    0.8850   -0.8910 C.2     1  UNL1        0.0040
      9  C          5.9410   -0.3430    1.1030 C.2     1  UNL1        0.0040
     10  C          5.4250    1.9560   -0.3240 C.2     1  UNL1        0.0000
     11  C          5.2890    0.7100    1.7030 C.2     1  UNL1        0.0000
     12  C          5.0220    1.8790    0.9920 C.2     1  UNL1        0.0000
@<TRIPOS>BOND
     1     3     2    2
     2     2     1    1
     3     2     4    1
     4     5     4    1
     5     1     6    1
     6     8    10    1
     7     8     7    2
     8     6     7    1
     9    10    12    2
    10     7     9    1
    11    12    11    1
    12     9    11    2
