@<TRIPOS>MOLECULE
/home/cewinharhar/GITHUB/reincatalyze/data/processed/docking_pred/2023-Apr-25-2140_maxeplen10_maxtrainstep200_exh16_gamma099_lrac3e-4_lrcr1e-3/6e01533e6265e20f53eb8495178921d7241890ed_ligand_2.pdbqt
 12 12 0 0 0
SMALL
GASTEIGER

@<TRIPOS>ATOM
      1  C          5.5570    2.9840    0.0450 C.3     1  UNL1        0.1270
      2  C          6.2980    3.9170    0.9340 C.2     1  UNL1        0.3030
      3  O          6.1310    3.9820    2.1780 O.2     1  UNL1       -0.2520
      4  O          7.2330    4.7750    0.3740 O.3     1  UNL1       -0.4810
      5  H          8.1440    4.3650    0.1570 H       1  UNL1        0.2960
      6  C          4.9610    1.8790    0.8670 C.3     1  UNL1        0.0470
      7  C          5.7480    0.6490    0.8870 C.2     1  UNL1       -0.0470
      8  C          5.8470   -0.1770    1.9800 C.2     1  UNL1        0.0040
      9  C          6.4340    0.2830   -0.2440 C.2     1  UNL1        0.0040
     10  C          6.5930   -1.3320    1.9820 C.2     1  UNL1        0.0000
     11  C          7.1910   -0.8660   -0.2770 C.2     1  UNL1        0.0000
     12  C          7.2790   -1.6920    0.8420 C.2     1  UNL1        0.0000
@<TRIPOS>BOND
     1    11     9    1
     2    11    12    2
     3     9     7    2
     4     1     6    1
     5     1     2    1
     6     5     4    1
     7     4     2    1
     8    12    10    1
     9     6     7    1
    10     7     8    1
    11     2     3    2
    12     8    10    2
