@<TRIPOS>MOLECULE
/home/cewinharhar/GITHUB/reincatalyze/data/processed/docking_pred/2023-Apr-25-2140_maxeplen10_maxtrainstep200_exh16_gamma099_lrac3e-4_lrcr1e-3/6e01533e6265e20f53eb8495178921d7241890ed_ligand_2.pdbqt
 12 12 0 0 0
SMALL
GASTEIGER

@<TRIPOS>ATOM
      1  C          8.4430   -0.5920   -2.2000 C.3     1  UNL1        0.1270
      2  C          8.5080   -1.8910   -2.9190 C.2     1  UNL1        0.3030
      3  O          9.5700   -2.5370   -3.1060 O.2     1  UNL1       -0.2520
      4  O          7.3360   -2.4390   -3.4200 O.3     1  UNL1       -0.4810
      5  H          7.4020   -3.3990   -3.7650 H       1  UNL1        0.2960
      6  C          7.0180   -0.1260   -2.1380 C.3     1  UNL1        0.0470
      7  C          6.4870    0.0110   -0.7840 C.2     1  UNL1       -0.0470
      8  C          6.5810   -0.9650    0.1770 C.2     1  UNL1        0.0040
      9  C          5.8520    1.1780   -0.4360 C.2     1  UNL1        0.0040
     10  C          6.0750   -0.8190    1.4470 C.2     1  UNL1        0.0000
     11  C          5.3330    1.3580    0.8250 C.2     1  UNL1        0.0000
     12  C          5.4400    0.3550    1.7880 C.2     1  UNL1        0.0000
@<TRIPOS>BOND
     1     5     4    1
     2     4     2    1
     3     3     2    2
     4     2     1    1
     5     1     6    1
     6     6     7    1
     7     7     9    2
     8     7     8    1
     9     9    11    1
    10     8    10    2
    11    11    12    2
    12    10    12    1
