MODEL 1
REMARK VINA RESULT:      -7.4      0.000      0.000
REMARK SMILES O=C(O)CCc1ccccc1
REMARK SMILES IDX 4 1 2 2 1 3 3 4 5 6 6 7 7 8 11 9 8 10 10 11 9 12
REMARK H PARENT 3 5
REMARK Flexibility Score: inf
ROOT
ATOM      1  C   UNL     1       8.443  -0.592  -2.200  1.00  0.00     0.127 C 
ENDROOT
BRANCH   1   2
ATOM      2  C   UNL     1       8.508  -1.891  -2.919  1.00  0.00     0.303 C 
ATOM      3  O   UNL     1       9.570  -2.537  -3.106  1.00  0.00    -0.252 OA
BRANCH   2   4
ATOM      4  O   UNL     1       7.336  -2.439  -3.420  1.00  0.00    -0.481 OA
ATOM      5  H   UNL     1       7.402  -3.399  -3.765  1.00  0.00     0.296 HD
ENDBRANCH   2   4
ENDBRANCH   1   2
BRANCH   1   6
ATOM      6  C   UNL     1       7.018  -0.126  -2.138  1.00  0.00     0.047 C 
BRANCH   6   7
ATOM      7  C   UNL     1       6.487   0.011  -0.784  1.00  0.00    -0.047 A 
ATOM      8  C   UNL     1       6.581  -0.965   0.177  1.00  0.00     0.004 A 
ATOM      9  C   UNL     1       5.852   1.178  -0.436  1.00  0.00     0.004 A 
ATOM     10  C   UNL     1       6.075  -0.819   1.447  1.00  0.00     0.000 A 
ATOM     11  C   UNL     1       5.333   1.358   0.825  1.00  0.00     0.000 A 
ATOM     12  C   UNL     1       5.440   0.355   1.788  1.00  0.00     0.000 A 
ENDBRANCH   6   7
ENDBRANCH   1   6
TORSDOF 4
ENDMDL
MODEL 2
REMARK VINA RESULT:      -7.4      0.057      1.426
REMARK SMILES O=C(O)CCc1ccccc1
REMARK SMILES IDX 4 1 2 2 1 3 3 4 5 6 6 7 7 8 11 9 8 10 10 11 9 12
REMARK H PARENT 3 5
REMARK Flexibility Score: inf
ROOT
ATOM      1  C   UNL     1       8.439  -0.588  -2.193  1.00  0.00     0.127 C 
ENDROOT
BRANCH   1   2
ATOM      2  C   UNL     1       8.515  -1.887  -2.911  1.00  0.00     0.303 C 
ATOM      3  O   UNL     1       9.583  -2.523  -3.100  1.00  0.00    -0.252 OA
BRANCH   2   4
ATOM      4  O   UNL     1       7.347  -2.448  -3.407  1.00  0.00    -0.481 OA
ATOM      5  H   UNL     1       7.282  -3.467  -3.354  1.00  0.00     0.296 HD
ENDBRANCH   2   4
ENDBRANCH   1   2
BRANCH   1   6
ATOM      6  C   UNL     1       7.016  -0.113  -2.169  1.00  0.00     0.047 C 
BRANCH   6   7
ATOM      7  C   UNL     1       6.469   0.088  -0.829  1.00  0.00    -0.047 A 
ATOM      8  C   UNL     1       5.835   1.238  -0.427  1.00  0.00     0.004 A 
ATOM      9  C   UNL     1       6.588  -0.922   0.093  1.00  0.00     0.004 A 
ATOM     10  C   UNL     1       5.326   1.409   0.839  1.00  0.00     0.000 A 
ATOM     11  C   UNL     1       6.091  -0.784   1.368  1.00  0.00     0.000 A 
ATOM     12  C   UNL     1       5.450   0.390   1.759  1.00  0.00     0.000 A 
ENDBRANCH   6   7
ENDBRANCH   1   6
TORSDOF 4
ENDMDL
MODEL 3
REMARK VINA RESULT:      -6.8      1.027      1.967
REMARK SMILES O=C(O)CCc1ccccc1
REMARK SMILES IDX 4 1 2 2 1 3 3 4 5 6 6 7 7 8 11 9 8 10 10 11 9 12
REMARK H PARENT 3 5
REMARK Flexibility Score: inf
ROOT
ATOM      1  C   UNL     1       7.293  -1.304  -2.266  1.00  0.00     0.127 C 
ENDROOT
BRANCH   1   2
ATOM      2  C   UNL     1       8.754  -1.400  -2.521  1.00  0.00     0.303 C 
ATOM      3  O   UNL     1       9.296  -2.345  -3.148  1.00  0.00    -0.252 OA
BRANCH   2   4
ATOM      4  O   UNL     1       9.584  -0.395  -2.048  1.00  0.00    -0.481 OA
ATOM      5  H   UNL     1       9.468   0.524  -2.481  1.00  0.00     0.296 HD
ENDBRANCH   2   4
ENDBRANCH   1   2
BRANCH   1   6
ATOM      6  C   UNL     1       7.034  -1.422  -0.793  1.00  0.00     0.047 C 
BRANCH   6   7
ATOM      7  C   UNL     1       6.345  -0.274  -0.207  1.00  0.00    -0.047 A 
ATOM      8  C   UNL     1       6.074   0.885  -0.891  1.00  0.00     0.004 A 
ATOM      9  C   UNL     1       5.941  -0.343   1.103  1.00  0.00     0.004 A 
ATOM     10  C   UNL     1       5.425   1.956  -0.324  1.00  0.00     0.000 A 
ATOM     11  C   UNL     1       5.289   0.710   1.703  1.00  0.00     0.000 A 
ATOM     12  C   UNL     1       5.022   1.879   0.992  1.00  0.00     0.000 A 
ENDBRANCH   6   7
ENDBRANCH   1   6
TORSDOF 4
ENDMDL
MODEL 4
REMARK VINA RESULT:      -6.7      3.344      5.041
REMARK SMILES O=C(O)CCc1ccccc1
REMARK SMILES IDX 4 1 2 2 1 3 3 4 5 6 6 7 7 8 11 9 8 10 10 11 9 12
REMARK H PARENT 3 5
REMARK Flexibility Score: inf
ROOT
ATOM      1  C   UNL     1       5.007   1.770   0.674  1.00  0.00     0.127 C 
ENDROOT
BRANCH   1   2
ATOM      2  C   UNL     1       4.615   1.048   1.912  1.00  0.00     0.303 C 
ATOM      3  O   UNL     1       5.340   0.194   2.485  1.00  0.00    -0.252 OA
BRANCH   2   4
ATOM      4  O   UNL     1       3.382   1.318   2.484  1.00  0.00    -0.481 OA
ATOM      5  H   UNL     1       3.348   2.118   3.120  1.00  0.00     0.296 HD
ENDBRANCH   2   4
ENDBRANCH   1   2
BRANCH   1   6
ATOM      6  C   UNL     1       6.502   1.885   0.615  1.00  0.00     0.047 C 
BRANCH   6   7
ATOM      7  C   UNL     1       7.131   1.064  -0.418  1.00  0.00    -0.047 A 
ATOM      8  C   UNL     1       6.449   0.162  -1.197  1.00  0.00     0.004 A 
ATOM      9  C   UNL     1       8.480   1.190  -0.634  1.00  0.00     0.004 A 
ATOM     10  C   UNL     1       7.056  -0.603  -2.164  1.00  0.00     0.000 A 
ATOM     11  C   UNL     1       9.121   0.440  -1.593  1.00  0.00     0.000 A 
ATOM     12  C   UNL     1       8.412  -0.471  -2.375  1.00  0.00     0.000 A 
ENDBRANCH   6   7
ENDBRANCH   1   6
TORSDOF 4
ENDMDL
MODEL 5
REMARK VINA RESULT:      -6.6      3.819      4.989
REMARK SMILES O=C(O)CCc1ccccc1
REMARK SMILES IDX 4 1 2 2 1 3 3 4 5 6 6 7 7 8 11 9 8 10 10 11 9 12
REMARK H PARENT 3 5
REMARK Flexibility Score: inf
ROOT
ATOM      1  C   UNL     1       5.557   2.984   0.045  1.00  0.00     0.127 C 
ENDROOT
BRANCH   1   2
ATOM      2  C   UNL     1       6.298   3.917   0.934  1.00  0.00     0.303 C 
ATOM      3  O   UNL     1       6.131   3.982   2.178  1.00  0.00    -0.252 OA
BRANCH   2   4
ATOM      4  O   UNL     1       7.233   4.775   0.374  1.00  0.00    -0.481 OA
ATOM      5  H   UNL     1       8.144   4.365   0.157  1.00  0.00     0.296 HD
ENDBRANCH   2   4
ENDBRANCH   1   2
BRANCH   1   6
ATOM      6  C   UNL     1       4.961   1.879   0.867  1.00  0.00     0.047 C 
BRANCH   6   7
ATOM      7  C   UNL     1       5.748   0.649   0.887  1.00  0.00    -0.047 A 
ATOM      8  C   UNL     1       5.847  -0.177   1.980  1.00  0.00     0.004 A 
ATOM      9  C   UNL     1       6.434   0.283  -0.244  1.00  0.00     0.004 A 
ATOM     10  C   UNL     1       6.593  -1.332   1.982  1.00  0.00     0.000 A 
ATOM     11  C   UNL     1       7.191  -0.866  -0.277  1.00  0.00     0.000 A 
ATOM     12  C   UNL     1       7.279  -1.692   0.842  1.00  0.00     0.000 A 
ENDBRANCH   6   7
ENDBRANCH   1   6
TORSDOF 4
ENDMDL
