@<TRIPOS>MOLECULE
/home/cewinharhar/GITHUB/reincatalyze/data/processed/docking_pred/2023-Apr-25-2140_maxeplen10_maxtrainstep200_exh16_gamma099_lrac3e-4_lrcr1e-3/6e01533e6265e20f53eb8495178921d7241890ed_ligand_2.pdbqt
 12 12 0 0 0
SMALL
GASTEIGER

@<TRIPOS>ATOM
      1  C          8.4390   -0.5880   -2.1930 C.3     1  UNL1        0.1270
      2  C          8.5150   -1.8870   -2.9110 C.2     1  UNL1        0.3030
      3  O          9.5830   -2.5230   -3.1000 O.2     1  UNL1       -0.2520
      4  O          7.3470   -2.4480   -3.4070 O.3     1  UNL1       -0.4810
      5  H          7.2820   -3.4670   -3.3540 H       1  UNL1        0.2960
      6  C          7.0160   -0.1130   -2.1690 C.3     1  UNL1        0.0470
      7  C          6.4690    0.0880   -0.8290 C.2     1  UNL1       -0.0470
      8  C          5.8350    1.2380   -0.4270 C.2     1  UNL1        0.0040
      9  C          6.5880   -0.9220    0.0930 C.2     1  UNL1        0.0040
     10  C          5.3260    1.4090    0.8390 C.2     1  UNL1        0.0000
     11  C          6.0910   -0.7840    1.3680 C.2     1  UNL1        0.0000
     12  C          5.4500    0.3900    1.7590 C.2     1  UNL1        0.0000
@<TRIPOS>BOND
     1     4     5    1
     2     4     2    1
     3     3     2    2
     4     2     1    1
     5     1     6    1
     6     6     7    1
     7     7     8    2
     8     7     9    1
     9     8    10    1
    10     9    11    2
    11    10    12    2
    12    11    12    1
