@<TRIPOS>MOLECULE
/home/cewinharhar/GITHUB/reincatalyze/data/processed/docking_pred/2023-Apr-25-2140_maxeplen10_maxtrainstep200_exh16_gamma099_lrac3e-4_lrcr1e-3/6e6a373552f8835a6ba7a6c6fa001d8bbefa4498_ligand_2.pdbqt
 12 12 0 0 0
SMALL
GASTEIGER

@<TRIPOS>ATOM
      1  C          8.4860   -0.5900   -2.1960 C.3     1  UNL1        0.1270
      2  C          8.5270   -1.8880   -2.9180 C.2     1  UNL1        0.3030
      3  O          9.5770   -2.5520   -3.1080 O.2     1  UNL1       -0.2520
      4  O          7.3450   -2.4140   -3.4200 O.3     1  UNL1       -0.4810
      5  H          7.3490   -3.4180   -3.6140 H       1  UNL1        0.2960
      6  C          7.0740   -0.0810   -2.1630 C.3     1  UNL1        0.0470
      7  C          6.5140    0.0590   -0.8210 C.2     1  UNL1       -0.0470
      8  C          6.6040   -0.9090    0.1490 C.2     1  UNL1        0.0040
      9  C          5.8550    1.2180   -0.4960 C.2     1  UNL1        0.0040
     10  C          6.0710   -0.7610    1.4070 C.2     1  UNL1        0.0000
     11  C          5.3090    1.4000    0.7540 C.2     1  UNL1        0.0000
     12  C          5.4110    0.4060    1.7260 C.2     1  UNL1        0.0000
@<TRIPOS>BOND
     1     5     4    1
     2     4     2    1
     3     3     2    2
     4     2     1    1
     5     1     6    1
     6     6     7    1
     7     7     9    2
     8     7     8    1
     9     9    11    1
    10     8    10    2
    11    11    12    2
    12    10    12    1
