@<TRIPOS>MOLECULE
/home/cewinharhar/GITHUB/reincatalyze/data/processed/docking_pred/2023-Apr-25-2140_maxeplen10_maxtrainstep200_exh16_gamma099_lrac3e-4_lrcr1e-3/6e6a373552f8835a6ba7a6c6fa001d8bbefa4498_ligand_2.pdbqt
 12 12 0 0 0
SMALL
GASTEIGER

@<TRIPOS>ATOM
      1  C          8.0210   -1.3970    2.5170 C.3     1  UNL1        0.1270
      2  C          9.0350   -2.2650    1.8640 C.2     1  UNL1        0.3030
      3  O          8.7580   -3.1500    1.0150 O.2     1  UNL1       -0.2520
      4  O         10.3710   -2.1020    2.1970 O.3     1  UNL1       -0.4810
      5  H         10.5630   -1.8370    3.1660 H       1  UNL1        0.2960
      6  C          6.6970   -1.5740    1.8330 C.3     1  UNL1        0.0470
      7  C          6.2510   -0.4090    1.0710 C.2     1  UNL1       -0.0470
      8  C          6.5970   -0.1740   -0.2370 C.2     1  UNL1        0.0040
      9  C          5.4390    0.5120    1.6840 C.2     1  UNL1        0.0040
     10  C          6.1690    0.9270   -0.9390 C.2     1  UNL1        0.0000
     11  C          4.9920    1.6260    1.0110 C.2     1  UNL1        0.0000
     12  C          5.3540    1.8480   -0.3170 C.2     1  UNL1        0.0000
@<TRIPOS>BOND
     1    10    12    2
     2    10     8    1
     3    12    11    1
     4     8     7    2
     5    11     9    2
     6     3     2    2
     7     7     9    1
     8     7     6    1
     9     6     1    1
    10     2     4    1
    11     2     1    1
    12     4     5    1
