@<TRIPOS>MOLECULE
/home/cewinharhar/GITHUB/reincatalyze/data/processed/docking_pred/2023-Apr-25-2140_maxeplen10_maxtrainstep200_exh16_gamma099_lrac3e-4_lrcr1e-3/6e6a373552f8835a6ba7a6c6fa001d8bbefa4498_ligand_2.pdbqt
 12 12 0 0 0
SMALL
GASTEIGER

@<TRIPOS>ATOM
      1  C          8.3020    0.2400   -2.1630 C.3     1  UNL1        0.1270
      2  C          9.4140    0.3610   -1.1850 C.2     1  UNL1        0.3030
      3  O          9.5270   -0.3560   -0.1580 O.2     1  UNL1       -0.2520
      4  O         10.3960    1.3160   -1.4010 O.3     1  UNL1       -0.4810
      5  H         11.2500    0.9870   -1.8570 H       1  UNL1        0.2960
      6  C          7.1730   -0.5300   -1.5430 C.3     1  UNL1        0.0470
      7  C          6.3820    0.2310   -0.5780 C.2     1  UNL1       -0.0470
      8  C          6.1280   -0.1920    0.7030 C.2     1  UNL1        0.0040
      9  C          5.8560    1.4400   -0.9590 C.2     1  UNL1        0.0040
     10  C          5.3810    0.5360    1.5990 C.2     1  UNL1        0.0000
     11  C          5.1030    2.1950   -0.0890 C.2     1  UNL1        0.0000
     12  C          4.8560    1.7490    1.2080 C.2     1  UNL1        0.0000
@<TRIPOS>BOND
     1     1     6    1
     2     1     2    1
     3     5     4    1
     4     6     7    1
     5     4     2    1
     6     2     3    2
     7     9     7    2
     8     9    11    1
     9     7     8    1
    10    11    12    2
    11     8    10    2
    12    12    10    1
