@<TRIPOS>MOLECULE
/home/cewinharhar/GITHUB/reincatalyze/data/processed/docking_pred/2023-Apr-25-2140_maxeplen10_maxtrainstep200_exh16_gamma099_lrac3e-4_lrcr1e-3/6e6a373552f8835a6ba7a6c6fa001d8bbefa4498_ligand_2.pdbqt
 12 12 0 0 0
SMALL
GASTEIGER

@<TRIPOS>ATOM
      1  C          5.0090    1.7610    0.6990 C.3     1  UNL1        0.1270
      2  C          4.5120    1.0810    1.9240 C.2     1  UNL1        0.3030
      3  O          3.3990    1.3220    2.4570 O.2     1  UNL1       -0.2520
      4  O          5.3100    0.1220    2.5290 O.3     1  UNL1       -0.4810
      5  H          6.0130    0.4710    3.1840 H       1  UNL1        0.2960
      6  C          6.5080    1.8160    0.7320 C.3     1  UNL1        0.0470
      7  C          7.1640    1.0690   -0.3390 C.2     1  UNL1       -0.0470
      8  C          8.4960    1.1910   -0.6510 C.2     1  UNL1        0.0040
      9  C          6.4180    0.1920   -1.0870 C.2     1  UNL1        0.0040
     10  C          9.0960    0.4800   -1.6630 C.2     1  UNL1        0.0000
     11  C          6.9870   -0.5350   -2.1070 C.2     1  UNL1        0.0000
     12  C          8.3410   -0.3990   -2.4090 C.2     1  UNL1        0.0000
@<TRIPOS>BOND
     1    12    11    2
     2    12    10    1
     3    11     9    1
     4    10     8    2
     5     9     7    2
     6     8     7    1
     7     7     6    1
     8     1     6    1
     9     1     2    1
    10     2     3    2
    11     2     4    1
    12     4     5    1
