@<TRIPOS>MOLECULE
/home/cewinharhar/GITHUB/reincatalyze/data/processed/docking_pred/2023-Apr-25-2140_maxeplen10_maxtrainstep200_exh16_gamma099_lrac3e-4_lrcr1e-3/6e6a373552f8835a6ba7a6c6fa001d8bbefa4498_ligand_2.pdbqt
 12 12 0 0 0
SMALL
GASTEIGER

@<TRIPOS>ATOM
      1  C          8.4860   -0.6020   -2.1930 C.3     1  UNL1        0.1270
      2  C          8.5460   -1.8970   -2.9200 C.2     1  UNL1        0.3030
      3  O          9.6060   -2.5430   -3.1150 O.2     1  UNL1       -0.2520
      4  O          7.3720   -2.4400   -3.4200 O.3     1  UNL1       -0.4810
      5  H          6.5550   -2.3840   -2.8070 H       1  UNL1        0.2960
      6  C          7.0740   -0.0930   -2.1960 C.3     1  UNL1        0.0470
      7  C          6.5050    0.1170   -0.8670 C.2     1  UNL1       -0.0470
      8  C          5.8390    1.2580   -0.4910 C.2     1  UNL1        0.0040
      9  C          6.6350   -0.8760    0.0730 C.2     1  UNL1        0.0040
     10  C          5.3100    1.4380    0.7640 C.2     1  UNL1        0.0000
     11  C          6.1170   -0.7280    1.3390 C.2     1  UNL1        0.0000
     12  C          5.4440    0.4370    1.7020 C.2     1  UNL1        0.0000
@<TRIPOS>BOND
     1     4     2    1
     2     4     5    1
     3     3     2    2
     4     2     1    1
     5     6     1    1
     6     6     7    1
     7     7     8    2
     8     7     9    1
     9     8    10    1
    10     9    11    2
    11    10    12    2
    12    11    12    1
