@<TRIPOS>MOLECULE
/home/cewinharhar/GITHUB/reincatalyze/data/processed/docking_pred/2023-Apr-25-2140_maxeplen10_maxtrainstep200_exh16_gamma099_lrac3e-4_lrcr1e-3/7076afde4386affa59e586c5ec9b2181426a643f_ligand_2.pdbqt
 12 12 0 0 0
SMALL
GASTEIGER

@<TRIPOS>ATOM
      1  C          4.9880    1.8210    0.7080 C.3     1  UNL1        0.1270
      2  C          4.4910    1.1050    1.9120 C.2     1  UNL1        0.3030
      3  O          5.1200    0.1820    2.4880 O.2     1  UNL1       -0.2520
      4  O          3.2630    1.4650    2.4470 O.3     1  UNL1       -0.4810
      5  H          3.2880    1.9200    3.3620 H       1  UNL1        0.2960
      6  C          6.4880    1.8280    0.7150 C.3     1  UNL1        0.0470
      7  C          7.1010    1.0340   -0.3470 C.2     1  UNL1       -0.0470
      8  C          6.4310    0.0760   -1.0680 C.2     1  UNL1        0.0040
      9  C          8.4220    1.2450   -0.6540 C.2     1  UNL1        0.0040
     10  C          7.0230   -0.6630   -2.0640 C.2     1  UNL1        0.0000
     11  C          9.0470    0.5230   -1.6450 C.2     1  UNL1        0.0000
     12  C          8.3500   -0.4450   -2.3670 C.2     1  UNL1        0.0000
@<TRIPOS>BOND
     1    12    10    2
     2    12    11    1
     3    10     8    1
     4    11     9    2
     5     8     7    2
     6     9     7    1
     7     7     6    1
     8     1     6    1
     9     1     2    1
    10     2     4    1
    11     2     3    2
    12     4     5    1
