@<TRIPOS>MOLECULE
/home/cewinharhar/GITHUB/reincatalyze/data/processed/docking_pred/2023-Apr-25-2140_maxeplen10_maxtrainstep200_exh16_gamma099_lrac3e-4_lrcr1e-3/7076afde4386affa59e586c5ec9b2181426a643f_ligand_2.pdbqt
 12 12 0 0 0
SMALL
GASTEIGER

@<TRIPOS>ATOM
      1  C          7.3390   -1.4770   -2.0870 C.3     1  UNL1        0.1270
      2  C          8.7690   -1.4500   -2.4890 C.2     1  UNL1        0.3030
      3  O          9.3210   -2.3470   -3.1760 O.2     1  UNL1       -0.2520
      4  O          9.5570   -0.3810   -2.0920 O.3     1  UNL1       -0.4810
      5  H         10.0860    0.0860   -2.8330 H       1  UNL1        0.2960
      6  C          7.2400   -1.4280   -0.5900 C.3     1  UNL1        0.0470
      7  C          6.4610   -0.3060   -0.0720 C.2     1  UNL1       -0.0470
      8  C          6.1630    0.8180   -0.8020 C.2     1  UNL1        0.0040
      9  C          5.9930   -0.3630    1.2170 C.2     1  UNL1        0.0040
     10  C          5.4290    1.8660   -0.2990 C.2     1  UNL1        0.0000
     11  C          5.2560    0.6670    1.7530 C.2     1  UNL1        0.0000
     12  C          4.9630    1.8010    0.9970 C.2     1  UNL1        0.0000
@<TRIPOS>BOND
     1     3     2    2
     2     5     4    1
     3     2     4    1
     4     2     1    1
     5     1     6    1
     6     8    10    1
     7     8     7    2
     8     6     7    1
     9    10    12    2
    10     7     9    1
    11    12    11    1
    12     9    11    2
