@<TRIPOS>MOLECULE
/home/cewinharhar/GITHUB/reincatalyze/data/processed/docking_pred/2023-Apr-25-2140_maxeplen10_maxtrainstep200_exh16_gamma099_lrac3e-4_lrcr1e-3/7076afde4386affa59e586c5ec9b2181426a643f_ligand_2.pdbqt
 12 12 0 0 0
SMALL
GASTEIGER

@<TRIPOS>ATOM
      1  C          8.4140   -0.5410   -2.2880 C.3     1  UNL1        0.1270
      2  C          8.5140   -1.8770   -2.9310 C.2     1  UNL1        0.3030
      3  O          9.5930   -2.5050   -3.0810 O.2     1  UNL1       -0.2520
      4  O          7.3580   -2.4840   -3.3990 O.3     1  UNL1       -0.4810
      5  H          6.5790   -2.5350   -2.7390 H       1  UNL1        0.2960
      6  C          6.9730   -0.1280   -2.2170 C.3     1  UNL1        0.0470
      7  C          6.4670    0.0680   -0.8610 C.2     1  UNL1       -0.0470
      8  C          5.8620    1.2220   -0.4290 C.2     1  UNL1        0.0040
      9  C          6.5970   -0.9530    0.0480 C.2     1  UNL1        0.0040
     10  C          5.3910    1.3890    0.8510 C.2     1  UNL1        0.0000
     11  C          6.1380   -0.8200    1.3380 C.2     1  UNL1        0.0000
     12  C          5.5250    0.3600    1.7570 C.2     1  UNL1        0.0000
@<TRIPOS>BOND
     1     4     2    1
     2     4     5    1
     3     3     2    2
     4     2     1    1
     5     1     6    1
     6     6     7    1
     7     7     8    2
     8     7     9    1
     9     8    10    1
    10     9    11    2
    11    10    12    2
    12    11    12    1
