@<TRIPOS>MOLECULE
/home/cewinharhar/GITHUB/reincatalyze/data/processed/docking_pred/2023-Apr-25-2140_maxeplen10_maxtrainstep200_exh16_gamma099_lrac3e-4_lrcr1e-3/7076afde4386affa59e586c5ec9b2181426a643f_ligand_2.pdbqt
 12 12 0 0 0
SMALL
GASTEIGER

@<TRIPOS>ATOM
      1  C          8.4450   -0.5730   -2.2230 C.3     1  UNL1        0.1270
      2  C          8.5130   -1.8840   -2.9210 C.2     1  UNL1        0.3030
      3  O          9.5750   -2.5340   -3.0900 O.2     1  UNL1       -0.2520
      4  O          7.3440   -2.4390   -3.4200 O.3     1  UNL1       -0.4810
      5  H          7.2890   -2.5290   -4.4370 H       1  UNL1        0.2960
      6  C          7.0170   -0.1190   -2.1520 C.3     1  UNL1        0.0470
      7  C          6.4940    0.0160   -0.7940 C.2     1  UNL1       -0.0470
      8  C          6.5930   -0.9630    0.1640 C.2     1  UNL1        0.0040
      9  C          5.8620    1.1830   -0.4400 C.2     1  UNL1        0.0040
     10  C          6.0950   -0.8190    1.4370 C.2     1  UNL1        0.0000
     11  C          5.3510    1.3600    0.8250 C.2     1  UNL1        0.0000
     12  C          5.4620    0.3550    1.7840 C.2     1  UNL1        0.0000
@<TRIPOS>BOND
     1     5     4    1
     2     4     2    1
     3     3     2    2
     4     2     1    1
     5     1     6    1
     6     6     7    1
     7     7     9    2
     8     7     8    1
     9     9    11    1
    10     8    10    2
    11    11    12    2
    12    10    12    1
