MODEL 1
REMARK VINA RESULT:      -7.4      0.000      0.000
REMARK SMILES O=C(O)CCc1ccccc1
REMARK SMILES IDX 4 1 2 2 1 3 3 4 5 6 6 7 7 8 11 9 8 10 10 11 9 12
REMARK H PARENT 3 5
REMARK Flexibility Score: inf
ROOT
ATOM      1  C   UNL     1       8.445  -0.573  -2.223  1.00  0.00     0.127 C 
ENDROOT
BRANCH   1   2
ATOM      2  C   UNL     1       8.513  -1.884  -2.921  1.00  0.00     0.303 C 
ATOM      3  O   UNL     1       9.575  -2.534  -3.090  1.00  0.00    -0.252 OA
BRANCH   2   4
ATOM      4  O   UNL     1       7.344  -2.439  -3.420  1.00  0.00    -0.481 OA
ATOM      5  H   UNL     1       7.289  -2.529  -4.437  1.00  0.00     0.296 HD
ENDBRANCH   2   4
ENDBRANCH   1   2
BRANCH   1   6
ATOM      6  C   UNL     1       7.017  -0.119  -2.152  1.00  0.00     0.047 C 
BRANCH   6   7
ATOM      7  C   UNL     1       6.494   0.016  -0.794  1.00  0.00    -0.047 A 
ATOM      8  C   UNL     1       6.593  -0.963   0.164  1.00  0.00     0.004 A 
ATOM      9  C   UNL     1       5.862   1.183  -0.440  1.00  0.00     0.004 A 
ATOM     10  C   UNL     1       6.095  -0.819   1.437  1.00  0.00     0.000 A 
ATOM     11  C   UNL     1       5.351   1.360   0.825  1.00  0.00     0.000 A 
ATOM     12  C   UNL     1       5.462   0.355   1.784  1.00  0.00     0.000 A 
ENDBRANCH   6   7
ENDBRANCH   1   6
TORSDOF 4
ENDMDL
MODEL 2
REMARK VINA RESULT:      -7.3      0.073      1.426
REMARK SMILES O=C(O)CCc1ccccc1
REMARK SMILES IDX 4 1 2 2 1 3 3 4 5 6 6 7 7 8 11 9 8 10 10 11 9 12
REMARK H PARENT 3 5
REMARK Flexibility Score: inf
ROOT
ATOM      1  C   UNL     1       8.414  -0.541  -2.288  1.00  0.00     0.127 C 
ENDROOT
BRANCH   1   2
ATOM      2  C   UNL     1       8.514  -1.877  -2.931  1.00  0.00     0.303 C 
ATOM      3  O   UNL     1       9.593  -2.505  -3.081  1.00  0.00    -0.252 OA
BRANCH   2   4
ATOM      4  O   UNL     1       7.358  -2.484  -3.399  1.00  0.00    -0.481 OA
ATOM      5  H   UNL     1       6.579  -2.535  -2.739  1.00  0.00     0.296 HD
ENDBRANCH   2   4
ENDBRANCH   1   2
BRANCH   1   6
ATOM      6  C   UNL     1       6.973  -0.128  -2.217  1.00  0.00     0.047 C 
BRANCH   6   7
ATOM      7  C   UNL     1       6.467   0.068  -0.861  1.00  0.00    -0.047 A 
ATOM      8  C   UNL     1       5.862   1.222  -0.429  1.00  0.00     0.004 A 
ATOM      9  C   UNL     1       6.597  -0.953   0.048  1.00  0.00     0.004 A 
ATOM     10  C   UNL     1       5.391   1.389   0.851  1.00  0.00     0.000 A 
ATOM     11  C   UNL     1       6.138  -0.820   1.338  1.00  0.00     0.000 A 
ATOM     12  C   UNL     1       5.525   0.360   1.757  1.00  0.00     0.000 A 
ENDBRANCH   6   7
ENDBRANCH   1   6
TORSDOF 4
ENDMDL
MODEL 3
REMARK VINA RESULT:      -6.8      1.029      1.972
REMARK SMILES O=C(O)CCc1ccccc1
REMARK SMILES IDX 4 1 2 2 1 3 3 4 5 6 6 7 7 8 11 9 8 10 10 11 9 12
REMARK H PARENT 3 5
REMARK Flexibility Score: inf
ROOT
ATOM      1  C   UNL     1       7.339  -1.477  -2.087  1.00  0.00     0.127 C 
ENDROOT
BRANCH   1   2
ATOM      2  C   UNL     1       8.769  -1.450  -2.489  1.00  0.00     0.303 C 
ATOM      3  O   UNL     1       9.321  -2.347  -3.176  1.00  0.00    -0.252 OA
BRANCH   2   4
ATOM      4  O   UNL     1       9.557  -0.381  -2.092  1.00  0.00    -0.481 OA
ATOM      5  H   UNL     1      10.086   0.086  -2.833  1.00  0.00     0.296 HD
ENDBRANCH   2   4
ENDBRANCH   1   2
BRANCH   1   6
ATOM      6  C   UNL     1       7.240  -1.428  -0.590  1.00  0.00     0.047 C 
BRANCH   6   7
ATOM      7  C   UNL     1       6.461  -0.306  -0.072  1.00  0.00    -0.047 A 
ATOM      8  C   UNL     1       6.163   0.818  -0.802  1.00  0.00     0.004 A 
ATOM      9  C   UNL     1       5.993  -0.363   1.217  1.00  0.00     0.004 A 
ATOM     10  C   UNL     1       5.429   1.866  -0.299  1.00  0.00     0.000 A 
ATOM     11  C   UNL     1       5.256   0.667   1.753  1.00  0.00     0.000 A 
ATOM     12  C   UNL     1       4.963   1.801   0.997  1.00  0.00     0.000 A 
ENDBRANCH   6   7
ENDBRANCH   1   6
TORSDOF 4
ENDMDL
MODEL 4
REMARK VINA RESULT:      -6.8      3.379      5.066
REMARK SMILES O=C(O)CCc1ccccc1
REMARK SMILES IDX 4 1 2 2 1 3 3 4 5 6 6 7 7 8 11 9 8 10 10 11 9 12
REMARK H PARENT 3 5
REMARK Flexibility Score: inf
ROOT
ATOM      1  C   UNL     1       4.988   1.821   0.708  1.00  0.00     0.127 C 
ENDROOT
BRANCH   1   2
ATOM      2  C   UNL     1       4.491   1.105   1.912  1.00  0.00     0.303 C 
ATOM      3  O   UNL     1       5.120   0.182   2.488  1.00  0.00    -0.252 OA
BRANCH   2   4
ATOM      4  O   UNL     1       3.263   1.465   2.447  1.00  0.00    -0.481 OA
ATOM      5  H   UNL     1       3.288   1.920   3.362  1.00  0.00     0.296 HD
ENDBRANCH   2   4
ENDBRANCH   1   2
BRANCH   1   6
ATOM      6  C   UNL     1       6.488   1.828   0.715  1.00  0.00     0.047 C 
BRANCH   6   7
ATOM      7  C   UNL     1       7.101   1.034  -0.347  1.00  0.00    -0.047 A 
ATOM      8  C   UNL     1       6.431   0.076  -1.068  1.00  0.00     0.004 A 
ATOM      9  C   UNL     1       8.422   1.245  -0.654  1.00  0.00     0.004 A 
ATOM     10  C   UNL     1       7.023  -0.663  -2.064  1.00  0.00     0.000 A 
ATOM     11  C   UNL     1       9.047   0.523  -1.645  1.00  0.00     0.000 A 
ATOM     12  C   UNL     1       8.350  -0.445  -2.367  1.00  0.00     0.000 A 
ENDBRANCH   6   7
ENDBRANCH   1   6
TORSDOF 4
ENDMDL
MODEL 5
REMARK VINA RESULT:      -6.7      3.841      5.019
REMARK SMILES O=C(O)CCc1ccccc1
REMARK SMILES IDX 4 1 2 2 1 3 3 4 5 6 6 7 7 8 11 9 8 10 10 11 9 12
REMARK H PARENT 3 5
REMARK Flexibility Score: inf
ROOT
ATOM      1  C   UNL     1       5.396   2.874   0.061  1.00  0.00     0.127 C 
ENDROOT
BRANCH   1   2
ATOM      2  C   UNL     1       6.192   3.819   0.887  1.00  0.00     0.303 C 
ATOM      3  O   UNL     1       6.208   3.810   2.144  1.00  0.00    -0.252 OA
BRANCH   2   4
ATOM      4  O   UNL     1       6.969   4.775   0.251  1.00  0.00    -0.481 OA
ATOM      5  H   UNL     1       6.611   5.124  -0.641  1.00  0.00     0.296 HD
ENDBRANCH   2   4
ENDBRANCH   1   2
BRANCH   1   6
ATOM      6  C   UNL     1       4.883   1.762   0.929  1.00  0.00     0.047 C 
BRANCH   6   7
ATOM      7  C   UNL     1       5.725   0.568   0.941  1.00  0.00    -0.047 A 
ATOM      8  C   UNL     1       6.522   0.184  -0.109  1.00  0.00     0.004 A 
ATOM      9  C   UNL     1       5.730  -0.227   2.061  1.00  0.00     0.004 A 
ATOM     10  C   UNL     1       7.308  -0.943  -0.080  1.00  0.00     0.000 A 
ATOM     11  C   UNL     1       6.504  -1.362   2.124  1.00  0.00     0.000 A 
ATOM     12  C   UNL     1       7.308  -1.736   1.047  1.00  0.00     0.000 A 
ENDBRANCH   6   7
ENDBRANCH   1   6
TORSDOF 4
ENDMDL
