@<TRIPOS>MOLECULE
/home/cewinharhar/GITHUB/reincatalyze/data/processed/docking_pred/2023-Apr-25-2140_maxeplen10_maxtrainstep200_exh16_gamma099_lrac3e-4_lrcr1e-3/7076afde4386affa59e586c5ec9b2181426a643f_ligand_2.pdbqt
 12 12 0 0 0
SMALL
GASTEIGER

@<TRIPOS>ATOM
      1  C          5.3960    2.8740    0.0610 C.3     1  UNL1        0.1270
      2  C          6.1920    3.8190    0.8870 C.2     1  UNL1        0.3030
      3  O          6.2080    3.8100    2.1440 O.2     1  UNL1       -0.2520
      4  O          6.9690    4.7750    0.2510 O.3     1  UNL1       -0.4810
      5  H          6.6110    5.1240   -0.6410 H       1  UNL1        0.2960
      6  C          4.8830    1.7620    0.9290 C.3     1  UNL1        0.0470
      7  C          5.7250    0.5680    0.9410 C.2     1  UNL1       -0.0470
      8  C          6.5220    0.1840   -0.1090 C.2     1  UNL1        0.0040
      9  C          5.7300   -0.2270    2.0610 C.2     1  UNL1        0.0040
     10  C          7.3080   -0.9430   -0.0800 C.2     1  UNL1        0.0000
     11  C          6.5040   -1.3620    2.1240 C.2     1  UNL1        0.0000
     12  C          7.3080   -1.7360    1.0470 C.2     1  UNL1        0.0000
@<TRIPOS>BOND
     1     5     4    1
     2     8    10    1
     3     8     7    2
     4    10    12    2
     5     1     2    1
     6     1     6    1
     7     4     2    1
     8     2     3    2
     9     6     7    1
    10     7     9    1
    11    12    11    1
    12     9    11    2
