@<TRIPOS>MOLECULE
/home/cewinharhar/GITHUB/reincatalyze/data/processed/docking_pred/2023-Apr-25-2140_maxeplen10_maxtrainstep200_exh16_gamma099_lrac3e-4_lrcr1e-3/718d515b24ba45f014f0b5b5cf87c837722ccc26_ligand_2.pdbqt
 12 12 0 0 0
SMALL
GASTEIGER

@<TRIPOS>ATOM
      1  C          8.3030    0.1480   -2.1830 C.3     1  UNL1        0.1270
      2  C          9.4080    0.3310   -1.2060 C.2     1  UNL1        0.3030
      3  O          9.5260   -0.3390   -0.1480 O.2     1  UNL1       -0.2520
      4  O         10.3750    1.2920   -1.4580 O.3     1  UNL1       -0.4810
      5  H         11.3320    0.9480   -1.5630 H       1  UNL1        0.2960
      6  C          7.1810   -0.6060   -1.5330 C.3     1  UNL1        0.0470
      7  C          6.4030    0.1760   -0.5760 C.2     1  UNL1       -0.0470
      8  C          6.1620   -0.2190    0.7170 C.2     1  UNL1        0.0040
      9  C          5.8740    1.3780   -0.9760 C.2     1  UNL1        0.0040
     10  C          5.4270    0.5290    1.6060 C.2     1  UNL1        0.0000
     11  C          5.1330    2.1520   -0.1140 C.2     1  UNL1        0.0000
     12  C          4.9000    1.7340    1.1960 C.2     1  UNL1        0.0000
@<TRIPOS>BOND
     1     1     6    1
     2     1     2    1
     3     5     4    1
     4     6     7    1
     5     4     2    1
     6     2     3    2
     7     9     7    2
     8     9    11    1
     9     7     8    1
    10    11    12    2
    11     8    10    2
    12    12    10    1
