@<TRIPOS>MOLECULE
/home/cewinharhar/GITHUB/reincatalyze/data/processed/docking_pred/2023-Apr-25-2140_maxeplen10_maxtrainstep200_exh16_gamma099_lrac3e-4_lrcr1e-3/718d515b24ba45f014f0b5b5cf87c837722ccc26_ligand_2.pdbqt
 12 12 0 0 0
SMALL
GASTEIGER

@<TRIPOS>ATOM
      1  C          4.9850    1.8080    0.6620 C.3     1  UNL1        0.1270
      2  C          4.5130    1.1170    1.8900 C.2     1  UNL1        0.3030
      3  O          5.1620    0.2160    2.4800 O.2     1  UNL1       -0.2520
      4  O          3.2880    1.4730    2.4320 O.3     1  UNL1       -0.4810
      5  H          2.5640    0.7510    2.4190 H       1  UNL1        0.2960
      6  C          6.4840    1.8530    0.6580 C.3     1  UNL1        0.0470
      7  C          7.1100    1.0390   -0.3820 C.2     1  UNL1       -0.0470
      8  C          6.4350    0.1080   -1.1330 C.2     1  UNL1        0.0040
      9  C          8.4490    1.2020   -0.6340 C.2     1  UNL1        0.0040
     10  C          7.0390   -0.6490   -2.1080 C.2     1  UNL1        0.0000
     11  C          9.0860    0.4600   -1.6020 C.2     1  UNL1        0.0000
     12  C          8.3840   -0.4800   -2.3550 C.2     1  UNL1        0.0000
@<TRIPOS>BOND
     1    12    10    2
     2    12    11    1
     3    10     8    1
     4    11     9    2
     5     8     7    2
     6     9     7    1
     7     7     6    1
     8     6     1    1
     9     1     2    1
    10     2     4    1
    11     2     3    2
    12     5     4    1
