@<TRIPOS>MOLECULE
/home/cewinharhar/GITHUB/reincatalyze/data/processed/docking_pred/2023-Apr-25-2140_maxeplen10_maxtrainstep200_exh16_gamma099_lrac3e-4_lrcr1e-3/718d515b24ba45f014f0b5b5cf87c837722ccc26_ligand_2.pdbqt
 12 12 0 0 0
SMALL
GASTEIGER

@<TRIPOS>ATOM
      1  C          8.4490   -0.5820   -2.2080 C.3     1  UNL1        0.1270
      2  C          8.5110   -1.8890   -2.9130 C.2     1  UNL1        0.3030
      3  O          9.5730   -2.5360   -3.0960 O.2     1  UNL1       -0.2520
      4  O          7.3390   -2.4430   -3.4040 O.3     1  UNL1       -0.4810
      5  H          7.4290   -3.0000   -4.2570 H       1  UNL1        0.2960
      6  C          7.0250   -0.1130   -2.1520 C.3     1  UNL1        0.0470
      7  C          6.4890    0.0300   -0.8000 C.2     1  UNL1       -0.0470
      8  C          6.5810   -0.9420    0.1650 C.2     1  UNL1        0.0040
      9  C          5.8540    1.1980   -0.4590 C.2     1  UNL1        0.0040
     10  C          6.0720   -0.7910    1.4330 C.2     1  UNL1        0.0000
     11  C          5.3310    1.3830    0.8000 C.2     1  UNL1        0.0000
     12  C          5.4350    0.3840    1.7670 C.2     1  UNL1        0.0000
@<TRIPOS>BOND
     1     5     4    1
     2     4     2    1
     3     3     2    2
     4     2     1    1
     5     1     6    1
     6     6     7    1
     7     7     9    2
     8     7     8    1
     9     9    11    1
    10     8    10    2
    11    11    12    2
    12    10    12    1
