MODEL 1
REMARK VINA RESULT:      -7.4      0.000      0.000
REMARK SMILES O=C(O)CCc1ccccc1
REMARK SMILES IDX 4 1 2 2 1 3 3 4 5 6 6 7 7 8 11 9 8 10 10 11 9 12
REMARK H PARENT 3 5
REMARK Flexibility Score: inf
ROOT
ATOM      1  C   UNL     1       8.449  -0.582  -2.208  1.00  0.00     0.127 C 
ENDROOT
BRANCH   1   2
ATOM      2  C   UNL     1       8.511  -1.889  -2.913  1.00  0.00     0.303 C 
ATOM      3  O   UNL     1       9.573  -2.536  -3.096  1.00  0.00    -0.252 OA
BRANCH   2   4
ATOM      4  O   UNL     1       7.339  -2.443  -3.404  1.00  0.00    -0.481 OA
ATOM      5  H   UNL     1       7.429  -3.000  -4.257  1.00  0.00     0.296 HD
ENDBRANCH   2   4
ENDBRANCH   1   2
BRANCH   1   6
ATOM      6  C   UNL     1       7.025  -0.113  -2.152  1.00  0.00     0.047 C 
BRANCH   6   7
ATOM      7  C   UNL     1       6.489   0.030  -0.800  1.00  0.00    -0.047 A 
ATOM      8  C   UNL     1       6.581  -0.942   0.165  1.00  0.00     0.004 A 
ATOM      9  C   UNL     1       5.854   1.198  -0.459  1.00  0.00     0.004 A 
ATOM     10  C   UNL     1       6.072  -0.791   1.433  1.00  0.00     0.000 A 
ATOM     11  C   UNL     1       5.331   1.383   0.800  1.00  0.00     0.000 A 
ATOM     12  C   UNL     1       5.435   0.384   1.767  1.00  0.00     0.000 A 
ENDBRANCH   6   7
ENDBRANCH   1   6
TORSDOF 4
ENDMDL
MODEL 2
REMARK VINA RESULT:      -7.4      0.065      1.426
REMARK SMILES O=C(O)CCc1ccccc1
REMARK SMILES IDX 4 1 2 2 1 3 3 4 5 6 6 7 7 8 11 9 8 10 10 11 9 12
REMARK H PARENT 3 5
REMARK Flexibility Score: inf
ROOT
ATOM      1  C   UNL     1       8.449  -0.551  -2.211  1.00  0.00     0.127 C 
ENDROOT
BRANCH   1   2
ATOM      2  C   UNL     1       8.517  -1.852  -2.926  1.00  0.00     0.303 C 
ATOM      3  O   UNL     1       9.583  -2.490  -3.122  1.00  0.00    -0.252 OA
BRANCH   2   4
ATOM      4  O   UNL     1       7.345  -2.411  -3.414  1.00  0.00    -0.481 OA
ATOM      5  H   UNL     1       6.479  -1.937  -3.150  1.00  0.00     0.296 HD
ENDBRANCH   2   4
ENDBRANCH   1   2
BRANCH   1   6
ATOM      6  C   UNL     1       7.028  -0.069  -2.184  1.00  0.00     0.047 C 
BRANCH   6   7
ATOM      7  C   UNL     1       6.478   0.115  -0.843  1.00  0.00    -0.047 A 
ATOM      8  C   UNL     1       5.824   1.251  -0.434  1.00  0.00     0.004 A 
ATOM      9  C   UNL     1       6.617  -0.897   0.074  1.00  0.00     0.004 A 
ATOM     10  C   UNL     1       5.313   1.408   0.832  1.00  0.00     0.000 A 
ATOM     11  C   UNL     1       6.118  -0.774   1.351  1.00  0.00     0.000 A 
ATOM     12  C   UNL     1       5.456   0.387   1.747  1.00  0.00     0.000 A 
ENDBRANCH   6   7
ENDBRANCH   1   6
TORSDOF 4
ENDMDL
MODEL 3
REMARK VINA RESULT:      -6.8      3.366      5.062
REMARK SMILES O=C(O)CCc1ccccc1
REMARK SMILES IDX 4 1 2 2 1 3 3 4 5 6 6 7 7 8 11 9 8 10 10 11 9 12
REMARK H PARENT 3 5
REMARK Flexibility Score: inf
ROOT
ATOM      1  C   UNL     1       4.985   1.808   0.662  1.00  0.00     0.127 C 
ENDROOT
BRANCH   1   2
ATOM      2  C   UNL     1       4.513   1.117   1.890  1.00  0.00     0.303 C 
ATOM      3  O   UNL     1       5.162   0.216   2.480  1.00  0.00    -0.252 OA
BRANCH   2   4
ATOM      4  O   UNL     1       3.288   1.473   2.432  1.00  0.00    -0.481 OA
ATOM      5  H   UNL     1       2.564   0.751   2.419  1.00  0.00     0.296 HD
ENDBRANCH   2   4
ENDBRANCH   1   2
BRANCH   1   6
ATOM      6  C   UNL     1       6.484   1.853   0.658  1.00  0.00     0.047 C 
BRANCH   6   7
ATOM      7  C   UNL     1       7.110   1.039  -0.382  1.00  0.00    -0.047 A 
ATOM      8  C   UNL     1       6.435   0.108  -1.133  1.00  0.00     0.004 A 
ATOM      9  C   UNL     1       8.449   1.202  -0.634  1.00  0.00     0.004 A 
ATOM     10  C   UNL     1       7.039  -0.649  -2.108  1.00  0.00     0.000 A 
ATOM     11  C   UNL     1       9.086   0.460  -1.602  1.00  0.00     0.000 A 
ATOM     12  C   UNL     1       8.384  -0.480  -2.355  1.00  0.00     0.000 A 
ENDBRANCH   6   7
ENDBRANCH   1   6
TORSDOF 4
ENDMDL
MODEL 4
REMARK VINA RESULT:      -6.7      3.841      4.966
REMARK SMILES O=C(O)CCc1ccccc1
REMARK SMILES IDX 4 1 2 2 1 3 3 4 5 6 6 7 7 8 11 9 8 10 10 11 9 12
REMARK H PARENT 3 5
REMARK Flexibility Score: inf
ROOT
ATOM      1  C   UNL     1       5.516   2.876  -0.040  1.00  0.00     0.127 C 
ENDROOT
BRANCH   1   2
ATOM      2  C   UNL     1       6.295   3.859   0.758  1.00  0.00     0.303 C 
ATOM      3  O   UNL     1       6.993   4.775   0.254  1.00  0.00    -0.252 OA
BRANCH   2   4
ATOM      4  O   UNL     1       6.261   3.775   2.141  1.00  0.00    -0.481 OA
ATOM      5  H   UNL     1       6.204   4.665   2.643  1.00  0.00     0.296 HD
ENDBRANCH   2   4
ENDBRANCH   1   2
BRANCH   1   6
ATOM      6  C   UNL     1       4.951   1.827   0.872  1.00  0.00     0.047 C 
BRANCH   6   7
ATOM      7  C   UNL     1       5.714   0.582   0.905  1.00  0.00    -0.047 A 
ATOM      8  C   UNL     1       6.373   0.060  -0.180  1.00  0.00     0.004 A 
ATOM      9  C   UNL     1       5.786  -0.120   2.083  1.00  0.00     0.004 A 
ATOM     10  C   UNL     1       7.087  -1.114  -0.131  1.00  0.00     0.000 A 
ATOM     11  C   UNL     1       6.490  -1.298   2.168  1.00  0.00     0.000 A 
ATOM     12  C   UNL     1       7.153  -1.812   1.055  1.00  0.00     0.000 A 
ENDBRANCH   6   7
ENDBRANCH   1   6
TORSDOF 4
ENDMDL
MODEL 5
REMARK VINA RESULT:      -6.7      1.954      2.292
REMARK SMILES O=C(O)CCc1ccccc1
REMARK SMILES IDX 4 1 2 2 1 3 3 4 5 6 6 7 7 8 11 9 8 10 10 11 9 12
REMARK H PARENT 3 5
REMARK Flexibility Score: inf
ROOT
ATOM      1  C   UNL     1       8.303   0.148  -2.183  1.00  0.00     0.127 C 
ENDROOT
BRANCH   1   2
ATOM      2  C   UNL     1       9.408   0.331  -1.206  1.00  0.00     0.303 C 
ATOM      3  O   UNL     1       9.526  -0.339  -0.148  1.00  0.00    -0.252 OA
BRANCH   2   4
ATOM      4  O   UNL     1      10.375   1.292  -1.458  1.00  0.00    -0.481 OA
ATOM      5  H   UNL     1      11.332   0.948  -1.563  1.00  0.00     0.296 HD
ENDBRANCH   2   4
ENDBRANCH   1   2
BRANCH   1   6
ATOM      6  C   UNL     1       7.181  -0.606  -1.533  1.00  0.00     0.047 C 
BRANCH   6   7
ATOM      7  C   UNL     1       6.403   0.176  -0.576  1.00  0.00    -0.047 A 
ATOM      8  C   UNL     1       6.162  -0.219   0.717  1.00  0.00     0.004 A 
ATOM      9  C   UNL     1       5.874   1.378  -0.976  1.00  0.00     0.004 A 
ATOM     10  C   UNL     1       5.427   0.529   1.606  1.00  0.00     0.000 A 
ATOM     11  C   UNL     1       5.133   2.152  -0.114  1.00  0.00     0.000 A 
ATOM     12  C   UNL     1       4.900   1.734   1.196  1.00  0.00     0.000 A 
ENDBRANCH   6   7
ENDBRANCH   1   6
TORSDOF 4
ENDMDL
