@<TRIPOS>MOLECULE
/home/cewinharhar/GITHUB/reincatalyze/data/processed/docking_pred/2023-Apr-25-2140_maxeplen10_maxtrainstep200_exh16_gamma099_lrac3e-4_lrcr1e-3/718d515b24ba45f014f0b5b5cf87c837722ccc26_ligand_2.pdbqt
 12 12 0 0 0
SMALL
GASTEIGER

@<TRIPOS>ATOM
      1  C          5.5160    2.8760   -0.0400 C.3     1  UNL1        0.1270
      2  C          6.2950    3.8590    0.7580 C.2     1  UNL1        0.3030
      3  O          6.9930    4.7750    0.2540 O.2     1  UNL1       -0.2520
      4  O          6.2610    3.7750    2.1410 O.3     1  UNL1       -0.4810
      5  H          6.2040    4.6650    2.6430 H       1  UNL1        0.2960
      6  C          4.9510    1.8270    0.8720 C.3     1  UNL1        0.0470
      7  C          5.7140    0.5820    0.9050 C.2     1  UNL1       -0.0470
      8  C          6.3730    0.0600   -0.1800 C.2     1  UNL1        0.0040
      9  C          5.7860   -0.1200    2.0830 C.2     1  UNL1        0.0040
     10  C          7.0870   -1.1140   -0.1310 C.2     1  UNL1        0.0000
     11  C          6.4900   -1.2980    2.1680 C.2     1  UNL1        0.0000
     12  C          7.1530   -1.8120    1.0550 C.2     1  UNL1        0.0000
@<TRIPOS>BOND
     1     8    10    1
     2     8     7    2
     3    10    12    2
     4     1     2    1
     5     1     6    1
     6     3     2    2
     7     2     4    1
     8     6     7    1
     9     7     9    1
    10    12    11    1
    11     9    11    2
    12     4     5    1
