@<TRIPOS>MOLECULE
/home/cewinharhar/GITHUB/reincatalyze/data/processed/docking_pred/2023-Apr-25-2140_maxeplen10_maxtrainstep200_exh16_gamma099_lrac3e-4_lrcr1e-3/73f03501d88ed0f960f592fe5f6124e73644cb01_ligand_2.pdbqt
 12 12 0 0 0
SMALL
GASTEIGER

@<TRIPOS>ATOM
      1  C          8.4230   -0.5580   -2.1780 C.3     1  UNL1        0.1270
      2  C          8.4820   -1.8520   -2.9070 C.2     1  UNL1        0.3030
      3  O          9.5400   -2.5060   -3.0880 O.2     1  UNL1       -0.2520
      4  O          7.3120   -2.3850   -3.4250 O.3     1  UNL1       -0.4810
      5  H          6.5420   -1.7260   -3.5630 H       1  UNL1        0.2960
      6  C          6.9970   -0.0950   -2.0990 C.3     1  UNL1        0.0470
      7  C          6.4710    0.0100   -0.7400 C.2     1  UNL1       -0.0470
      8  C          6.5870   -0.9810    0.2030 C.2     1  UNL1        0.0040
      9  C          5.8200    1.1600   -0.3690 C.2     1  UNL1        0.0040
     10  C          6.0850   -0.8660    1.4780 C.2     1  UNL1        0.0000
     11  C          5.3050    1.3100    0.8980 C.2     1  UNL1        0.0000
     12  C          5.4320    0.2920    1.8420 C.2     1  UNL1        0.0000
@<TRIPOS>BOND
     1     5     4    1
     2     4     2    1
     3     3     2    2
     4     2     1    1
     5     1     6    1
     6     6     7    1
     7     7     9    2
     8     7     8    1
     9     9    11    1
    10     8    10    2
    11    11    12    2
    12    10    12    1
