@<TRIPOS>MOLECULE
/home/cewinharhar/GITHUB/reincatalyze/data/processed/docking_pred/2023-Apr-25-2140_maxeplen10_maxtrainstep200_exh16_gamma099_lrac3e-4_lrcr1e-3/73f03501d88ed0f960f592fe5f6124e73644cb01_ligand_2.pdbqt
 12 12 0 0 0
SMALL
GASTEIGER

@<TRIPOS>ATOM
      1  C          8.4330   -0.5420   -2.2040 C.3     1  UNL1        0.1270
      2  C          8.4960   -1.8520   -2.9030 C.2     1  UNL1        0.3030
      3  O          9.5560   -2.5070   -3.0720 O.2     1  UNL1       -0.2520
      4  O          7.3260   -2.4020   -3.4050 O.3     1  UNL1       -0.4810
      5  H          7.4060   -3.3400   -3.8050 H       1  UNL1        0.2960
      6  C          7.0120   -0.0590   -2.1770 C.3     1  UNL1        0.0470
      7  C          6.4640    0.1310   -0.8360 C.2     1  UNL1       -0.0470
      8  C          5.8130    1.2700   -0.4300 C.2     1  UNL1        0.0040
      9  C          6.6010   -0.8790    0.0840 C.2     1  UNL1        0.0040
     10  C          5.3040    1.4310    0.8360 C.2     1  UNL1        0.0000
     11  C          6.1040   -0.7510    1.3610 C.2     1  UNL1        0.0000
     12  C          5.4450    0.4130    1.7540 C.2     1  UNL1        0.0000
@<TRIPOS>BOND
     1     5     4    1
     2     4     2    1
     3     3     2    2
     4     2     1    1
     5     1     6    1
     6     6     7    1
     7     7     8    2
     8     7     9    1
     9     8    10    1
    10     9    11    2
    11    10    12    2
    12    11    12    1
