MODEL 1
REMARK VINA RESULT:      -7.3      0.000      0.000
REMARK SMILES O=C(O)CCc1ccccc1
REMARK SMILES IDX 4 1 2 2 1 3 3 4 5 6 6 7 7 8 11 9 8 10 10 11 9 12
REMARK H PARENT 3 5
REMARK Flexibility Score: inf
ROOT
ATOM      1  C   UNL     1       8.433  -0.542  -2.204  1.00  0.00     0.127 C 
ENDROOT
BRANCH   1   2
ATOM      2  C   UNL     1       8.496  -1.852  -2.903  1.00  0.00     0.303 C 
ATOM      3  O   UNL     1       9.556  -2.507  -3.072  1.00  0.00    -0.252 OA
BRANCH   2   4
ATOM      4  O   UNL     1       7.326  -2.402  -3.405  1.00  0.00    -0.481 OA
ATOM      5  H   UNL     1       7.406  -3.340  -3.805  1.00  0.00     0.296 HD
ENDBRANCH   2   4
ENDBRANCH   1   2
BRANCH   1   6
ATOM      6  C   UNL     1       7.012  -0.059  -2.177  1.00  0.00     0.047 C 
BRANCH   6   7
ATOM      7  C   UNL     1       6.464   0.131  -0.836  1.00  0.00    -0.047 A 
ATOM      8  C   UNL     1       5.813   1.270  -0.430  1.00  0.00     0.004 A 
ATOM      9  C   UNL     1       6.601  -0.879   0.084  1.00  0.00     0.004 A 
ATOM     10  C   UNL     1       5.304   1.431   0.836  1.00  0.00     0.000 A 
ATOM     11  C   UNL     1       6.104  -0.751   1.361  1.00  0.00     0.000 A 
ATOM     12  C   UNL     1       5.445   0.413   1.754  1.00  0.00     0.000 A 
ENDBRANCH   6   7
ENDBRANCH   1   6
TORSDOF 4
ENDMDL
MODEL 2
REMARK VINA RESULT:      -7.3      0.114      1.430
REMARK SMILES O=C(O)CCc1ccccc1
REMARK SMILES IDX 4 1 2 2 1 3 3 4 5 6 6 7 7 8 11 9 8 10 10 11 9 12
REMARK H PARENT 3 5
REMARK Flexibility Score: inf
ROOT
ATOM      1  C   UNL     1       8.423  -0.558  -2.178  1.00  0.00     0.127 C 
ENDROOT
BRANCH   1   2
ATOM      2  C   UNL     1       8.482  -1.852  -2.907  1.00  0.00     0.303 C 
ATOM      3  O   UNL     1       9.540  -2.506  -3.088  1.00  0.00    -0.252 OA
BRANCH   2   4
ATOM      4  O   UNL     1       7.312  -2.385  -3.425  1.00  0.00    -0.481 OA
ATOM      5  H   UNL     1       6.542  -1.726  -3.563  1.00  0.00     0.296 HD
ENDBRANCH   2   4
ENDBRANCH   1   2
BRANCH   1   6
ATOM      6  C   UNL     1       6.997  -0.095  -2.099  1.00  0.00     0.047 C 
BRANCH   6   7
ATOM      7  C   UNL     1       6.471   0.010  -0.740  1.00  0.00    -0.047 A 
ATOM      8  C   UNL     1       6.587  -0.981   0.203  1.00  0.00     0.004 A 
ATOM      9  C   UNL     1       5.820   1.160  -0.369  1.00  0.00     0.004 A 
ATOM     10  C   UNL     1       6.085  -0.866   1.478  1.00  0.00     0.000 A 
ATOM     11  C   UNL     1       5.305   1.310   0.898  1.00  0.00     0.000 A 
ATOM     12  C   UNL     1       5.432   0.292   1.842  1.00  0.00     0.000 A 
ENDBRANCH   6   7
ENDBRANCH   1   6
TORSDOF 4
ENDMDL
MODEL 3
REMARK VINA RESULT:      -6.8      0.997      1.947
REMARK SMILES O=C(O)CCc1ccccc1
REMARK SMILES IDX 4 1 2 2 1 3 3 4 5 6 6 7 7 8 11 9 8 10 10 11 9 12
REMARK H PARENT 3 5
REMARK Flexibility Score: inf
ROOT
ATOM      1  C   UNL     1       7.325  -1.287  -2.201  1.00  0.00     0.127 C 
ENDROOT
BRANCH   1   2
ATOM      2  C   UNL     1       8.775  -1.396  -2.507  1.00  0.00     0.303 C 
ATOM      3  O   UNL     1       9.285  -2.341  -3.160  1.00  0.00    -0.252 OA
BRANCH   2   4
ATOM      4  O   UNL     1       9.632  -0.404  -2.055  1.00  0.00    -0.481 OA
ATOM      5  H   UNL     1       9.340   0.559  -2.238  1.00  0.00     0.296 HD
ENDBRANCH   2   4
ENDBRANCH   1   2
BRANCH   1   6
ATOM      6  C   UNL     1       7.116  -1.421  -0.721  1.00  0.00     0.047 C 
BRANCH   6   7
ATOM      7  C   UNL     1       6.380  -0.315  -0.113  1.00  0.00    -0.047 A 
ATOM      8  C   UNL     1       5.916  -0.325   1.179  1.00  0.00     0.004 A 
ATOM      9  C   UNL     1       6.129   0.806  -0.864  1.00  0.00     0.004 A 
ATOM     10  C   UNL     1       5.225   0.724   1.736  1.00  0.00     0.000 A 
ATOM     11  C   UNL     1       5.440   1.875  -0.339  1.00  0.00     0.000 A 
ATOM     12  C   UNL     1       4.977   1.847   0.975  1.00  0.00     0.000 A 
ENDBRANCH   6   7
ENDBRANCH   1   6
TORSDOF 4
ENDMDL
MODEL 4
REMARK VINA RESULT:      -6.7      3.355      5.070
REMARK SMILES O=C(O)CCc1ccccc1
REMARK SMILES IDX 4 1 2 2 1 3 3 4 5 6 6 7 7 8 11 9 8 10 10 11 9 12
REMARK H PARENT 3 5
REMARK Flexibility Score: inf
ROOT
ATOM      1  C   UNL     1       5.022   1.822   0.718  1.00  0.00     0.127 C 
ENDROOT
BRANCH   1   2
ATOM      2  C   UNL     1       4.506   1.103   1.912  1.00  0.00     0.303 C 
ATOM      3  O   UNL     1       5.122   0.171   2.489  1.00  0.00    -0.252 OA
BRANCH   2   4
ATOM      4  O   UNL     1       3.275   1.469   2.435  1.00  0.00    -0.481 OA
ATOM      5  H   UNL     1       3.067   2.470   2.434  1.00  0.00     0.296 HD
ENDBRANCH   2   4
ENDBRANCH   1   2
BRANCH   1   6
ATOM      6  C   UNL     1       6.522   1.796   0.728  1.00  0.00     0.047 C 
BRANCH   6   7
ATOM      7  C   UNL     1       7.120   1.007  -0.346  1.00  0.00    -0.047 A 
ATOM      8  C   UNL     1       6.442   0.049  -1.059  1.00  0.00     0.004 A 
ATOM      9  C   UNL     1       8.435   1.225  -0.675  1.00  0.00     0.004 A 
ATOM     10  C   UNL     1       7.020  -0.684  -2.067  1.00  0.00     0.000 A 
ATOM     11  C   UNL     1       9.046   0.509  -1.679  1.00  0.00     0.000 A 
ATOM     12  C   UNL     1       8.341  -0.460  -2.391  1.00  0.00     0.000 A 
ENDBRANCH   6   7
ENDBRANCH   1   6
TORSDOF 4
ENDMDL
MODEL 5
REMARK VINA RESULT:      -6.6      1.907      2.601
REMARK SMILES O=C(O)CCc1ccccc1
REMARK SMILES IDX 4 1 2 2 1 3 3 4 5 6 6 7 7 8 11 9 8 10 10 11 9 12
REMARK H PARENT 3 5
REMARK Flexibility Score: inf
ROOT
ATOM      1  C   UNL     1       8.274   0.231  -2.226  1.00  0.00     0.127 C 
ENDROOT
BRANCH   1   2
ATOM      2  C   UNL     1       9.383   0.344  -1.244  1.00  0.00     0.303 C 
ATOM      3  O   UNL     1       9.488  -0.376  -0.218  1.00  0.00    -0.252 OA
BRANCH   2   4
ATOM      4  O   UNL     1      10.371   1.295  -1.454  1.00  0.00    -0.481 OA
ATOM      5  H   UNL     1      10.521   1.579  -2.425  1.00  0.00     0.296 HD
ENDBRANCH   2   4
ENDBRANCH   1   2
BRANCH   1   6
ATOM      6  C   UNL     1       7.145  -0.548  -1.618  1.00  0.00     0.047 C 
BRANCH   6   7
ATOM      7  C   UNL     1       6.383   0.182  -0.608  1.00  0.00    -0.047 A 
ATOM      8  C   UNL     1       6.174  -0.274   0.670  1.00  0.00     0.004 A 
ATOM      9  C   UNL     1       5.836   1.397  -0.941  1.00  0.00     0.004 A 
ATOM     10  C   UNL     1       5.454   0.427   1.608  1.00  0.00     0.000 A 
ATOM     11  C   UNL     1       5.109   2.124  -0.028  1.00  0.00     0.000 A 
ATOM     12  C   UNL     1       4.908   1.645   1.266  1.00  0.00     0.000 A 
ENDBRANCH   6   7
ENDBRANCH   1   6
TORSDOF 4
ENDMDL
