@<TRIPOS>MOLECULE
/home/cewinharhar/GITHUB/reincatalyze/data/processed/docking_pred/2023-Apr-25-2140_maxeplen10_maxtrainstep200_exh16_gamma099_lrac3e-4_lrcr1e-3/73f03501d88ed0f960f592fe5f6124e73644cb01_ligand_2.pdbqt
 12 12 0 0 0
SMALL
GASTEIGER

@<TRIPOS>ATOM
      1  C          5.0220    1.8220    0.7180 C.3     1  UNL1        0.1270
      2  C          4.5060    1.1030    1.9120 C.2     1  UNL1        0.3030
      3  O          5.1220    0.1710    2.4890 O.2     1  UNL1       -0.2520
      4  O          3.2750    1.4690    2.4350 O.3     1  UNL1       -0.4810
      5  H          3.0670    2.4700    2.4340 H       1  UNL1        0.2960
      6  C          6.5220    1.7960    0.7280 C.3     1  UNL1        0.0470
      7  C          7.1200    1.0070   -0.3460 C.2     1  UNL1       -0.0470
      8  C          6.4420    0.0490   -1.0590 C.2     1  UNL1        0.0040
      9  C          8.4350    1.2250   -0.6750 C.2     1  UNL1        0.0040
     10  C          7.0200   -0.6840   -2.0670 C.2     1  UNL1        0.0000
     11  C          9.0460    0.5090   -1.6790 C.2     1  UNL1        0.0000
     12  C          8.3410   -0.4600   -2.3910 C.2     1  UNL1        0.0000
@<TRIPOS>BOND
     1    12    10    2
     2    12    11    1
     3    10     8    1
     4    11     9    2
     5     8     7    2
     6     9     7    1
     7     7     6    1
     8     1     6    1
     9     1     2    1
    10     2     4    1
    11     2     3    2
    12     5     4    1
