@<TRIPOS>MOLECULE
/home/cewinharhar/GITHUB/reincatalyze/data/processed/docking_pred/2023-Apr-25-2140_maxeplen10_maxtrainstep200_exh16_gamma099_lrac3e-4_lrcr1e-3/73f03501d88ed0f960f592fe5f6124e73644cb01_ligand_2.pdbqt
 12 12 0 0 0
SMALL
GASTEIGER

@<TRIPOS>ATOM
      1  C          8.2740    0.2310   -2.2260 C.3     1  UNL1        0.1270
      2  C          9.3830    0.3440   -1.2440 C.2     1  UNL1        0.3030
      3  O          9.4880   -0.3760   -0.2180 O.2     1  UNL1       -0.2520
      4  O         10.3710    1.2950   -1.4540 O.3     1  UNL1       -0.4810
      5  H         10.5210    1.5790   -2.4250 H       1  UNL1        0.2960
      6  C          7.1450   -0.5480   -1.6180 C.3     1  UNL1        0.0470
      7  C          6.3830    0.1820   -0.6080 C.2     1  UNL1       -0.0470
      8  C          6.1740   -0.2740    0.6700 C.2     1  UNL1        0.0040
      9  C          5.8360    1.3970   -0.9410 C.2     1  UNL1        0.0040
     10  C          5.4540    0.4270    1.6080 C.2     1  UNL1        0.0000
     11  C          5.1090    2.1240   -0.0280 C.2     1  UNL1        0.0000
     12  C          4.9080    1.6450    1.2660 C.2     1  UNL1        0.0000
@<TRIPOS>BOND
     1     5     4    1
     2     1     6    1
     3     1     2    1
     4     6     7    1
     5     4     2    1
     6     2     3    2
     7     9     7    2
     8     9    11    1
     9     7     8    1
    10    11    12    2
    11     8    10    2
    12    12    10    1
