@<TRIPOS>MOLECULE
/home/cewinharhar/GITHUB/reincatalyze/data/processed/docking_pred/2023-Apr-25-2140_maxeplen10_maxtrainstep200_exh16_gamma099_lrac3e-4_lrcr1e-3/73f03501d88ed0f960f592fe5f6124e73644cb01_ligand_2.pdbqt
 12 12 0 0 0
SMALL
GASTEIGER

@<TRIPOS>ATOM
      1  C          7.3250   -1.2870   -2.2010 C.3     1  UNL1        0.1270
      2  C          8.7750   -1.3960   -2.5070 C.2     1  UNL1        0.3030
      3  O          9.2850   -2.3410   -3.1600 O.2     1  UNL1       -0.2520
      4  O          9.6320   -0.4040   -2.0550 O.3     1  UNL1       -0.4810
      5  H          9.3400    0.5590   -2.2380 H       1  UNL1        0.2960
      6  C          7.1160   -1.4210   -0.7210 C.3     1  UNL1        0.0470
      7  C          6.3800   -0.3150   -0.1130 C.2     1  UNL1       -0.0470
      8  C          5.9160   -0.3250    1.1790 C.2     1  UNL1        0.0040
      9  C          6.1290    0.8060   -0.8640 C.2     1  UNL1        0.0040
     10  C          5.2250    0.7240    1.7360 C.2     1  UNL1        0.0000
     11  C          5.4400    1.8750   -0.3390 C.2     1  UNL1        0.0000
     12  C          4.9770    1.8470    0.9750 C.2     1  UNL1        0.0000
@<TRIPOS>BOND
     1     3     2    2
     2     2     1    1
     3     2     4    1
     4     5     4    1
     5     1     6    1
     6     9    11    1
     7     9     7    2
     8     6     7    1
     9    11    12    2
    10     7     8    1
    11    12    10    1
    12     8    10    2
