@<TRIPOS>MOLECULE
/home/cewinharhar/GITHUB/reincatalyze/data/processed/docking_pred/2023-Apr-25-2140_maxeplen10_maxtrainstep200_exh16_gamma099_lrac3e-4_lrcr1e-3/7473f82790d6809f011fa27bf7bcba9a4b9bdb46_ligand_2.pdbqt
 12 12 0 0 0
SMALL
GASTEIGER

@<TRIPOS>ATOM
      1  C          8.4200   -0.6270   -2.1200 C.3     1  UNL1        0.1270
      2  C          8.3670   -1.8910   -2.9000 C.2     1  UNL1        0.3030
      3  O          7.2990   -2.4390   -3.2740 O.2     1  UNL1       -0.2520
      4  O          9.5550   -2.5170   -3.2440 O.3     1  UNL1       -0.4810
      5  H         10.3460   -2.3570   -2.6150 H       1  UNL1        0.2960
      6  C          7.0620    0.0110   -2.1090 C.3     1  UNL1        0.0470
      7  C          6.4810    0.1690   -0.7780 C.2     1  UNL1       -0.0470
      8  C          5.8040    1.2920   -0.3680 C.2     1  UNL1        0.0040
      9  C          6.6100   -0.8550    0.1280 C.2     1  UNL1        0.0040
     10  C          5.2630    1.4240    0.8890 C.2     1  UNL1        0.0000
     11  C          6.0820   -0.7560    1.3940 C.2     1  UNL1        0.0000
     12  C          5.3980    0.3920    1.7920 C.2     1  UNL1        0.0000
@<TRIPOS>BOND
     1     3     2    2
     2     4     2    1
     3     4     5    1
     4     2     1    1
     5     1     6    1
     6     6     7    1
     7     7     8    2
     8     7     9    1
     9     8    10    1
    10     9    11    2
    11    10    12    2
    12    11    12    1
