@<TRIPOS>MOLECULE
/home/cewinharhar/GITHUB/reincatalyze/data/processed/docking_pred/2023-Apr-25-2140_maxeplen10_maxtrainstep200_exh16_gamma099_lrac3e-4_lrcr1e-3/7473f82790d6809f011fa27bf7bcba9a4b9bdb46_ligand_2.pdbqt
 12 12 0 0 0
SMALL
GASTEIGER

@<TRIPOS>ATOM
      1  C          5.0240    1.8270    0.6980 C.3     1  UNL1        0.1270
      2  C          4.5200    1.1130    1.9000 C.2     1  UNL1        0.3030
      3  O          5.1490    0.1960    2.4860 O.2     1  UNL1       -0.2520
      4  O          3.2840    1.4660    2.4210 O.3     1  UNL1       -0.4810
      5  H          2.6230    0.7000    2.5660 H       1  UNL1        0.2960
      6  C          6.5240    1.8110    0.7000 C.3     1  UNL1        0.0470
      7  C          7.1210    1.0200   -0.3730 C.2     1  UNL1       -0.0470
      8  C          6.4330    0.0870   -1.1090 C.2     1  UNL1        0.0040
      9  C          8.4470    1.2070   -0.6750 C.2     1  UNL1        0.0040
     10  C          7.0110   -0.6490   -2.1160 C.2     1  UNL1        0.0000
     11  C          9.0580    0.4870   -1.6760 C.2     1  UNL1        0.0000
     12  C          8.3420   -0.4550   -2.4130 C.2     1  UNL1        0.0000
@<TRIPOS>BOND
     1    12    10    2
     2    12    11    1
     3    10     8    1
     4    11     9    2
     5     8     7    2
     6     9     7    1
     7     7     6    1
     8     1     6    1
     9     1     2    1
    10     2     4    1
    11     2     3    2
    12     4     5    1
