MODEL 1
REMARK VINA RESULT:      -7.3      0.000      0.000
REMARK SMILES O=C(O)CCc1ccccc1
REMARK SMILES IDX 4 1 2 2 1 3 3 4 5 6 6 7 7 8 11 9 8 10 10 11 9 12
REMARK H PARENT 3 5
REMARK Flexibility Score: inf
ROOT
ATOM      1  C   UNL     1       8.452  -0.592  -2.213  1.00  0.00     0.127 C 
ENDROOT
BRANCH   1   2
ATOM      2  C   UNL     1       8.513  -1.899  -2.920  1.00  0.00     0.303 C 
ATOM      3  O   UNL     1       9.572  -2.553  -3.094  1.00  0.00    -0.252 OA
BRANCH   2   4
ATOM      4  O   UNL     1       7.342  -2.444  -3.423  1.00  0.00    -0.481 OA
ATOM      5  H   UNL     1       6.495  -2.268  -2.878  1.00  0.00     0.296 HD
ENDBRANCH   2   4
ENDBRANCH   1   2
BRANCH   1   6
ATOM      6  C   UNL     1       7.029  -0.119  -2.161  1.00  0.00     0.047 C 
BRANCH   6   7
ATOM      7  C   UNL     1       6.493   0.035  -0.810  1.00  0.00    -0.047 A 
ATOM      8  C   UNL     1       6.588  -0.928   0.164  1.00  0.00     0.004 A 
ATOM      9  C   UNL     1       5.853   1.204  -0.481  1.00  0.00     0.004 A 
ATOM     10  C   UNL     1       6.078  -0.767   1.430  1.00  0.00     0.000 A 
ATOM     11  C   UNL     1       5.330   1.399   0.777  1.00  0.00     0.000 A 
ATOM     12  C   UNL     1       5.437   0.410   1.753  1.00  0.00     0.000 A 
ENDBRANCH   6   7
ENDBRANCH   1   6
TORSDOF 4
ENDMDL
MODEL 2
REMARK VINA RESULT:      -7.2      0.126      1.721
REMARK SMILES O=C(O)CCc1ccccc1
REMARK SMILES IDX 4 1 2 2 1 3 3 4 5 6 6 7 7 8 11 9 8 10 10 11 9 12
REMARK H PARENT 3 5
REMARK Flexibility Score: inf
ROOT
ATOM      1  C   UNL     1       8.420  -0.627  -2.120  1.00  0.00     0.127 C 
ENDROOT
BRANCH   1   2
ATOM      2  C   UNL     1       8.367  -1.891  -2.900  1.00  0.00     0.303 C 
ATOM      3  O   UNL     1       7.299  -2.439  -3.274  1.00  0.00    -0.252 OA
BRANCH   2   4
ATOM      4  O   UNL     1       9.555  -2.517  -3.244  1.00  0.00    -0.481 OA
ATOM      5  H   UNL     1      10.346  -2.357  -2.615  1.00  0.00     0.296 HD
ENDBRANCH   2   4
ENDBRANCH   1   2
BRANCH   1   6
ATOM      6  C   UNL     1       7.062   0.011  -2.109  1.00  0.00     0.047 C 
BRANCH   6   7
ATOM      7  C   UNL     1       6.481   0.169  -0.778  1.00  0.00    -0.047 A 
ATOM      8  C   UNL     1       5.804   1.292  -0.368  1.00  0.00     0.004 A 
ATOM      9  C   UNL     1       6.610  -0.855   0.128  1.00  0.00     0.004 A 
ATOM     10  C   UNL     1       5.263   1.424   0.889  1.00  0.00     0.000 A 
ATOM     11  C   UNL     1       6.082  -0.756   1.394  1.00  0.00     0.000 A 
ATOM     12  C   UNL     1       5.398   0.392   1.792  1.00  0.00     0.000 A 
ENDBRANCH   6   7
ENDBRANCH   1   6
TORSDOF 4
ENDMDL
MODEL 3
REMARK VINA RESULT:      -6.8      3.370      5.067
REMARK SMILES O=C(O)CCc1ccccc1
REMARK SMILES IDX 4 1 2 2 1 3 3 4 5 6 6 7 7 8 11 9 8 10 10 11 9 12
REMARK H PARENT 3 5
REMARK Flexibility Score: inf
ROOT
ATOM      1  C   UNL     1       5.024   1.827   0.698  1.00  0.00     0.127 C 
ENDROOT
BRANCH   1   2
ATOM      2  C   UNL     1       4.520   1.113   1.900  1.00  0.00     0.303 C 
ATOM      3  O   UNL     1       5.149   0.196   2.486  1.00  0.00    -0.252 OA
BRANCH   2   4
ATOM      4  O   UNL     1       3.284   1.466   2.421  1.00  0.00    -0.481 OA
ATOM      5  H   UNL     1       2.623   0.700   2.566  1.00  0.00     0.296 HD
ENDBRANCH   2   4
ENDBRANCH   1   2
BRANCH   1   6
ATOM      6  C   UNL     1       6.524   1.811   0.700  1.00  0.00     0.047 C 
BRANCH   6   7
ATOM      7  C   UNL     1       7.121   1.020  -0.373  1.00  0.00    -0.047 A 
ATOM      8  C   UNL     1       6.433   0.087  -1.109  1.00  0.00     0.004 A 
ATOM      9  C   UNL     1       8.447   1.207  -0.675  1.00  0.00     0.004 A 
ATOM     10  C   UNL     1       7.011  -0.649  -2.116  1.00  0.00     0.000 A 
ATOM     11  C   UNL     1       9.058   0.487  -1.676  1.00  0.00     0.000 A 
ATOM     12  C   UNL     1       8.342  -0.455  -2.413  1.00  0.00     0.000 A 
ENDBRANCH   6   7
ENDBRANCH   1   6
TORSDOF 4
ENDMDL
MODEL 4
REMARK VINA RESULT:      -6.7      3.845      5.028
REMARK SMILES O=C(O)CCc1ccccc1
REMARK SMILES IDX 4 1 2 2 1 3 3 4 5 6 6 7 7 8 11 9 8 10 10 11 9 12
REMARK H PARENT 3 5
REMARK Flexibility Score: inf
ROOT
ATOM      1  C   UNL     1       5.368   2.917   0.049  1.00  0.00     0.127 C 
ENDROOT
BRANCH   1   2
ATOM      2  C   UNL     1       6.214   3.885   0.795  1.00  0.00     0.303 C 
ATOM      3  O   UNL     1       6.917   4.771   0.245  1.00  0.00    -0.252 OA
BRANCH   2   4
ATOM      4  O   UNL     1       6.241   3.824   2.180  1.00  0.00    -0.481 OA
ATOM      5  H   UNL     1       5.343   3.651   2.639  1.00  0.00     0.296 HD
ENDBRANCH   2   4
ENDBRANCH   1   2
BRANCH   1   6
ATOM      6  C   UNL     1       4.902   1.838   0.983  1.00  0.00     0.047 C 
BRANCH   6   7
ATOM      7  C   UNL     1       5.713   0.623   0.953  1.00  0.00    -0.047 A 
ATOM      8  C   UNL     1       6.439   0.215  -0.138  1.00  0.00     0.004 A 
ATOM      9  C   UNL     1       5.760  -0.169   2.074  1.00  0.00     0.004 A 
ATOM     10  C   UNL     1       7.197  -0.932  -0.149  1.00  0.00     0.000 A 
ATOM     11  C   UNL     1       6.507  -1.324   2.098  1.00  0.00     0.000 A 
ATOM     12  C   UNL     1       7.239  -1.722   0.980  1.00  0.00     0.000 A 
ENDBRANCH   6   7
ENDBRANCH   1   6
TORSDOF 4
ENDMDL
MODEL 5
REMARK VINA RESULT:      -6.6      2.001      2.687
REMARK SMILES O=C(O)CCc1ccccc1
REMARK SMILES IDX 4 1 2 2 1 3 3 4 5 6 6 7 7 8 11 9 8 10 10 11 9 12
REMARK H PARENT 3 5
REMARK Flexibility Score: inf
ROOT
ATOM      1  C   UNL     1       8.374   0.229  -2.082  1.00  0.00     0.127 C 
ENDROOT
BRANCH   1   2
ATOM      2  C   UNL     1       9.474   0.373  -1.093  1.00  0.00     0.303 C 
ATOM      3  O   UNL     1       9.586  -0.335  -0.060  1.00  0.00    -0.252 OA
BRANCH   2   4
ATOM      4  O   UNL     1      10.444   1.341  -1.306  1.00  0.00    -0.481 OA
ATOM      5  H   UNL     1      10.888   1.723  -0.468  1.00  0.00     0.296 HD
ENDBRANCH   2   4
ENDBRANCH   1   2
BRANCH   1   6
ATOM      6  C   UNL     1       7.249  -0.550  -1.467  1.00  0.00     0.047 C 
BRANCH   6   7
ATOM      7  C   UNL     1       6.426   0.214  -0.533  1.00  0.00    -0.047 A 
ATOM      8  C   UNL     1       5.859   1.429  -0.830  1.00  0.00     0.004 A 
ATOM      9  C   UNL     1       6.196  -0.299   0.720  1.00  0.00     0.004 A 
ATOM     10  C   UNL     1       5.087   2.135   0.062  1.00  0.00     0.000 A 
ATOM     11  C   UNL     1       5.429   0.381   1.638  1.00  0.00     0.000 A 
ATOM     12  C   UNL     1       4.862   1.613   1.318  1.00  0.00     0.000 A 
ENDBRANCH   6   7
ENDBRANCH   1   6
TORSDOF 4
ENDMDL
