@<TRIPOS>MOLECULE
/home/cewinharhar/GITHUB/reincatalyze/data/processed/docking_pred/2023-Apr-25-2140_maxeplen10_maxtrainstep200_exh16_gamma099_lrac3e-4_lrcr1e-3/7473f82790d6809f011fa27bf7bcba9a4b9bdb46_ligand_2.pdbqt
 12 12 0 0 0
SMALL
GASTEIGER

@<TRIPOS>ATOM
      1  C          8.4520   -0.5920   -2.2130 C.3     1  UNL1        0.1270
      2  C          8.5130   -1.8990   -2.9200 C.2     1  UNL1        0.3030
      3  O          9.5720   -2.5530   -3.0940 O.2     1  UNL1       -0.2520
      4  O          7.3420   -2.4440   -3.4230 O.3     1  UNL1       -0.4810
      5  H          6.4950   -2.2680   -2.8780 H       1  UNL1        0.2960
      6  C          7.0290   -0.1190   -2.1610 C.3     1  UNL1        0.0470
      7  C          6.4930    0.0350   -0.8100 C.2     1  UNL1       -0.0470
      8  C          6.5880   -0.9280    0.1640 C.2     1  UNL1        0.0040
      9  C          5.8530    1.2040   -0.4810 C.2     1  UNL1        0.0040
     10  C          6.0780   -0.7670    1.4300 C.2     1  UNL1        0.0000
     11  C          5.3300    1.3990    0.7770 C.2     1  UNL1        0.0000
     12  C          5.4370    0.4100    1.7530 C.2     1  UNL1        0.0000
@<TRIPOS>BOND
     1     4     2    1
     2     4     5    1
     3     3     2    2
     4     2     1    1
     5     1     6    1
     6     6     7    1
     7     7     9    2
     8     7     8    1
     9     9    11    1
    10     8    10    2
    11    11    12    2
    12    10    12    1
