@<TRIPOS>MOLECULE
/home/cewinharhar/GITHUB/reincatalyze/data/processed/docking_pred/2023-Apr-25-2140_maxeplen10_maxtrainstep200_exh16_gamma099_lrac3e-4_lrcr1e-3/7473f82790d6809f011fa27bf7bcba9a4b9bdb46_ligand_2.pdbqt
 12 12 0 0 0
SMALL
GASTEIGER

@<TRIPOS>ATOM
      1  C          8.3740    0.2290   -2.0820 C.3     1  UNL1        0.1270
      2  C          9.4740    0.3730   -1.0930 C.2     1  UNL1        0.3030
      3  O          9.5860   -0.3350   -0.0600 O.2     1  UNL1       -0.2520
      4  O         10.4440    1.3410   -1.3060 O.3     1  UNL1       -0.4810
      5  H         10.8880    1.7230   -0.4680 H       1  UNL1        0.2960
      6  C          7.2490   -0.5500   -1.4670 C.3     1  UNL1        0.0470
      7  C          6.4260    0.2140   -0.5330 C.2     1  UNL1       -0.0470
      8  C          5.8590    1.4290   -0.8300 C.2     1  UNL1        0.0040
      9  C          6.1960   -0.2990    0.7200 C.2     1  UNL1        0.0040
     10  C          5.0870    2.1350    0.0620 C.2     1  UNL1        0.0000
     11  C          5.4290    0.3810    1.6380 C.2     1  UNL1        0.0000
     12  C          4.8620    1.6130    1.3180 C.2     1  UNL1        0.0000
@<TRIPOS>BOND
     1     1     6    1
     2     1     2    1
     3     6     7    1
     4     4     2    1
     5     4     5    1
     6     2     3    2
     7     8     7    2
     8     8    10    1
     9     7     9    1
    10    10    12    2
    11     9    11    2
    12    12    11    1
