@<TRIPOS>MOLECULE
/home/cewinharhar/GITHUB/reincatalyze/data/processed/docking_pred/2023-Apr-25-2140_maxeplen10_maxtrainstep200_exh16_gamma099_lrac3e-4_lrcr1e-3/7473f82790d6809f011fa27bf7bcba9a4b9bdb46_ligand_2.pdbqt
 12 12 0 0 0
SMALL
GASTEIGER

@<TRIPOS>ATOM
      1  C          5.3680    2.9170    0.0490 C.3     1  UNL1        0.1270
      2  C          6.2140    3.8850    0.7950 C.2     1  UNL1        0.3030
      3  O          6.9170    4.7710    0.2450 O.2     1  UNL1       -0.2520
      4  O          6.2410    3.8240    2.1800 O.3     1  UNL1       -0.4810
      5  H          5.3430    3.6510    2.6390 H       1  UNL1        0.2960
      6  C          4.9020    1.8380    0.9830 C.3     1  UNL1        0.0470
      7  C          5.7130    0.6230    0.9530 C.2     1  UNL1       -0.0470
      8  C          6.4390    0.2150   -0.1380 C.2     1  UNL1        0.0040
      9  C          5.7600   -0.1690    2.0740 C.2     1  UNL1        0.0040
     10  C          7.1970   -0.9320   -0.1490 C.2     1  UNL1        0.0000
     11  C          6.5070   -1.3240    2.0980 C.2     1  UNL1        0.0000
     12  C          7.2390   -1.7220    0.9800 C.2     1  UNL1        0.0000
@<TRIPOS>BOND
     1    10     8    1
     2    10    12    2
     3     8     7    2
     4     1     2    1
     5     1     6    1
     6     3     2    2
     7     2     4    1
     8     7     6    1
     9     7     9    1
    10    12    11    1
    11     9    11    2
    12     4     5    1
