@<TRIPOS>MOLECULE
/home/cewinharhar/GITHUB/reincatalyze/data/processed/docking_pred/2023-Apr-25-2140_maxeplen10_maxtrainstep200_exh16_gamma099_lrac3e-4_lrcr1e-3/7d60c2a66717a3f4b6d307e9593656cfb0aaeeb8_ligand_2.pdbqt
 12 12 0 0 0
SMALL
GASTEIGER

@<TRIPOS>ATOM
      1  C          8.4310   -0.5380   -2.2630 C.3     1  UNL1        0.1270
      2  C          8.5060   -1.8680   -2.9230 C.2     1  UNL1        0.3030
      3  O          9.5680   -2.5270   -3.0550 O.2     1  UNL1       -0.2520
      4  O          7.3440   -2.4310   -3.4300 O.3     1  UNL1       -0.4810
      5  H          7.0720   -3.3320   -3.0310 H       1  UNL1        0.2960
      6  C          6.9970   -0.1070   -2.1680 C.3     1  UNL1        0.0470
      7  C          6.4870   -0.0010   -0.8030 C.2     1  UNL1       -0.0470
      8  C          6.6020   -0.9980    0.1350 C.2     1  UNL1        0.0040
      9  C          5.8530    1.1550   -0.4210 C.2     1  UNL1        0.0040
     10  C          6.1170   -0.8820    1.4160 C.2     1  UNL1        0.0000
     11  C          5.3540    1.3050    0.8530 C.2     1  UNL1        0.0000
     12  C          5.4810    0.2820    1.7920 C.2     1  UNL1        0.0000
@<TRIPOS>BOND
     1     4     5    1
     2     4     2    1
     3     3     2    2
     4     2     1    1
     5     1     6    1
     6     6     7    1
     7     7     9    2
     8     7     8    1
     9     9    11    1
    10     8    10    2
    11    11    12    2
    12    10    12    1
