@<TRIPOS>MOLECULE
/home/cewinharhar/GITHUB/reincatalyze/data/processed/docking_pred/2023-Apr-25-2140_maxeplen10_maxtrainstep200_exh16_gamma099_lrac3e-4_lrcr1e-3/7d60c2a66717a3f4b6d307e9593656cfb0aaeeb8_ligand_2.pdbqt
 12 12 0 0 0
SMALL
GASTEIGER

@<TRIPOS>ATOM
      1  C          8.4530   -0.6210   -2.1590 C.3     1  UNL1        0.1270
      2  C          8.5190   -1.8990   -2.9140 C.2     1  UNL1        0.3030
      3  O          9.5810   -2.5390   -3.1180 O.2     1  UNL1       -0.2520
      4  O          7.3480   -2.4340   -3.4300 O.3     1  UNL1       -0.4810
      5  H          6.6320   -1.7600   -3.7100 H       1  UNL1        0.2960
      6  C          7.0390   -0.1170   -2.1510 C.3     1  UNL1        0.0470
      7  C          6.4780    0.0840   -0.8170 C.2     1  UNL1       -0.0470
      8  C          5.8320    1.2310   -0.4250 C.2     1  UNL1        0.0040
      9  C          6.5950   -0.9220    0.1090 C.2     1  UNL1        0.0040
     10  C          5.3100    1.4040    0.8340 C.2     1  UNL1        0.0000
     11  C          6.0850   -0.7820    1.3790 C.2     1  UNL1        0.0000
     12  C          5.4320    0.3890    1.7590 C.2     1  UNL1        0.0000
@<TRIPOS>BOND
     1     5     4    1
     2     4     2    1
     3     3     2    2
     4     2     1    1
     5     1     6    1
     6     6     7    1
     7     7     8    2
     8     7     9    1
     9     8    10    1
    10     9    11    2
    11    10    12    2
    12    11    12    1
