@<TRIPOS>MOLECULE
/home/cewinharhar/GITHUB/reincatalyze/data/processed/docking_pred/2023-Apr-25-2140_maxeplen10_maxtrainstep200_exh16_gamma099_lrac3e-4_lrcr1e-3/7d60c2a66717a3f4b6d307e9593656cfb0aaeeb8_ligand_2.pdbqt
 12 12 0 0 0
SMALL
GASTEIGER

@<TRIPOS>ATOM
      1  C          8.1700   -0.8560   -1.9620 C.3     1  UNL1        0.1270
      2  C          8.4090   -2.0060   -2.8720 C.2     1  UNL1        0.3030
      3  O          9.5400   -2.5170   -3.0730 O.2     1  UNL1       -0.2520
      4  O          7.3330   -2.5620   -3.5470 O.3     1  UNL1       -0.4810
      5  H          7.5590   -3.0880   -4.3950 H       1  UNL1        0.2960
      6  C          7.4140   -1.3240   -0.7530 C.3     1  UNL1        0.0470
      7  C          6.5760   -0.3020   -0.1320 C.2     1  UNL1       -0.0470
      8  C          6.0940   -0.3850    1.1520 C.2     1  UNL1        0.0040
      9  C          6.2410    0.8130   -0.8600 C.2     1  UNL1        0.0040
     10  C          5.3060    0.5870    1.7210 C.2     1  UNL1        0.0000
     11  C          5.4530    1.8040   -0.3220 C.2     1  UNL1        0.0000
     12  C          4.9740    1.7030    0.9830 C.2     1  UNL1        0.0000
@<TRIPOS>BOND
     1     5     4    1
     2     4     2    1
     3     3     2    2
     4     2     1    1
     5     1     6    1
     6     9    11    1
     7     9     7    2
     8     6     7    1
     9    11    12    2
    10     7     8    1
    11    12    10    1
    12     8    10    2
