@<TRIPOS>MOLECULE
/home/cewinharhar/GITHUB/reincatalyze/data/processed/docking_pred/2023-Apr-25-2140_maxeplen10_maxtrainstep200_exh16_gamma099_lrac3e-4_lrcr1e-3/7d60c2a66717a3f4b6d307e9593656cfb0aaeeb8_ligand_2.pdbqt
 12 12 0 0 0
SMALL
GASTEIGER

@<TRIPOS>ATOM
      1  C          5.0240    1.7770    0.6860 C.3     1  UNL1        0.1270
      2  C          4.5990    1.0530    1.9120 C.2     1  UNL1        0.3030
      3  O          5.2960    0.1800    2.4890 O.2     1  UNL1       -0.2520
      4  O          3.3630    1.3460    2.4690 O.3     1  UNL1       -0.4810
      5  H          2.6030    0.7010    2.2390 H       1  UNL1        0.2960
      6  C          6.5210    1.8910    0.6670 C.3     1  UNL1        0.0470
      7  C          7.1730    1.1010   -0.3740 C.2     1  UNL1       -0.0470
      8  C          8.5140    1.1770   -0.6630 C.2     1  UNL1        0.0040
      9  C          6.4170    0.2290   -1.1170 C.2     1  UNL1        0.0040
     10  C          9.1120    0.4260   -1.6470 C.2     1  UNL1        0.0000
     11  C          6.9820   -0.5360   -2.1100 C.2     1  UNL1        0.0000
     12  C          8.3450   -0.4470   -2.3890 C.2     1  UNL1        0.0000
@<TRIPOS>BOND
     1    12    11    2
     2    12    10    1
     3    11     9    1
     4    10     8    2
     5     9     7    2
     6     8     7    1
     7     7     6    1
     8     6     1    1
     9     1     2    1
    10     2     4    1
    11     2     3    2
    12     5     4    1
