@<TRIPOS>MOLECULE
/home/cewinharhar/GITHUB/reincatalyze/data/processed/docking_pred/2023-Apr-25-2140_maxeplen10_maxtrainstep200_exh16_gamma099_lrac3e-4_lrcr1e-3/7d60c2a66717a3f4b6d307e9593656cfb0aaeeb8_ligand_2.pdbqt
 12 12 0 0 0
SMALL
GASTEIGER

@<TRIPOS>ATOM
      1  C          8.2860    0.2010   -2.2400 C.3     1  UNL1        0.1270
      2  C          9.3830    0.3580   -1.2490 C.2     1  UNL1        0.3030
      3  O          9.5030   -0.3520   -0.2190 O.2     1  UNL1       -0.2520
      4  O         10.3390    1.3400   -1.4570 O.3     1  UNL1       -0.4810
      5  H         11.2070    1.0340   -1.9020 H       1  UNL1        0.2960
      6  C          7.1510   -0.5550   -1.6140 C.3     1  UNL1        0.0470
      7  C          6.3820    0.2110   -0.6360 C.2     1  UNL1       -0.0470
      8  C          6.1490   -0.2090    0.6500 C.2     1  UNL1        0.0040
      9  C          5.8540    1.4220   -1.0100 C.2     1  UNL1        0.0040
     10  C          5.4230    0.5240    1.5580 C.2     1  UNL1        0.0000
     11  C          5.1220    2.1810   -0.1280 C.2     1  UNL1        0.0000
     12  C          4.8960    1.7390    1.1750 C.2     1  UNL1        0.0000
@<TRIPOS>BOND
     1     1     6    1
     2     1     2    1
     3     5     4    1
     4     6     7    1
     5     4     2    1
     6     2     3    2
     7     9     7    2
     8     9    11    1
     9     7     8    1
    10    11    12    2
    11     8    10    2
    12    12    10    1
