MODEL 1
REMARK VINA RESULT:      -7.4      0.000      0.000
REMARK SMILES O=C(O)CCc1ccccc1
REMARK SMILES IDX 4 1 2 2 1 3 3 4 5 6 6 7 7 8 11 9 8 10 10 11 9 12
REMARK H PARENT 3 5
REMARK Flexibility Score: inf
ROOT
ATOM      1  C   UNL     1       8.453  -0.621  -2.159  1.00  0.00     0.127 C 
ENDROOT
BRANCH   1   2
ATOM      2  C   UNL     1       8.519  -1.899  -2.914  1.00  0.00     0.303 C 
ATOM      3  O   UNL     1       9.581  -2.539  -3.118  1.00  0.00    -0.252 OA
BRANCH   2   4
ATOM      4  O   UNL     1       7.348  -2.434  -3.430  1.00  0.00    -0.481 OA
ATOM      5  H   UNL     1       6.632  -1.760  -3.710  1.00  0.00     0.296 HD
ENDBRANCH   2   4
ENDBRANCH   1   2
BRANCH   1   6
ATOM      6  C   UNL     1       7.039  -0.117  -2.151  1.00  0.00     0.047 C 
BRANCH   6   7
ATOM      7  C   UNL     1       6.478   0.084  -0.817  1.00  0.00    -0.047 A 
ATOM      8  C   UNL     1       5.832   1.231  -0.425  1.00  0.00     0.004 A 
ATOM      9  C   UNL     1       6.595  -0.922   0.109  1.00  0.00     0.004 A 
ATOM     10  C   UNL     1       5.310   1.404   0.834  1.00  0.00     0.000 A 
ATOM     11  C   UNL     1       6.085  -0.782   1.379  1.00  0.00     0.000 A 
ATOM     12  C   UNL     1       5.432   0.389   1.759  1.00  0.00     0.000 A 
ENDBRANCH   6   7
ENDBRANCH   1   6
TORSDOF 4
ENDMDL
MODEL 2
REMARK VINA RESULT:      -7.3      0.088      1.428
REMARK SMILES O=C(O)CCc1ccccc1
REMARK SMILES IDX 4 1 2 2 1 3 3 4 5 6 6 7 7 8 11 9 8 10 10 11 9 12
REMARK H PARENT 3 5
REMARK Flexibility Score: inf
ROOT
ATOM      1  C   UNL     1       8.431  -0.538  -2.263  1.00  0.00     0.127 C 
ENDROOT
BRANCH   1   2
ATOM      2  C   UNL     1       8.506  -1.868  -2.923  1.00  0.00     0.303 C 
ATOM      3  O   UNL     1       9.568  -2.527  -3.055  1.00  0.00    -0.252 OA
BRANCH   2   4
ATOM      4  O   UNL     1       7.344  -2.431  -3.430  1.00  0.00    -0.481 OA
ATOM      5  H   UNL     1       7.072  -3.332  -3.031  1.00  0.00     0.296 HD
ENDBRANCH   2   4
ENDBRANCH   1   2
BRANCH   1   6
ATOM      6  C   UNL     1       6.997  -0.107  -2.168  1.00  0.00     0.047 C 
BRANCH   6   7
ATOM      7  C   UNL     1       6.487  -0.001  -0.803  1.00  0.00    -0.047 A 
ATOM      8  C   UNL     1       6.602  -0.998   0.135  1.00  0.00     0.004 A 
ATOM      9  C   UNL     1       5.853   1.155  -0.421  1.00  0.00     0.004 A 
ATOM     10  C   UNL     1       6.117  -0.882   1.416  1.00  0.00     0.000 A 
ATOM     11  C   UNL     1       5.354   1.305   0.853  1.00  0.00     0.000 A 
ATOM     12  C   UNL     1       5.481   0.282   1.792  1.00  0.00     0.000 A 
ENDBRANCH   6   7
ENDBRANCH   1   6
TORSDOF 4
ENDMDL
MODEL 3
REMARK VINA RESULT:      -7.2      0.610      1.585
REMARK SMILES O=C(O)CCc1ccccc1
REMARK SMILES IDX 4 1 2 2 1 3 3 4 5 6 6 7 7 8 11 9 8 10 10 11 9 12
REMARK H PARENT 3 5
REMARK Flexibility Score: inf
ROOT
ATOM      1  C   UNL     1       8.170  -0.856  -1.962  1.00  0.00     0.127 C 
ENDROOT
BRANCH   1   2
ATOM      2  C   UNL     1       8.409  -2.006  -2.872  1.00  0.00     0.303 C 
ATOM      3  O   UNL     1       9.540  -2.517  -3.073  1.00  0.00    -0.252 OA
BRANCH   2   4
ATOM      4  O   UNL     1       7.333  -2.562  -3.547  1.00  0.00    -0.481 OA
ATOM      5  H   UNL     1       7.559  -3.088  -4.395  1.00  0.00     0.296 HD
ENDBRANCH   2   4
ENDBRANCH   1   2
BRANCH   1   6
ATOM      6  C   UNL     1       7.414  -1.324  -0.753  1.00  0.00     0.047 C 
BRANCH   6   7
ATOM      7  C   UNL     1       6.576  -0.302  -0.132  1.00  0.00    -0.047 A 
ATOM      8  C   UNL     1       6.094  -0.385   1.152  1.00  0.00     0.004 A 
ATOM      9  C   UNL     1       6.241   0.813  -0.860  1.00  0.00     0.004 A 
ATOM     10  C   UNL     1       5.306   0.587   1.721  1.00  0.00     0.000 A 
ATOM     11  C   UNL     1       5.453   1.804  -0.322  1.00  0.00     0.000 A 
ATOM     12  C   UNL     1       4.974   1.703   0.983  1.00  0.00     0.000 A 
ENDBRANCH   6   7
ENDBRANCH   1   6
TORSDOF 4
ENDMDL
MODEL 4
REMARK VINA RESULT:      -6.8      3.350      5.047
REMARK SMILES O=C(O)CCc1ccccc1
REMARK SMILES IDX 4 1 2 2 1 3 3 4 5 6 6 7 7 8 11 9 8 10 10 11 9 12
REMARK H PARENT 3 5
REMARK Flexibility Score: inf
ROOT
ATOM      1  C   UNL     1       5.024   1.777   0.686  1.00  0.00     0.127 C 
ENDROOT
BRANCH   1   2
ATOM      2  C   UNL     1       4.599   1.053   1.912  1.00  0.00     0.303 C 
ATOM      3  O   UNL     1       5.296   0.180   2.489  1.00  0.00    -0.252 OA
BRANCH   2   4
ATOM      4  O   UNL     1       3.363   1.346   2.469  1.00  0.00    -0.481 OA
ATOM      5  H   UNL     1       2.603   0.701   2.239  1.00  0.00     0.296 HD
ENDBRANCH   2   4
ENDBRANCH   1   2
BRANCH   1   6
ATOM      6  C   UNL     1       6.521   1.891   0.667  1.00  0.00     0.047 C 
BRANCH   6   7
ATOM      7  C   UNL     1       7.173   1.101  -0.374  1.00  0.00    -0.047 A 
ATOM      8  C   UNL     1       8.514   1.177  -0.663  1.00  0.00     0.004 A 
ATOM      9  C   UNL     1       6.417   0.229  -1.117  1.00  0.00     0.004 A 
ATOM     10  C   UNL     1       9.112   0.426  -1.647  1.00  0.00     0.000 A 
ATOM     11  C   UNL     1       6.982  -0.536  -2.110  1.00  0.00     0.000 A 
ATOM     12  C   UNL     1       8.345  -0.447  -2.389  1.00  0.00     0.000 A 
ENDBRANCH   6   7
ENDBRANCH   1   6
TORSDOF 4
ENDMDL
MODEL 5
REMARK VINA RESULT:      -6.7      1.939      2.637
REMARK SMILES O=C(O)CCc1ccccc1
REMARK SMILES IDX 4 1 2 2 1 3 3 4 5 6 6 7 7 8 11 9 8 10 10 11 9 12
REMARK H PARENT 3 5
REMARK Flexibility Score: inf
ROOT
ATOM      1  C   UNL     1       8.286   0.201  -2.240  1.00  0.00     0.127 C 
ENDROOT
BRANCH   1   2
ATOM      2  C   UNL     1       9.383   0.358  -1.249  1.00  0.00     0.303 C 
ATOM      3  O   UNL     1       9.503  -0.352  -0.219  1.00  0.00    -0.252 OA
BRANCH   2   4
ATOM      4  O   UNL     1      10.339   1.340  -1.457  1.00  0.00    -0.481 OA
ATOM      5  H   UNL     1      11.207   1.034  -1.902  1.00  0.00     0.296 HD
ENDBRANCH   2   4
ENDBRANCH   1   2
BRANCH   1   6
ATOM      6  C   UNL     1       7.151  -0.555  -1.614  1.00  0.00     0.047 C 
BRANCH   6   7
ATOM      7  C   UNL     1       6.382   0.211  -0.636  1.00  0.00    -0.047 A 
ATOM      8  C   UNL     1       6.149  -0.209   0.650  1.00  0.00     0.004 A 
ATOM      9  C   UNL     1       5.854   1.422  -1.010  1.00  0.00     0.004 A 
ATOM     10  C   UNL     1       5.423   0.524   1.558  1.00  0.00     0.000 A 
ATOM     11  C   UNL     1       5.122   2.181  -0.128  1.00  0.00     0.000 A 
ATOM     12  C   UNL     1       4.896   1.739   1.175  1.00  0.00     0.000 A 
ENDBRANCH   6   7
ENDBRANCH   1   6
TORSDOF 4
ENDMDL
