MODEL 1
REMARK VINA RESULT:      -7.3      0.000      0.000
REMARK SMILES O=C(O)CCc1ccccc1
REMARK SMILES IDX 4 1 2 2 1 3 3 4 5 6 6 7 7 8 11 9 8 10 10 11 9 12
REMARK H PARENT 3 5
REMARK Flexibility Score: inf
ROOT
ATOM      1  C   UNL     1       8.463  -0.575  -2.215  1.00  0.00     0.127 C 
ENDROOT
BRANCH   1   2
ATOM      2  C   UNL     1       8.517  -1.880  -2.923  1.00  0.00     0.303 C 
ATOM      3  O   UNL     1       9.575  -2.530  -3.118  1.00  0.00    -0.252 OA
BRANCH   2   4
ATOM      4  O   UNL     1       7.338  -2.430  -3.405  1.00  0.00    -0.481 OA
ATOM      5  H   UNL     1       6.512  -2.307  -2.816  1.00  0.00     0.296 HD
ENDBRANCH   2   4
ENDBRANCH   1   2
BRANCH   1   6
ATOM      6  C   UNL     1       7.048  -0.078  -2.191  1.00  0.00     0.047 C 
BRANCH   6   7
ATOM      7  C   UNL     1       6.497   0.111  -0.851  1.00  0.00    -0.047 A 
ATOM      8  C   UNL     1       5.848   1.251  -0.445  1.00  0.00     0.004 A 
ATOM      9  C   UNL     1       6.628  -0.901   0.068  1.00  0.00     0.004 A 
ATOM     10  C   UNL     1       5.335   1.412   0.821  1.00  0.00     0.000 A 
ATOM     11  C   UNL     1       6.128  -0.773   1.343  1.00  0.00     0.000 A 
ATOM     12  C   UNL     1       5.472   0.392   1.737  1.00  0.00     0.000 A 
ENDBRANCH   6   7
ENDBRANCH   1   6
TORSDOF 4
ENDMDL
MODEL 2
REMARK VINA RESULT:      -7.3      0.087      1.428
REMARK SMILES O=C(O)CCc1ccccc1
REMARK SMILES IDX 4 1 2 2 1 3 3 4 5 6 6 7 7 8 11 9 8 10 10 11 9 12
REMARK H PARENT 3 5
REMARK Flexibility Score: inf
ROOT
ATOM      1  C   UNL     1       8.395  -0.520  -2.246  1.00  0.00     0.127 C 
ENDROOT
BRANCH   1   2
ATOM      2  C   UNL     1       8.479  -1.842  -2.919  1.00  0.00     0.303 C 
ATOM      3  O   UNL     1       9.552  -2.472  -3.097  1.00  0.00    -0.252 OA
BRANCH   2   4
ATOM      4  O   UNL     1       7.314  -2.432  -3.386  1.00  0.00    -0.481 OA
ATOM      5  H   UNL     1       7.435  -3.260  -3.974  1.00  0.00     0.296 HD
ENDBRANCH   2   4
ENDBRANCH   1   2
BRANCH   1   6
ATOM      6  C   UNL     1       6.958  -0.098  -2.152  1.00  0.00     0.047 C 
BRANCH   6   7
ATOM      7  C   UNL     1       6.455   0.031  -0.786  1.00  0.00    -0.047 A 
ATOM      8  C   UNL     1       6.563  -0.955   0.164  1.00  0.00     0.004 A 
ATOM      9  C   UNL     1       5.834   1.198  -0.416  1.00  0.00     0.004 A 
ATOM     10  C   UNL     1       6.083  -0.818   1.445  1.00  0.00     0.000 A 
ATOM     11  C   UNL     1       5.342   1.369   0.857  1.00  0.00     0.000 A 
ATOM     12  C   UNL     1       5.461   0.358   1.809  1.00  0.00     0.000 A 
ENDBRANCH   6   7
ENDBRANCH   1   6
TORSDOF 4
ENDMDL
MODEL 3
REMARK VINA RESULT:      -6.8      3.365      5.081
REMARK SMILES O=C(O)CCc1ccccc1
REMARK SMILES IDX 4 1 2 2 1 3 3 4 5 6 6 7 7 8 11 9 8 10 10 11 9 12
REMARK H PARENT 3 5
REMARK Flexibility Score: inf
ROOT
ATOM      1  C   UNL     1       5.009   1.826   0.705  1.00  0.00     0.127 C 
ENDROOT
BRANCH   1   2
ATOM      2  C   UNL     1       4.501   1.114   1.907  1.00  0.00     0.303 C 
ATOM      3  O   UNL     1       5.123   0.189   2.488  1.00  0.00    -0.252 OA
BRANCH   2   4
ATOM      4  O   UNL     1       3.271   1.479   2.432  1.00  0.00    -0.481 OA
ATOM      5  H   UNL     1       3.295   1.981   3.323  1.00  0.00     0.296 HD
ENDBRANCH   2   4
ENDBRANCH   1   2
BRANCH   1   6
ATOM      6  C   UNL     1       6.509   1.818   0.716  1.00  0.00     0.047 C 
BRANCH   6   7
ATOM      7  C   UNL     1       7.117   1.016  -0.344  1.00  0.00    -0.047 A 
ATOM      8  C   UNL     1       6.443   0.053  -1.055  1.00  0.00     0.004 A 
ATOM      9  C   UNL     1       8.436   1.225  -0.659  1.00  0.00     0.004 A 
ATOM     10  C   UNL     1       7.030  -0.692  -2.050  1.00  0.00     0.000 A 
ATOM     11  C   UNL     1       9.056   0.497  -1.648  1.00  0.00     0.000 A 
ATOM     12  C   UNL     1       8.356  -0.476  -2.360  1.00  0.00     0.000 A 
ENDBRANCH   6   7
ENDBRANCH   1   6
TORSDOF 4
ENDMDL
MODEL 4
REMARK VINA RESULT:      -6.7      1.934      2.641
REMARK SMILES O=C(O)CCc1ccccc1
REMARK SMILES IDX 4 1 2 2 1 3 3 4 5 6 6 7 7 8 11 9 8 10 10 11 9 12
REMARK H PARENT 3 5
REMARK Flexibility Score: inf
ROOT
ATOM      1  C   UNL     1       8.303   0.219  -2.217  1.00  0.00     0.127 C 
ENDROOT
BRANCH   1   2
ATOM      2  C   UNL     1       9.395   0.342  -1.217  1.00  0.00     0.303 C 
ATOM      3  O   UNL     1       9.504  -0.393  -0.203  1.00  0.00    -0.252 OA
BRANCH   2   4
ATOM      4  O   UNL     1      10.362   1.320  -1.397  1.00  0.00    -0.481 OA
ATOM      5  H   UNL     1      10.715   1.763  -0.546  1.00  0.00     0.296 HD
ENDBRANCH   2   4
ENDBRANCH   1   2
BRANCH   1   6
ATOM      6  C   UNL     1       7.152  -0.530  -1.610  1.00  0.00     0.047 C 
BRANCH   6   7
ATOM      7  C   UNL     1       6.382   0.236  -0.632  1.00  0.00    -0.047 A 
ATOM      8  C   UNL     1       6.144  -0.187   0.652  1.00  0.00     0.004 A 
ATOM      9  C   UNL     1       5.860   1.450  -1.004  1.00  0.00     0.004 A 
ATOM     10  C   UNL     1       5.417   0.546   1.560  1.00  0.00     0.000 A 
ATOM     11  C   UNL     1       5.127   2.209  -0.121  1.00  0.00     0.000 A 
ATOM     12  C   UNL     1       4.896   1.764   1.179  1.00  0.00     0.000 A 
ENDBRANCH   6   7
ENDBRANCH   1   6
TORSDOF 4
ENDMDL
MODEL 5
REMARK VINA RESULT:      -6.6      3.845      5.012
REMARK SMILES O=C(O)CCc1ccccc1
REMARK SMILES IDX 4 1 2 2 1 3 3 4 5 6 6 7 7 8 11 9 8 10 10 11 9 12
REMARK H PARENT 3 5
REMARK Flexibility Score: inf
ROOT
ATOM      1  C   UNL     1       5.623   3.000  -0.070  1.00  0.00     0.127 C 
ENDROOT
BRANCH   1   2
ATOM      2  C   UNL     1       6.316   3.902   0.886  1.00  0.00     0.303 C 
ATOM      3  O   UNL     1       6.074   3.936   2.120  1.00  0.00    -0.252 OA
BRANCH   2   4
ATOM      4  O   UNL     1       7.292   4.764   0.409  1.00  0.00    -0.481 OA
ATOM      5  H   UNL     1       8.202   4.343   0.206  1.00  0.00     0.296 HD
ENDBRANCH   2   4
ENDBRANCH   1   2
BRANCH   1   6
ATOM      6  C   UNL     1       4.905   1.923   0.690  1.00  0.00     0.047 C 
BRANCH   6   7
ATOM      7  C   UNL     1       5.670   0.689   0.857  1.00  0.00    -0.047 A 
ATOM      8  C   UNL     1       5.751  -0.005   2.038  1.00  0.00     0.004 A 
ATOM      9  C   UNL     1       6.353   0.183  -0.220  1.00  0.00     0.004 A 
ATOM     10  C   UNL     1       6.475  -1.165   2.178  1.00  0.00     0.000 A 
ATOM     11  C   UNL     1       7.089  -0.975  -0.116  1.00  0.00     0.000 A 
ATOM     12  C   UNL     1       7.159  -1.667   1.092  1.00  0.00     0.000 A 
ENDBRANCH   6   7
ENDBRANCH   1   6
TORSDOF 4
ENDMDL
