@<TRIPOS>MOLECULE
/home/cewinharhar/GITHUB/reincatalyze/data/processed/docking_pred/2023-Apr-25-2140_maxeplen10_maxtrainstep200_exh16_gamma099_lrac3e-4_lrcr1e-3/7e2b2812a39c1bf8d23d6aab3a18bb39f1acac0e_ligand_2.pdbqt
 12 12 0 0 0
SMALL
GASTEIGER

@<TRIPOS>ATOM
      1  C          5.0090    1.8260    0.7050 C.3     1  UNL1        0.1270
      2  C          4.5010    1.1140    1.9070 C.2     1  UNL1        0.3030
      3  O          5.1230    0.1890    2.4880 O.2     1  UNL1       -0.2520
      4  O          3.2710    1.4790    2.4320 O.3     1  UNL1       -0.4810
      5  H          3.2950    1.9810    3.3230 H       1  UNL1        0.2960
      6  C          6.5090    1.8180    0.7160 C.3     1  UNL1        0.0470
      7  C          7.1170    1.0160   -0.3440 C.2     1  UNL1       -0.0470
      8  C          6.4430    0.0530   -1.0550 C.2     1  UNL1        0.0040
      9  C          8.4360    1.2250   -0.6590 C.2     1  UNL1        0.0040
     10  C          7.0300   -0.6920   -2.0500 C.2     1  UNL1        0.0000
     11  C          9.0560    0.4970   -1.6480 C.2     1  UNL1        0.0000
     12  C          8.3560   -0.4760   -2.3600 C.2     1  UNL1        0.0000
@<TRIPOS>BOND
     1    12    10    2
     2    12    11    1
     3    10     8    1
     4    11     9    2
     5     8     7    2
     6     9     7    1
     7     7     6    1
     8     1     6    1
     9     1     2    1
    10     2     4    1
    11     2     3    2
    12     4     5    1
