@<TRIPOS>MOLECULE
/home/cewinharhar/GITHUB/reincatalyze/data/processed/docking_pred/2023-Apr-25-2140_maxeplen10_maxtrainstep200_exh16_gamma099_lrac3e-4_lrcr1e-3/7e2b2812a39c1bf8d23d6aab3a18bb39f1acac0e_ligand_2.pdbqt
 12 12 0 0 0
SMALL
GASTEIGER

@<TRIPOS>ATOM
      1  C          8.3950   -0.5200   -2.2460 C.3     1  UNL1        0.1270
      2  C          8.4790   -1.8420   -2.9190 C.2     1  UNL1        0.3030
      3  O          9.5520   -2.4720   -3.0970 O.2     1  UNL1       -0.2520
      4  O          7.3140   -2.4320   -3.3860 O.3     1  UNL1       -0.4810
      5  H          7.4350   -3.2600   -3.9740 H       1  UNL1        0.2960
      6  C          6.9580   -0.0980   -2.1520 C.3     1  UNL1        0.0470
      7  C          6.4550    0.0310   -0.7860 C.2     1  UNL1       -0.0470
      8  C          6.5630   -0.9550    0.1640 C.2     1  UNL1        0.0040
      9  C          5.8340    1.1980   -0.4160 C.2     1  UNL1        0.0040
     10  C          6.0830   -0.8180    1.4450 C.2     1  UNL1        0.0000
     11  C          5.3420    1.3690    0.8570 C.2     1  UNL1        0.0000
     12  C          5.4610    0.3580    1.8090 C.2     1  UNL1        0.0000
@<TRIPOS>BOND
     1     5     4    1
     2     4     2    1
     3     3     2    2
     4     2     1    1
     5     1     6    1
     6     6     7    1
     7     7     9    2
     8     7     8    1
     9     9    11    1
    10     8    10    2
    11    11    12    2
    12    10    12    1
