@<TRIPOS>MOLECULE
/home/cewinharhar/GITHUB/reincatalyze/data/processed/docking_pred/2023-Apr-25-2140_maxeplen10_maxtrainstep200_exh16_gamma099_lrac3e-4_lrcr1e-3/7e2b2812a39c1bf8d23d6aab3a18bb39f1acac0e_ligand_2.pdbqt
 12 12 0 0 0
SMALL
GASTEIGER

@<TRIPOS>ATOM
      1  C          8.3030    0.2190   -2.2170 C.3     1  UNL1        0.1270
      2  C          9.3950    0.3420   -1.2170 C.2     1  UNL1        0.3030
      3  O          9.5040   -0.3930   -0.2030 O.2     1  UNL1       -0.2520
      4  O         10.3620    1.3200   -1.3970 O.3     1  UNL1       -0.4810
      5  H         10.7150    1.7630   -0.5460 H       1  UNL1        0.2960
      6  C          7.1520   -0.5300   -1.6100 C.3     1  UNL1        0.0470
      7  C          6.3820    0.2360   -0.6320 C.2     1  UNL1       -0.0470
      8  C          6.1440   -0.1870    0.6520 C.2     1  UNL1        0.0040
      9  C          5.8600    1.4500   -1.0040 C.2     1  UNL1        0.0040
     10  C          5.4170    0.5460    1.5600 C.2     1  UNL1        0.0000
     11  C          5.1270    2.2090   -0.1210 C.2     1  UNL1        0.0000
     12  C          4.8960    1.7640    1.1790 C.2     1  UNL1        0.0000
@<TRIPOS>BOND
     1     1     6    1
     2     1     2    1
     3     6     7    1
     4     4     2    1
     5     4     5    1
     6     2     3    2
     7     9     7    2
     8     9    11    1
     9     7     8    1
    10    11    12    2
    11     8    10    2
    12    12    10    1
