@<TRIPOS>MOLECULE
/home/cewinharhar/GITHUB/reincatalyze/data/processed/docking_pred/2023-Apr-25-2140_maxeplen10_maxtrainstep200_exh16_gamma099_lrac3e-4_lrcr1e-3/7e2b2812a39c1bf8d23d6aab3a18bb39f1acac0e_ligand_2.pdbqt
 12 12 0 0 0
SMALL
GASTEIGER

@<TRIPOS>ATOM
      1  C          8.4630   -0.5750   -2.2150 C.3     1  UNL1        0.1270
      2  C          8.5170   -1.8800   -2.9230 C.2     1  UNL1        0.3030
      3  O          9.5750   -2.5300   -3.1180 O.2     1  UNL1       -0.2520
      4  O          7.3380   -2.4300   -3.4050 O.3     1  UNL1       -0.4810
      5  H          6.5120   -2.3070   -2.8160 H       1  UNL1        0.2960
      6  C          7.0480   -0.0780   -2.1910 C.3     1  UNL1        0.0470
      7  C          6.4970    0.1110   -0.8510 C.2     1  UNL1       -0.0470
      8  C          5.8480    1.2510   -0.4450 C.2     1  UNL1        0.0040
      9  C          6.6280   -0.9010    0.0680 C.2     1  UNL1        0.0040
     10  C          5.3350    1.4120    0.8210 C.2     1  UNL1        0.0000
     11  C          6.1280   -0.7730    1.3430 C.2     1  UNL1        0.0000
     12  C          5.4720    0.3920    1.7370 C.2     1  UNL1        0.0000
@<TRIPOS>BOND
     1     4     2    1
     2     4     5    1
     3     3     2    2
     4     2     1    1
     5     1     6    1
     6     6     7    1
     7     7     8    2
     8     7     9    1
     9     8    10    1
    10     9    11    2
    11    10    12    2
    12    11    12    1
