@<TRIPOS>MOLECULE
/home/cewinharhar/GITHUB/reincatalyze/data/processed/docking_pred/2023-Apr-25-2140_maxeplen10_maxtrainstep200_exh16_gamma099_lrac3e-4_lrcr1e-3/80b3dd8cd2b2e3944ffcf13b099740dfc166ef97_ligand_2.pdbqt
 12 12 0 0 0
SMALL
GASTEIGER

@<TRIPOS>ATOM
      1  C          5.0240    1.7750    0.7090 C.3     1  UNL1        0.1270
      2  C          4.5960    1.0380    1.9270 C.2     1  UNL1        0.3030
      3  O          5.2920    0.1580    2.4940 O.2     1  UNL1       -0.2520
      4  O          3.3590    1.3240    2.4840 O.3     1  UNL1       -0.4810
      5  H          2.7900    2.0100    1.9830 H       1  UNL1        0.2960
      6  C          6.5230    1.8370    0.6640 C.3     1  UNL1        0.0470
      7  C          7.1290    1.0280   -0.3900 C.2     1  UNL1       -0.0470
      8  C          6.4420    0.0960   -1.1290 C.2     1  UNL1        0.0040
      9  C          8.4620    1.1960   -0.6710 C.2     1  UNL1        0.0040
     10  C          7.0290   -0.6580   -2.1180 C.2     1  UNL1        0.0000
     11  C          9.0820    0.4590   -1.6530 C.2     1  UNL1        0.0000
     12  C          8.3680   -0.4830   -2.3930 C.2     1  UNL1        0.0000
@<TRIPOS>BOND
     1    12    10    2
     2    12    11    1
     3    10     8    1
     4    11     9    2
     5     8     7    2
     6     9     7    1
     7     7     6    1
     8     6     1    1
     9     1     2    1
    10     2     4    1
    11     2     3    2
    12     5     4    1
