MODEL 1
REMARK VINA RESULT:      -7.4      0.000      0.000
REMARK SMILES O=C(O)CCc1ccccc1
REMARK SMILES IDX 4 1 2 2 1 3 3 4 5 6 6 7 7 8 11 9 8 10 10 11 9 12
REMARK H PARENT 3 5
REMARK Flexibility Score: inf
ROOT
ATOM      1  C   UNL     1       8.468  -0.648  -2.101  1.00  0.00     0.127 C 
ENDROOT
BRANCH   1   2
ATOM      2  C   UNL     1       8.510  -1.917  -2.873  1.00  0.00     0.303 C 
ATOM      3  O   UNL     1       9.560  -2.574  -3.085  1.00  0.00    -0.252 OA
BRANCH   2   4
ATOM      4  O   UNL     1       7.330  -2.422  -3.397  1.00  0.00    -0.481 OA
ATOM      5  H   UNL     1       6.636  -2.740  -2.716  1.00  0.00     0.296 HD
ENDBRANCH   2   4
ENDBRANCH   1   2
BRANCH   1   6
ATOM      6  C   UNL     1       7.070  -0.103  -2.110  1.00  0.00     0.047 C 
BRANCH   6   7
ATOM      7  C   UNL     1       6.486   0.085  -0.784  1.00  0.00    -0.047 A 
ATOM      8  C   UNL     1       5.827   1.224  -0.394  1.00  0.00     0.004 A 
ATOM      9  C   UNL     1       6.594  -0.928   0.137  1.00  0.00     0.004 A 
ATOM     10  C   UNL     1       5.283   1.384   0.859  1.00  0.00     0.000 A 
ATOM     11  C   UNL     1       6.062  -0.801   1.399  1.00  0.00     0.000 A 
ATOM     12  C   UNL     1       5.396   0.363   1.778  1.00  0.00     0.000 A 
ENDBRANCH   6   7
ENDBRANCH   1   6
TORSDOF 4
ENDMDL
MODEL 2
REMARK VINA RESULT:      -7.4      0.057      1.426
REMARK SMILES O=C(O)CCc1ccccc1
REMARK SMILES IDX 4 1 2 2 1 3 3 4 5 6 6 7 7 8 11 9 8 10 10 11 9 12
REMARK H PARENT 3 5
REMARK Flexibility Score: inf
ROOT
ATOM      1  C   UNL     1       8.440  -0.602  -2.161  1.00  0.00     0.127 C 
ENDROOT
BRANCH   1   2
ATOM      2  C   UNL     1       8.503  -1.888  -2.902  1.00  0.00     0.303 C 
ATOM      3  O   UNL     1       9.563  -2.537  -3.092  1.00  0.00    -0.252 OA
BRANCH   2   4
ATOM      4  O   UNL     1       7.332  -2.420  -3.422  1.00  0.00    -0.481 OA
ATOM      5  H   UNL     1       7.395  -3.374  -3.784  1.00  0.00     0.296 HD
ENDBRANCH   2   4
ENDBRANCH   1   2
BRANCH   1   6
ATOM      6  C   UNL     1       7.019  -0.124  -2.108  1.00  0.00     0.047 C 
BRANCH   6   7
ATOM      7  C   UNL     1       6.480   0.020  -0.758  1.00  0.00    -0.047 A 
ATOM      8  C   UNL     1       6.569  -0.952   0.208  1.00  0.00     0.004 A 
ATOM      9  C   UNL     1       5.843   1.188  -0.420  1.00  0.00     0.004 A 
ATOM     10  C   UNL     1       6.056  -0.800   1.474  1.00  0.00     0.000 A 
ATOM     11  C   UNL     1       5.317   1.374   0.838  1.00  0.00     0.000 A 
ATOM     12  C   UNL     1       5.418   0.375   1.806  1.00  0.00     0.000 A 
ENDBRANCH   6   7
ENDBRANCH   1   6
TORSDOF 4
ENDMDL
MODEL 3
REMARK VINA RESULT:      -6.8      3.330      5.054
REMARK SMILES O=C(O)CCc1ccccc1
REMARK SMILES IDX 4 1 2 2 1 3 3 4 5 6 6 7 7 8 11 9 8 10 10 11 9 12
REMARK H PARENT 3 5
REMARK Flexibility Score: inf
ROOT
ATOM      1  C   UNL     1       5.024   1.775   0.709  1.00  0.00     0.127 C 
ENDROOT
BRANCH   1   2
ATOM      2  C   UNL     1       4.596   1.038   1.927  1.00  0.00     0.303 C 
ATOM      3  O   UNL     1       5.292   0.158   2.494  1.00  0.00    -0.252 OA
BRANCH   2   4
ATOM      4  O   UNL     1       3.359   1.324   2.484  1.00  0.00    -0.481 OA
ATOM      5  H   UNL     1       2.790   2.010   1.983  1.00  0.00     0.296 HD
ENDBRANCH   2   4
ENDBRANCH   1   2
BRANCH   1   6
ATOM      6  C   UNL     1       6.523   1.837   0.664  1.00  0.00     0.047 C 
BRANCH   6   7
ATOM      7  C   UNL     1       7.129   1.028  -0.390  1.00  0.00    -0.047 A 
ATOM      8  C   UNL     1       6.442   0.096  -1.129  1.00  0.00     0.004 A 
ATOM      9  C   UNL     1       8.462   1.196  -0.671  1.00  0.00     0.004 A 
ATOM     10  C   UNL     1       7.029  -0.658  -2.118  1.00  0.00     0.000 A 
ATOM     11  C   UNL     1       9.082   0.459  -1.653  1.00  0.00     0.000 A 
ATOM     12  C   UNL     1       8.368  -0.483  -2.393  1.00  0.00     0.000 A 
ENDBRANCH   6   7
ENDBRANCH   1   6
TORSDOF 4
ENDMDL
MODEL 4
REMARK VINA RESULT:      -6.7      1.945      2.654
REMARK SMILES O=C(O)CCc1ccccc1
REMARK SMILES IDX 4 1 2 2 1 3 3 4 5 6 6 7 7 8 11 9 8 10 10 11 9 12
REMARK H PARENT 3 5
REMARK Flexibility Score: inf
ROOT
ATOM      1  C   UNL     1       8.231   0.270  -2.219  1.00  0.00     0.127 C 
ENDROOT
BRANCH   1   2
ATOM      2  C   UNL     1       9.342   0.368  -1.237  1.00  0.00     0.303 C 
ATOM      3  O   UNL     1       9.462  -0.384  -0.237  1.00  0.00    -0.252 OA
BRANCH   2   4
ATOM      4  O   UNL     1      10.314   1.340  -1.419  1.00  0.00    -0.481 OA
ATOM      5  H   UNL     1      11.059   1.112  -2.081  1.00  0.00     0.296 HD
ENDBRANCH   2   4
ENDBRANCH   1   2
BRANCH   1   6
ATOM      6  C   UNL     1       7.081  -0.468  -1.601  1.00  0.00     0.047 C 
BRANCH   6   7
ATOM      7  C   UNL     1       6.323   0.306  -0.620  1.00  0.00    -0.047 A 
ATOM      8  C   UNL     1       6.105  -0.103   0.672  1.00  0.00     0.004 A 
ATOM      9  C   UNL     1       5.791   1.514  -0.998  1.00  0.00     0.004 A 
ATOM     10  C   UNL     1       5.389   0.639   1.582  1.00  0.00     0.000 A 
ATOM     11  C   UNL     1       5.069   2.281  -0.114  1.00  0.00     0.000 A 
ATOM     12  C   UNL     1       4.858   1.850   1.195  1.00  0.00     0.000 A 
ENDBRANCH   6   7
ENDBRANCH   1   6
TORSDOF 4
ENDMDL
MODEL 5
REMARK VINA RESULT:      -6.5      2.038      2.633
REMARK SMILES O=C(O)CCc1ccccc1
REMARK SMILES IDX 4 1 2 2 1 3 3 4 5 6 6 7 7 8 11 9 8 10 10 11 9 12
REMARK H PARENT 3 5
REMARK Flexibility Score: inf
ROOT
ATOM      1  C   UNL     1       7.892  -2.379   0.785  1.00  0.00     0.127 C 
ENDROOT
BRANCH   1   2
ATOM      2  C   UNL     1       8.763  -3.469   0.275  1.00  0.00     0.303 C 
ATOM      3  O   UNL     1       8.737  -3.892  -0.909  1.00  0.00    -0.252 OA
BRANCH   2   4
ATOM      4  O   UNL     1       9.667  -4.065   1.141  1.00  0.00    -0.481 OA
ATOM      5  H   UNL     1       9.325  -4.883   1.652  1.00  0.00     0.296 HD
ENDBRANCH   2   4
ENDBRANCH   1   2
BRANCH   1   6
ATOM      6  C   UNL     1       7.537  -1.454  -0.342  1.00  0.00     0.047 C 
BRANCH   6   7
ATOM      7  C   UNL     1       6.656  -0.351   0.036  1.00  0.00    -0.047 A 
ATOM      8  C   UNL     1       6.332   0.690  -0.800  1.00  0.00     0.004 A 
ATOM      9  C   UNL     1       6.112  -0.340   1.296  1.00  0.00     0.004 A 
ATOM     10  C   UNL     1       5.501   1.719  -0.428  1.00  0.00     0.000 A 
ATOM     11  C   UNL     1       5.277   0.675   1.702  1.00  0.00     0.000 A 
ATOM     12  C   UNL     1       4.959   1.723   0.840  1.00  0.00     0.000 A 
ENDBRANCH   6   7
ENDBRANCH   1   6
TORSDOF 4
ENDMDL
