@<TRIPOS>MOLECULE
/home/cewinharhar/GITHUB/reincatalyze/data/processed/docking_pred/2023-Apr-25-2140_maxeplen10_maxtrainstep200_exh16_gamma099_lrac3e-4_lrcr1e-3/80b3dd8cd2b2e3944ffcf13b099740dfc166ef97_ligand_2.pdbqt
 12 12 0 0 0
SMALL
GASTEIGER

@<TRIPOS>ATOM
      1  C          7.8920   -2.3790    0.7850 C.3     1  UNL1        0.1270
      2  C          8.7630   -3.4690    0.2750 C.2     1  UNL1        0.3030
      3  O          8.7370   -3.8920   -0.9090 O.2     1  UNL1       -0.2520
      4  O          9.6670   -4.0650    1.1410 O.3     1  UNL1       -0.4810
      5  H          9.3250   -4.8830    1.6520 H       1  UNL1        0.2960
      6  C          7.5370   -1.4540   -0.3420 C.3     1  UNL1        0.0470
      7  C          6.6560   -0.3510    0.0360 C.2     1  UNL1       -0.0470
      8  C          6.3320    0.6900   -0.8000 C.2     1  UNL1        0.0040
      9  C          6.1120   -0.3400    1.2960 C.2     1  UNL1        0.0040
     10  C          5.5010    1.7190   -0.4280 C.2     1  UNL1        0.0000
     11  C          5.2770    0.6750    1.7020 C.2     1  UNL1        0.0000
     12  C          4.9590    1.7230    0.8400 C.2     1  UNL1        0.0000
@<TRIPOS>BOND
     1     3     2    2
     2     8    10    1
     3     8     7    2
     4    10    12    2
     5     6     7    1
     6     6     1    1
     7     7     9    1
     8     2     1    1
     9     2     4    1
    10    12    11    1
    11     4     5    1
    12     9    11    2
