@<TRIPOS>MOLECULE
/home/cewinharhar/GITHUB/reincatalyze/data/processed/docking_pred/2023-Apr-25-2140_maxeplen10_maxtrainstep200_exh16_gamma099_lrac3e-4_lrcr1e-3/80b3dd8cd2b2e3944ffcf13b099740dfc166ef97_ligand_2.pdbqt
 12 12 0 0 0
SMALL
GASTEIGER

@<TRIPOS>ATOM
      1  C          8.4400   -0.6020   -2.1610 C.3     1  UNL1        0.1270
      2  C          8.5030   -1.8880   -2.9020 C.2     1  UNL1        0.3030
      3  O          9.5630   -2.5370   -3.0920 O.2     1  UNL1       -0.2520
      4  O          7.3320   -2.4200   -3.4220 O.3     1  UNL1       -0.4810
      5  H          7.3950   -3.3740   -3.7840 H       1  UNL1        0.2960
      6  C          7.0190   -0.1240   -2.1080 C.3     1  UNL1        0.0470
      7  C          6.4800    0.0200   -0.7580 C.2     1  UNL1       -0.0470
      8  C          6.5690   -0.9520    0.2080 C.2     1  UNL1        0.0040
      9  C          5.8430    1.1880   -0.4200 C.2     1  UNL1        0.0040
     10  C          6.0560   -0.8000    1.4740 C.2     1  UNL1        0.0000
     11  C          5.3170    1.3740    0.8380 C.2     1  UNL1        0.0000
     12  C          5.4180    0.3750    1.8060 C.2     1  UNL1        0.0000
@<TRIPOS>BOND
     1     5     4    1
     2     4     2    1
     3     3     2    2
     4     2     1    1
     5     1     6    1
     6     6     7    1
     7     7     9    2
     8     7     8    1
     9     9    11    1
    10     8    10    2
    11    11    12    2
    12    10    12    1
