@<TRIPOS>MOLECULE
/home/cewinharhar/GITHUB/reincatalyze/data/processed/docking_pred/2023-Apr-25-2140_maxeplen10_maxtrainstep200_exh16_gamma099_lrac3e-4_lrcr1e-3/80b3dd8cd2b2e3944ffcf13b099740dfc166ef97_ligand_2.pdbqt
 12 12 0 0 0
SMALL
GASTEIGER

@<TRIPOS>ATOM
      1  C          8.4680   -0.6480   -2.1010 C.3     1  UNL1        0.1270
      2  C          8.5100   -1.9170   -2.8730 C.2     1  UNL1        0.3030
      3  O          9.5600   -2.5740   -3.0850 O.2     1  UNL1       -0.2520
      4  O          7.3300   -2.4220   -3.3970 O.3     1  UNL1       -0.4810
      5  H          6.6360   -2.7400   -2.7160 H       1  UNL1        0.2960
      6  C          7.0700   -0.1030   -2.1100 C.3     1  UNL1        0.0470
      7  C          6.4860    0.0850   -0.7840 C.2     1  UNL1       -0.0470
      8  C          5.8270    1.2240   -0.3940 C.2     1  UNL1        0.0040
      9  C          6.5940   -0.9280    0.1370 C.2     1  UNL1        0.0040
     10  C          5.2830    1.3840    0.8590 C.2     1  UNL1        0.0000
     11  C          6.0620   -0.8010    1.3990 C.2     1  UNL1        0.0000
     12  C          5.3960    0.3630    1.7780 C.2     1  UNL1        0.0000
@<TRIPOS>BOND
     1     4     2    1
     2     4     5    1
     3     3     2    2
     4     2     1    1
     5     6     1    1
     6     6     7    1
     7     7     8    2
     8     7     9    1
     9     8    10    1
    10     9    11    2
    11    10    12    2
    12    11    12    1
