@<TRIPOS>MOLECULE
/home/cewinharhar/GITHUB/reincatalyze/data/processed/docking_pred/2023-Apr-25-2140_maxeplen10_maxtrainstep200_exh16_gamma099_lrac3e-4_lrcr1e-3/80c9945afd0f5f9f0270d56cce32b054e5c09707_ligand_2.pdbqt
 12 12 0 0 0
SMALL
GASTEIGER

@<TRIPOS>ATOM
      1  C          4.9780    1.8070    0.6960 C.3     1  UNL1        0.1270
      2  C          4.4580    1.0930    1.8920 C.2     1  UNL1        0.3030
      3  O          5.0530    0.1370    2.4510 O.2     1  UNL1       -0.2520
      4  O          3.2470    1.4910    2.4370 O.3     1  UNL1       -0.4810
      5  H          2.5150    0.7780    2.4720 H       1  UNL1        0.2960
      6  C          6.4780    1.7910    0.7180 C.3     1  UNL1        0.0470
      7  C          7.0880    1.0020   -0.3500 C.2     1  UNL1       -0.0470
      8  C          6.4220    0.0370   -1.0640 C.2     1  UNL1        0.0040
      9  C          8.4040    1.2270   -0.6700 C.2     1  UNL1        0.0040
     10  C          7.0120   -0.6960   -2.0660 C.2     1  UNL1        0.0000
     11  C          9.0260    0.5110   -1.6670 C.2     1  UNL1        0.0000
     12  C          8.3330   -0.4650   -2.3810 C.2     1  UNL1        0.0000
@<TRIPOS>BOND
     1    12    10    2
     2    12    11    1
     3    10     8    1
     4    11     9    2
     5     8     7    2
     6     9     7    1
     7     7     6    1
     8     1     6    1
     9     1     2    1
    10     2     4    1
    11     2     3    2
    12     4     5    1
