@<TRIPOS>MOLECULE
/home/cewinharhar/GITHUB/reincatalyze/data/processed/docking_pred/2023-Apr-25-2140_maxeplen10_maxtrainstep200_exh16_gamma099_lrac3e-4_lrcr1e-3/80c9945afd0f5f9f0270d56cce32b054e5c09707_ligand_2.pdbqt
 12 12 0 0 0
SMALL
GASTEIGER

@<TRIPOS>ATOM
      1  C          8.4300    0.6740   -1.6760 C.3     1  UNL1        0.1270
      2  C          9.5670    0.2740   -0.8060 C.2     1  UNL1        0.3030
      3  O          9.4640   -0.5240    0.1600 O.2     1  UNL1       -0.2520
      4  O         10.8230    0.8030   -1.0600 O.3     1  UNL1       -0.4810
      5  H         10.8490    1.6310   -1.6590 H       1  UNL1        0.2960
      6  C          7.2560   -0.2220   -1.4070 C.3     1  UNL1        0.0470
      7  C          6.3700    0.2460   -0.3440 C.2     1  UNL1       -0.0470
      8  C          6.0900   -0.4760    0.7900 C.2     1  UNL1        0.0040
      9  C          5.7740    1.4760   -0.4720 C.2     1  UNL1        0.0040
     10  C          5.2530   -0.0200    1.7810 C.2     1  UNL1        0.0000
     11  C          4.9310    1.9630    0.5000 C.2     1  UNL1        0.0000
     12  C          4.6590    1.2160    1.6450 C.2     1  UNL1        0.0000
@<TRIPOS>BOND
     1     1     6    1
     2     1     2    1
     3     5     4    1
     4     6     7    1
     5     4     2    1
     6     2     3    2
     7     9     7    2
     8     9    11    1
     9     7     8    1
    10    11    12    2
    11     8    10    2
    12    12    10    1
