@<TRIPOS>MOLECULE
/home/cewinharhar/GITHUB/reincatalyze/data/processed/docking_pred/2023-Apr-25-2140_maxeplen10_maxtrainstep200_exh16_gamma099_lrac3e-4_lrcr1e-3/80c9945afd0f5f9f0270d56cce32b054e5c09707_ligand_2.pdbqt
 12 12 0 0 0
SMALL
GASTEIGER

@<TRIPOS>ATOM
      1  C          5.4160    2.8460    0.0710 C.3     1  UNL1        0.1270
      2  C          6.2000    3.8060    0.8910 C.2     1  UNL1        0.3030
      3  O          6.2220    3.8000    2.1480 O.2     1  UNL1       -0.2520
      4  O          6.9580    4.7740    0.2490 O.3     1  UNL1       -0.4810
      5  H          6.4340    5.5140   -0.2230 H       1  UNL1        0.2960
      6  C          4.8550    1.7730    0.9580 C.3     1  UNL1        0.0470
      7  C          5.6540    0.5510    1.0080 C.2     1  UNL1       -0.0470
      8  C          5.7420   -0.2600    2.1120 C.2     1  UNL1        0.0040
      9  C          6.3650    0.1790   -0.1060 C.2     1  UNL1        0.0040
     10  C          6.4990   -1.4070    2.1420 C.2     1  UNL1        0.0000
     11  C          7.1340   -0.9620   -0.1110 C.2     1  UNL1        0.0000
     12  C          7.2100   -1.7740    1.0200 C.2     1  UNL1        0.0000
@<TRIPOS>BOND
     1     5     4    1
     2    11     9    1
     3    11    12    2
     4     9     7    2
     5     1     2    1
     6     1     6    1
     7     4     2    1
     8     2     3    2
     9     6     7    1
    10     7     8    1
    11    12    10    1
    12     8    10    2
