MODEL 1
REMARK VINA RESULT:      -7.3      0.000      0.000
REMARK SMILES O=C(O)CCc1ccccc1
REMARK SMILES IDX 4 1 2 2 1 3 3 4 5 6 6 7 7 8 11 9 8 10 10 11 9 12
REMARK H PARENT 3 5
REMARK Flexibility Score: inf
ROOT
ATOM      1  C   UNL     1       8.446  -0.559  -2.181  1.00  0.00     0.127 C 
ENDROOT
BRANCH   1   2
ATOM      2  C   UNL     1       8.509  -1.859  -2.897  1.00  0.00     0.303 C 
ATOM      3  O   UNL     1       9.573  -2.497  -3.100  1.00  0.00    -0.252 OA
BRANCH   2   4
ATOM      4  O   UNL     1       7.333  -2.418  -3.377  1.00  0.00    -0.481 OA
ATOM      5  H   UNL     1       7.400  -2.898  -4.277  1.00  0.00     0.296 HD
ENDBRANCH   2   4
ENDBRANCH   1   2
BRANCH   1   6
ATOM      6  C   UNL     1       7.025  -0.077  -2.143  1.00  0.00     0.047 C 
BRANCH   6   7
ATOM      7  C   UNL     1       6.457   0.023  -0.800  1.00  0.00    -0.047 A 
ATOM      8  C   UNL     1       6.518  -0.983   0.132  1.00  0.00     0.004 A 
ATOM      9  C   UNL     1       5.822   1.184  -0.435  1.00  0.00     0.004 A 
ATOM     10  C   UNL     1       5.978  -0.871   1.392  1.00  0.00     0.000 A 
ATOM     11  C   UNL     1       5.270   1.330   0.817  1.00  0.00     0.000 A 
ATOM     12  C   UNL     1       5.342   0.298   1.751  1.00  0.00     0.000 A 
ENDBRANCH   6   7
ENDBRANCH   1   6
TORSDOF 4
ENDMDL
MODEL 2
REMARK VINA RESULT:      -7.3      0.051      1.426
REMARK SMILES O=C(O)CCc1ccccc1
REMARK SMILES IDX 4 1 2 2 1 3 3 4 5 6 6 7 7 8 11 9 8 10 10 11 9 12
REMARK H PARENT 3 5
REMARK Flexibility Score: inf
ROOT
ATOM      1  C   UNL     1       8.408  -0.561  -2.167  1.00  0.00     0.127 C 
ENDROOT
BRANCH   1   2
ATOM      2  C   UNL     1       8.497  -1.841  -2.916  1.00  0.00     0.303 C 
ATOM      3  O   UNL     1       9.573  -2.454  -3.132  1.00  0.00    -0.252 OA
BRANCH   2   4
ATOM      4  O   UNL     1       7.334  -2.409  -3.413  1.00  0.00    -0.481 OA
ATOM      5  H   UNL     1       6.457  -2.023  -3.055  1.00  0.00     0.296 HD
ENDBRANCH   2   4
ENDBRANCH   1   2
BRANCH   1   6
ATOM      6  C   UNL     1       6.983  -0.091  -2.149  1.00  0.00     0.047 C 
BRANCH   6   7
ATOM      7  C   UNL     1       6.418   0.071  -0.811  1.00  0.00    -0.047 A 
ATOM      8  C   UNL     1       5.774   1.207  -0.386  1.00  0.00     0.004 A 
ATOM      9  C   UNL     1       6.530  -0.963   0.085  1.00  0.00     0.004 A 
ATOM     10  C   UNL     1       5.248   1.343   0.876  1.00  0.00     0.000 A 
ATOM     11  C   UNL     1       6.016  -0.861   1.357  1.00  0.00     0.000 A 
ATOM     12  C   UNL     1       5.364   0.300   1.770  1.00  0.00     0.000 A 
ENDBRANCH   6   7
ENDBRANCH   1   6
TORSDOF 4
ENDMDL
MODEL 3
REMARK VINA RESULT:      -6.9      3.357      5.057
REMARK SMILES O=C(O)CCc1ccccc1
REMARK SMILES IDX 4 1 2 2 1 3 3 4 5 6 6 7 7 8 11 9 8 10 10 11 9 12
REMARK H PARENT 3 5
REMARK Flexibility Score: inf
ROOT
ATOM      1  C   UNL     1       4.978   1.807   0.696  1.00  0.00     0.127 C 
ENDROOT
BRANCH   1   2
ATOM      2  C   UNL     1       4.458   1.093   1.892  1.00  0.00     0.303 C 
ATOM      3  O   UNL     1       5.053   0.137   2.451  1.00  0.00    -0.252 OA
BRANCH   2   4
ATOM      4  O   UNL     1       3.247   1.491   2.437  1.00  0.00    -0.481 OA
ATOM      5  H   UNL     1       2.515   0.778   2.472  1.00  0.00     0.296 HD
ENDBRANCH   2   4
ENDBRANCH   1   2
BRANCH   1   6
ATOM      6  C   UNL     1       6.478   1.791   0.718  1.00  0.00     0.047 C 
BRANCH   6   7
ATOM      7  C   UNL     1       7.088   1.002  -0.350  1.00  0.00    -0.047 A 
ATOM      8  C   UNL     1       6.422   0.037  -1.064  1.00  0.00     0.004 A 
ATOM      9  C   UNL     1       8.404   1.227  -0.670  1.00  0.00     0.004 A 
ATOM     10  C   UNL     1       7.012  -0.696  -2.066  1.00  0.00     0.000 A 
ATOM     11  C   UNL     1       9.026   0.511  -1.667  1.00  0.00     0.000 A 
ATOM     12  C   UNL     1       8.333  -0.465  -2.381  1.00  0.00     0.000 A 
ENDBRANCH   6   7
ENDBRANCH   1   6
TORSDOF 4
ENDMDL
MODEL 4
REMARK VINA RESULT:      -6.6      2.056      2.325
REMARK SMILES O=C(O)CCc1ccccc1
REMARK SMILES IDX 4 1 2 2 1 3 3 4 5 6 6 7 7 8 11 9 8 10 10 11 9 12
REMARK H PARENT 3 5
REMARK Flexibility Score: inf
ROOT
ATOM      1  C   UNL     1       8.430   0.674  -1.676  1.00  0.00     0.127 C 
ENDROOT
BRANCH   1   2
ATOM      2  C   UNL     1       9.567   0.274  -0.806  1.00  0.00     0.303 C 
ATOM      3  O   UNL     1       9.464  -0.524   0.160  1.00  0.00    -0.252 OA
BRANCH   2   4
ATOM      4  O   UNL     1      10.823   0.803  -1.060  1.00  0.00    -0.481 OA
ATOM      5  H   UNL     1      10.849   1.631  -1.659  1.00  0.00     0.296 HD
ENDBRANCH   2   4
ENDBRANCH   1   2
BRANCH   1   6
ATOM      6  C   UNL     1       7.256  -0.222  -1.407  1.00  0.00     0.047 C 
BRANCH   6   7
ATOM      7  C   UNL     1       6.370   0.246  -0.344  1.00  0.00    -0.047 A 
ATOM      8  C   UNL     1       6.090  -0.476   0.790  1.00  0.00     0.004 A 
ATOM      9  C   UNL     1       5.774   1.476  -0.472  1.00  0.00     0.004 A 
ATOM     10  C   UNL     1       5.253  -0.020   1.781  1.00  0.00     0.000 A 
ATOM     11  C   UNL     1       4.931   1.963   0.500  1.00  0.00     0.000 A 
ATOM     12  C   UNL     1       4.659   1.216   1.645  1.00  0.00     0.000 A 
ENDBRANCH   6   7
ENDBRANCH   1   6
TORSDOF 4
ENDMDL
MODEL 5
REMARK VINA RESULT:      -6.6      3.832      4.940
REMARK SMILES O=C(O)CCc1ccccc1
REMARK SMILES IDX 4 1 2 2 1 3 3 4 5 6 6 7 7 8 11 9 8 10 10 11 9 12
REMARK H PARENT 3 5
REMARK Flexibility Score: inf
ROOT
ATOM      1  C   UNL     1       5.416   2.846   0.071  1.00  0.00     0.127 C 
ENDROOT
BRANCH   1   2
ATOM      2  C   UNL     1       6.200   3.806   0.891  1.00  0.00     0.303 C 
ATOM      3  O   UNL     1       6.222   3.800   2.148  1.00  0.00    -0.252 OA
BRANCH   2   4
ATOM      4  O   UNL     1       6.958   4.774   0.249  1.00  0.00    -0.481 OA
ATOM      5  H   UNL     1       6.434   5.514  -0.223  1.00  0.00     0.296 HD
ENDBRANCH   2   4
ENDBRANCH   1   2
BRANCH   1   6
ATOM      6  C   UNL     1       4.855   1.773   0.958  1.00  0.00     0.047 C 
BRANCH   6   7
ATOM      7  C   UNL     1       5.654   0.551   1.008  1.00  0.00    -0.047 A 
ATOM      8  C   UNL     1       5.742  -0.260   2.112  1.00  0.00     0.004 A 
ATOM      9  C   UNL     1       6.365   0.179  -0.106  1.00  0.00     0.004 A 
ATOM     10  C   UNL     1       6.499  -1.407   2.142  1.00  0.00     0.000 A 
ATOM     11  C   UNL     1       7.134  -0.962  -0.111  1.00  0.00     0.000 A 
ATOM     12  C   UNL     1       7.210  -1.774   1.020  1.00  0.00     0.000 A 
ENDBRANCH   6   7
ENDBRANCH   1   6
TORSDOF 4
ENDMDL
