@<TRIPOS>MOLECULE
/home/cewinharhar/GITHUB/reincatalyze/data/processed/docking_pred/2023-Apr-25-2140_maxeplen10_maxtrainstep200_exh16_gamma099_lrac3e-4_lrcr1e-3/80c9945afd0f5f9f0270d56cce32b054e5c09707_ligand_2.pdbqt
 12 12 0 0 0
SMALL
GASTEIGER

@<TRIPOS>ATOM
      1  C          8.4460   -0.5590   -2.1810 C.3     1  UNL1        0.1270
      2  C          8.5090   -1.8590   -2.8970 C.2     1  UNL1        0.3030
      3  O          9.5730   -2.4970   -3.1000 O.2     1  UNL1       -0.2520
      4  O          7.3330   -2.4180   -3.3770 O.3     1  UNL1       -0.4810
      5  H          7.4000   -2.8980   -4.2770 H       1  UNL1        0.2960
      6  C          7.0250   -0.0770   -2.1430 C.3     1  UNL1        0.0470
      7  C          6.4570    0.0230   -0.8000 C.2     1  UNL1       -0.0470
      8  C          6.5180   -0.9830    0.1320 C.2     1  UNL1        0.0040
      9  C          5.8220    1.1840   -0.4350 C.2     1  UNL1        0.0040
     10  C          5.9780   -0.8710    1.3920 C.2     1  UNL1        0.0000
     11  C          5.2700    1.3300    0.8170 C.2     1  UNL1        0.0000
     12  C          5.3420    0.2980    1.7510 C.2     1  UNL1        0.0000
@<TRIPOS>BOND
     1     5     4    1
     2     4     2    1
     3     3     2    2
     4     2     1    1
     5     1     6    1
     6     6     7    1
     7     7     9    2
     8     7     8    1
     9     9    11    1
    10     8    10    2
    11    11    12    2
    12    10    12    1
