@<TRIPOS>MOLECULE
/home/cewinharhar/GITHUB/reincatalyze/data/processed/docking_pred/2023-Apr-25-2140_maxeplen10_maxtrainstep200_exh16_gamma099_lrac3e-4_lrcr1e-3/80c9945afd0f5f9f0270d56cce32b054e5c09707_ligand_2.pdbqt
 12 12 0 0 0
SMALL
GASTEIGER

@<TRIPOS>ATOM
      1  C          8.4080   -0.5610   -2.1670 C.3     1  UNL1        0.1270
      2  C          8.4970   -1.8410   -2.9160 C.2     1  UNL1        0.3030
      3  O          9.5730   -2.4540   -3.1320 O.2     1  UNL1       -0.2520
      4  O          7.3340   -2.4090   -3.4130 O.3     1  UNL1       -0.4810
      5  H          6.4570   -2.0230   -3.0550 H       1  UNL1        0.2960
      6  C          6.9830   -0.0910   -2.1490 C.3     1  UNL1        0.0470
      7  C          6.4180    0.0710   -0.8110 C.2     1  UNL1       -0.0470
      8  C          5.7740    1.2070   -0.3860 C.2     1  UNL1        0.0040
      9  C          6.5300   -0.9630    0.0850 C.2     1  UNL1        0.0040
     10  C          5.2480    1.3430    0.8760 C.2     1  UNL1        0.0000
     11  C          6.0160   -0.8610    1.3570 C.2     1  UNL1        0.0000
     12  C          5.3640    0.3000    1.7700 C.2     1  UNL1        0.0000
@<TRIPOS>BOND
     1     4     5    1
     2     4     2    1
     3     3     2    2
     4     2     1    1
     5     1     6    1
     6     6     7    1
     7     7     8    2
     8     7     9    1
     9     8    10    1
    10     9    11    2
    11    10    12    2
    12    11    12    1
