@<TRIPOS>MOLECULE
/home/cewinharhar/GITHUB/reincatalyze/data/processed/docking_pred/2023-Apr-25-2140_maxeplen10_maxtrainstep200_exh16_gamma099_lrac3e-4_lrcr1e-3/80ffcc0cdcaea1df7ad243f542ab1163fa4dc1ce_ligand_2.pdbqt
 12 12 0 0 0
SMALL
GASTEIGER

@<TRIPOS>ATOM
      1  C          4.9930    1.7960    0.7190 C.3     1  UNL1        0.1270
      2  C          4.4860    1.0920    1.9260 C.2     1  UNL1        0.3030
      3  O          5.1080    0.1700    2.5120 O.2     1  UNL1       -0.2520
      4  O          3.2570    1.4620    2.4520 O.3     1  UNL1       -0.4810
      5  H          2.9500    0.9460    3.2790 H       1  UNL1        0.2960
      6  C          6.4920    1.8340    0.7550 C.3     1  UNL1        0.0470
      7  C          7.1410    1.0880   -0.3200 C.2     1  UNL1       -0.0470
      8  C          8.4660    1.2250   -0.6540 C.2     1  UNL1        0.0040
      9  C          6.3970    0.1940   -1.0490 C.2     1  UNL1        0.0040
     10  C          9.0610    0.5150   -1.6690 C.2     1  UNL1        0.0000
     11  C          6.9590   -0.5330   -2.0720 C.2     1  UNL1        0.0000
     12  C          8.3060   -0.3810   -2.3960 C.2     1  UNL1        0.0000
@<TRIPOS>BOND
     1    12    11    2
     2    12    10    1
     3    11     9    1
     4    10     8    2
     5     9     7    2
     6     8     7    1
     7     7     6    1
     8     1     6    1
     9     1     2    1
    10     2     4    1
    11     2     3    2
    12     4     5    1
