@<TRIPOS>MOLECULE
/home/cewinharhar/GITHUB/reincatalyze/data/processed/docking_pred/2023-Apr-25-2140_maxeplen10_maxtrainstep200_exh16_gamma099_lrac3e-4_lrcr1e-3/80ffcc0cdcaea1df7ad243f542ab1163fa4dc1ce_ligand_2.pdbqt
 12 12 0 0 0
SMALL
GASTEIGER

@<TRIPOS>ATOM
      1  C          8.4610   -0.6730   -2.0340 C.3     1  UNL1        0.1270
      2  C          8.5080   -1.9040   -2.8660 C.2     1  UNL1        0.3030
      3  O          9.5660   -2.5240   -3.1400 O.2     1  UNL1       -0.2520
      4  O          7.3230   -2.4130   -3.3770 O.3     1  UNL1       -0.4810
      5  H          6.7190   -1.7450   -3.8600 H       1  UNL1        0.2960
      6  C          7.0800   -0.0880   -2.0850 C.3     1  UNL1        0.0470
      7  C          6.4700    0.1350   -0.7760 C.2     1  UNL1       -0.0470
      8  C          5.7810    1.2740   -0.4380 C.2     1  UNL1        0.0040
      9  C          6.5830   -0.8410    0.1820 C.2     1  UNL1        0.0040
     10  C          5.2130    1.4670    0.7990 C.2     1  UNL1        0.0000
     11  C          6.0280   -0.6810    1.4310 C.2     1  UNL1        0.0000
     12  C          5.3320    0.4820    1.7560 C.2     1  UNL1        0.0000
@<TRIPOS>BOND
     1     5     4    1
     2     4     2    1
     3     3     2    2
     4     2     1    1
     5     6     1    1
     6     6     7    1
     7     7     8    2
     8     7     9    1
     9     8    10    1
    10     9    11    2
    11    10    12    2
    12    11    12    1
