@<TRIPOS>MOLECULE
/home/cewinharhar/GITHUB/reincatalyze/data/processed/docking_pred/2023-Apr-25-2140_maxeplen10_maxtrainstep200_exh16_gamma099_lrac3e-4_lrcr1e-3/80ffcc0cdcaea1df7ad243f542ab1163fa4dc1ce_ligand_2.pdbqt
 12 12 0 0 0
SMALL
GASTEIGER

@<TRIPOS>ATOM
      1  C          8.4490   -0.5600   -2.2500 C.3     1  UNL1        0.1270
      2  C          8.5080   -1.8880   -2.9140 C.2     1  UNL1        0.3030
      3  O          9.5690   -2.5390   -3.0880 O.2     1  UNL1       -0.2520
      4  O          7.3320   -2.4590   -3.3760 O.3     1  UNL1       -0.4810
      5  H          6.7350   -2.8910   -2.6670 H       1  UNL1        0.2960
      6  C          7.0220   -0.1040   -2.1690 C.3     1  UNL1        0.0470
      7  C          6.5020    0.0140   -0.8090 C.2     1  UNL1       -0.0470
      8  C          6.6070   -0.9750    0.1380 C.2     1  UNL1        0.0040
      9  C          5.8670    1.1740   -0.4420 C.2     1  UNL1        0.0040
     10  C          6.1110   -0.8470    1.4130 C.2     1  UNL1        0.0000
     11  C          5.3580    1.3360    0.8260 C.2     1  UNL1        0.0000
     12  C          5.4750    0.3210    1.7750 C.2     1  UNL1        0.0000
@<TRIPOS>BOND
     1     4     2    1
     2     4     5    1
     3     3     2    2
     4     2     1    1
     5     1     6    1
     6     6     7    1
     7     7     9    2
     8     7     8    1
     9     9    11    1
    10     8    10    2
    11    11    12    2
    12    10    12    1
