@<TRIPOS>MOLECULE
/home/cewinharhar/GITHUB/reincatalyze/data/processed/docking_pred/2023-Apr-25-2140_maxeplen10_maxtrainstep200_exh16_gamma099_lrac3e-4_lrcr1e-3/80ffcc0cdcaea1df7ad243f542ab1163fa4dc1ce_ligand_2.pdbqt
 12 12 0 0 0
SMALL
GASTEIGER

@<TRIPOS>ATOM
      1  C          8.2180   -1.4540    1.0380 C.3     1  UNL1        0.1270
      2  C          8.5000   -2.7220    0.3170 C.2     1  UNL1        0.3030
      3  O          9.1160   -3.6950    0.8220 O.2     1  UNL1       -0.2520
      4  O          8.0660   -2.8600   -0.9930 O.3     1  UNL1       -0.4810
      5  H          7.0530   -2.8510   -1.1330 H       1  UNL1        0.2960
      6  C          6.7400   -1.3260    1.2630 C.3     1  UNL1        0.0470
      7  C          6.1590   -0.0820    0.7640 C.2     1  UNL1       -0.0470
      8  C          5.3710    0.7510    1.5210 C.2     1  UNL1        0.0040
      9  C          6.4050    0.2910   -0.5340 C.2     1  UNL1        0.0040
     10  C          4.8330    1.9190    1.0360 C.2     1  UNL1        0.0000
     11  C          5.8810    1.4520   -1.0520 C.2     1  UNL1        0.0000
     12  C          5.0840    2.2850   -0.2690 C.2     1  UNL1        0.0000
@<TRIPOS>BOND
     1     5     4    1
     2    11     9    1
     3    11    12    2
     4     4     2    1
     5     9     7    2
     6    12    10    1
     7     2     3    2
     8     2     1    1
     9     7     6    1
    10     7     8    1
    11    10     8    2
    12     1     6    1
