MODEL 1
REMARK VINA RESULT:      -6.7      0.000      0.000
REMARK SMILES O=C(O)CCc1ccccc1
REMARK SMILES IDX 4 1 2 2 1 3 3 4 5 6 6 7 7 8 11 9 8 10 10 11 9 12
REMARK H PARENT 3 5
REMARK Flexibility Score: inf
ROOT
ATOM      1  C   UNL     1       5.012   1.835   0.706  1.00  0.00     0.127 C 
ENDROOT
BRANCH   1   2
ATOM      2  C   UNL     1       4.517   1.114   1.907  1.00  0.00     0.303 C 
ATOM      3  O   UNL     1       5.154   0.197   2.486  1.00  0.00    -0.252 OA
BRANCH   2   4
ATOM      4  O   UNL     1       3.283   1.460   2.436  1.00  0.00    -0.481 OA
ATOM      5  H   UNL     1       2.537   0.769   2.323  1.00  0.00     0.296 HD
ENDBRANCH   2   4
ENDBRANCH   1   2
BRANCH   1   6
ATOM      6  C   UNL     1       6.512   1.837   0.706  1.00  0.00     0.047 C 
BRANCH   6   7
ATOM      7  C   UNL     1       7.118   1.038  -0.357  1.00  0.00    -0.047 A 
ATOM      8  C   UNL     1       6.436   0.097  -1.088  1.00  0.00     0.004 A 
ATOM      9  C   UNL     1       8.444   1.228  -0.654  1.00  0.00     0.004 A 
ATOM     10  C   UNL     1       7.021  -0.646  -2.085  1.00  0.00     0.000 A 
ATOM     11  C   UNL     1       9.062   0.501  -1.645  1.00  0.00     0.000 A 
ATOM     12  C   UNL     1       8.354  -0.450  -2.377  1.00  0.00     0.000 A 
ENDBRANCH   6   7
ENDBRANCH   1   6
TORSDOF 4
ENDMDL
MODEL 2
REMARK VINA RESULT:      -6.7      0.132      1.426
REMARK SMILES O=C(O)CCc1ccccc1
REMARK SMILES IDX 4 1 2 2 1 3 3 4 5 6 6 7 7 8 11 9 8 10 10 11 9 12
REMARK H PARENT 3 5
REMARK Flexibility Score: inf
ROOT
ATOM      1  C   UNL     1       5.039   1.782   0.717  1.00  0.00     0.127 C 
ENDROOT
BRANCH   1   2
ATOM      2  C   UNL     1       4.606   1.037   1.928  1.00  0.00     0.303 C 
ATOM      3  O   UNL     1       5.300   0.155   2.494  1.00  0.00    -0.252 OA
BRANCH   2   4
ATOM      4  O   UNL     1       3.366   1.320   2.482  1.00  0.00    -0.481 OA
ATOM      5  H   UNL     1       3.022   0.651   3.174  1.00  0.00     0.296 HD
ENDBRANCH   2   4
ENDBRANCH   1   2
BRANCH   1   6
ATOM      6  C   UNL     1       6.536   1.879   0.699  1.00  0.00     0.047 C 
BRANCH   6   7
ATOM      7  C   UNL     1       7.178   1.110  -0.364  1.00  0.00    -0.047 A 
ATOM      8  C   UNL     1       8.524   1.158  -0.636  1.00  0.00     0.004 A 
ATOM      9  C   UNL     1       6.406   0.288  -1.147  1.00  0.00     0.004 A 
ATOM     10  C   UNL     1       9.112   0.427  -1.641  1.00  0.00     0.000 A 
ATOM     11  C   UNL     1       6.961  -0.457  -2.161  1.00  0.00     0.000 A 
ATOM     12  C   UNL     1       8.329  -0.396  -2.422  1.00  0.00     0.000 A 
ENDBRANCH   6   7
ENDBRANCH   1   6
TORSDOF 4
ENDMDL
MODEL 3
REMARK VINA RESULT:      -6.7      3.265      5.060
REMARK SMILES O=C(O)CCc1ccccc1
REMARK SMILES IDX 4 1 2 2 1 3 3 4 5 6 6 7 7 8 11 9 8 10 10 11 9 12
REMARK H PARENT 3 5
REMARK Flexibility Score: inf
ROOT
ATOM      1  C   UNL     1       8.338  -0.329  -2.191  1.00  0.00     0.127 C 
ENDROOT
BRANCH   1   2
ATOM      2  C   UNL     1       8.379  -1.688  -2.790  1.00  0.00     0.303 C 
ATOM      3  O   UNL     1       7.357  -2.327  -3.148  1.00  0.00    -0.252 OA
BRANCH   2   4
ATOM      4  O   UNL     1       9.608  -2.303  -2.974  1.00  0.00    -0.481 OA
ATOM      5  H   UNL     1      10.370  -1.697  -3.286  1.00  0.00     0.296 HD
ENDBRANCH   2   4
ENDBRANCH   1   2
BRANCH   1   6
ATOM      6  C   UNL     1       6.912   0.123  -2.074  1.00  0.00     0.047 C 
BRANCH   6   7
ATOM      7  C   UNL     1       6.398   0.153  -0.707  1.00  0.00    -0.047 A 
ATOM      8  C   UNL     1       6.553  -0.874   0.191  1.00  0.00     0.004 A 
ATOM      9  C   UNL     1       5.716   1.266  -0.280  1.00  0.00     0.004 A 
ATOM     10  C   UNL     1       6.063  -0.829   1.474  1.00  0.00     0.000 A 
ATOM     11  C   UNL     1       5.211   1.345   0.998  1.00  0.00     0.000 A 
ATOM     12  C   UNL     1       5.380   0.291   1.896  1.00  0.00     0.000 A 
ENDBRANCH   6   7
ENDBRANCH   1   6
TORSDOF 4
ENDMDL
MODEL 4
REMARK VINA RESULT:      -6.7      3.379      5.158
REMARK SMILES O=C(O)CCc1ccccc1
REMARK SMILES IDX 4 1 2 2 1 3 3 4 5 6 6 7 7 8 11 9 8 10 10 11 9 12
REMARK H PARENT 3 5
REMARK Flexibility Score: inf
ROOT
ATOM      1  C   UNL     1       8.409  -0.526  -2.179  1.00  0.00     0.127 C 
ENDROOT
BRANCH   1   2
ATOM      2  C   UNL     1       8.463  -1.825  -2.900  1.00  0.00     0.303 C 
ATOM      3  O   UNL     1       7.458  -2.392  -3.398  1.00  0.00    -0.252 OA
BRANCH   2   4
ATOM      4  O   UNL     1       9.686  -2.463  -3.042  1.00  0.00    -0.481 OA
ATOM      5  H   UNL     1      10.385  -1.973  -3.605  1.00  0.00     0.296 HD
ENDBRANCH   2   4
ENDBRANCH   1   2
BRANCH   1   6
ATOM      6  C   UNL     1       6.989  -0.045  -2.121  1.00  0.00     0.047 C 
BRANCH   6   7
ATOM      7  C   UNL     1       6.457   0.103  -0.768  1.00  0.00    -0.047 A 
ATOM      8  C   UNL     1       5.822   1.234  -0.317  1.00  0.00     0.004 A 
ATOM      9  C   UNL     1       6.592  -0.939   0.115  1.00  0.00     0.004 A 
ATOM     10  C   UNL     1       5.327   1.356   0.960  1.00  0.00     0.000 A 
ATOM     11  C   UNL     1       6.109  -0.851   1.400  1.00  0.00     0.000 A 
ATOM     12  C   UNL     1       5.467   0.305   1.840  1.00  0.00     0.000 A 
ENDBRANCH   6   7
ENDBRANCH   1   6
TORSDOF 4
ENDMDL
MODEL 5
REMARK VINA RESULT:      -6.6      2.639      3.349
REMARK SMILES O=C(O)CCc1ccccc1
REMARK SMILES IDX 4 1 2 2 1 3 3 4 5 6 6 7 7 8 11 9 8 10 10 11 9 12
REMARK H PARENT 3 5
REMARK Flexibility Score: inf
ROOT
ATOM      1  C   UNL     1       5.443   2.883  -0.002  1.00  0.00     0.127 C 
ENDROOT
BRANCH   1   2
ATOM      2  C   UNL     1       6.260   3.850   0.776  1.00  0.00     0.303 C 
ATOM      3  O   UNL     1       6.935   4.775   0.257  1.00  0.00    -0.252 OA
BRANCH   2   4
ATOM      4  O   UNL     1       6.291   3.742   2.158  1.00  0.00    -0.481 OA
ATOM      5  H   UNL     1       6.538   4.592   2.669  1.00  0.00     0.296 HD
ENDBRANCH   2   4
ENDBRANCH   1   2
BRANCH   1   6
ATOM      6  C   UNL     1       4.935   1.808   0.913  1.00  0.00     0.047 C 
BRANCH   6   7
ATOM      7  C   UNL     1       5.743   0.590   0.920  1.00  0.00    -0.047 A 
ATOM      8  C   UNL     1       6.513   0.178  -0.139  1.00  0.00     0.004 A 
ATOM      9  C   UNL     1       5.741  -0.199   2.043  1.00  0.00     0.004 A 
ATOM     10  C   UNL     1       7.267  -0.971  -0.115  1.00  0.00     0.000 A 
ATOM     11  C   UNL     1       6.483  -1.356   2.101  1.00  0.00     0.000 A 
ATOM     12  C   UNL     1       7.260  -1.758   1.016  1.00  0.00     0.000 A 
ENDBRANCH   6   7
ENDBRANCH   1   6
TORSDOF 4
ENDMDL
