@<TRIPOS>MOLECULE
/home/cewinharhar/GITHUB/reincatalyze/data/processed/docking_pred/2023-Apr-25-2140_maxeplen10_maxtrainstep200_exh16_gamma099_lrac3e-4_lrcr1e-3/81487a167534eaf1a49a57d95a0bec7d9495d7bd_ligand_2.pdbqt
 12 12 0 0 0
SMALL
GASTEIGER

@<TRIPOS>ATOM
      1  C          8.3380   -0.3290   -2.1910 C.3     1  UNL1        0.1270
      2  C          8.3790   -1.6880   -2.7900 C.2     1  UNL1        0.3030
      3  O          7.3570   -2.3270   -3.1480 O.2     1  UNL1       -0.2520
      4  O          9.6080   -2.3030   -2.9740 O.3     1  UNL1       -0.4810
      5  H         10.3700   -1.6970   -3.2860 H       1  UNL1        0.2960
      6  C          6.9120    0.1230   -2.0740 C.3     1  UNL1        0.0470
      7  C          6.3980    0.1530   -0.7070 C.2     1  UNL1       -0.0470
      8  C          6.5530   -0.8740    0.1910 C.2     1  UNL1        0.0040
      9  C          5.7160    1.2660   -0.2800 C.2     1  UNL1        0.0040
     10  C          6.0630   -0.8290    1.4740 C.2     1  UNL1        0.0000
     11  C          5.2110    1.3450    0.9980 C.2     1  UNL1        0.0000
     12  C          5.3800    0.2910    1.8960 C.2     1  UNL1        0.0000
@<TRIPOS>BOND
     1     5     4    1
     2     3     2    2
     3     4     2    1
     4     2     1    1
     5     1     6    1
     6     6     7    1
     7     7     9    2
     8     7     8    1
     9     9    11    1
    10     8    10    2
    11    11    12    2
    12    10    12    1
