@<TRIPOS>MOLECULE
/home/cewinharhar/GITHUB/reincatalyze/data/processed/docking_pred/2023-Apr-25-2140_maxeplen10_maxtrainstep200_exh16_gamma099_lrac3e-4_lrcr1e-3/81487a167534eaf1a49a57d95a0bec7d9495d7bd_ligand_2.pdbqt
 12 12 0 0 0
SMALL
GASTEIGER

@<TRIPOS>ATOM
      1  C          5.4430    2.8830   -0.0020 C.3     1  UNL1        0.1270
      2  C          6.2600    3.8500    0.7760 C.2     1  UNL1        0.3030
      3  O          6.9350    4.7750    0.2570 O.2     1  UNL1       -0.2520
      4  O          6.2910    3.7420    2.1580 O.3     1  UNL1       -0.4810
      5  H          6.5380    4.5920    2.6690 H       1  UNL1        0.2960
      6  C          4.9350    1.8080    0.9130 C.3     1  UNL1        0.0470
      7  C          5.7430    0.5900    0.9200 C.2     1  UNL1       -0.0470
      8  C          6.5130    0.1780   -0.1390 C.2     1  UNL1        0.0040
      9  C          5.7410   -0.1990    2.0430 C.2     1  UNL1        0.0040
     10  C          7.2670   -0.9710   -0.1150 C.2     1  UNL1        0.0000
     11  C          6.4830   -1.3560    2.1010 C.2     1  UNL1        0.0000
     12  C          7.2600   -1.7580    1.0160 C.2     1  UNL1        0.0000
@<TRIPOS>BOND
     1     8    10    1
     2     8     7    2
     3    10    12    2
     4     1     2    1
     5     1     6    1
     6     3     2    2
     7     2     4    1
     8     6     7    1
     9     7     9    1
    10    12    11    1
    11     9    11    2
    12     4     5    1
