@<TRIPOS>MOLECULE
/home/cewinharhar/GITHUB/reincatalyze/data/processed/docking_pred/2023-Apr-25-2140_maxeplen10_maxtrainstep200_exh16_gamma099_lrac3e-4_lrcr1e-3/81487a167534eaf1a49a57d95a0bec7d9495d7bd_ligand_2.pdbqt
 12 12 0 0 0
SMALL
GASTEIGER

@<TRIPOS>ATOM
      1  C          5.0120    1.8350    0.7060 C.3     1  UNL1        0.1270
      2  C          4.5170    1.1140    1.9070 C.2     1  UNL1        0.3030
      3  O          5.1540    0.1970    2.4860 O.2     1  UNL1       -0.2520
      4  O          3.2830    1.4600    2.4360 O.3     1  UNL1       -0.4810
      5  H          2.5370    0.7690    2.3230 H       1  UNL1        0.2960
      6  C          6.5120    1.8370    0.7060 C.3     1  UNL1        0.0470
      7  C          7.1180    1.0380   -0.3570 C.2     1  UNL1       -0.0470
      8  C          6.4360    0.0970   -1.0880 C.2     1  UNL1        0.0040
      9  C          8.4440    1.2280   -0.6540 C.2     1  UNL1        0.0040
     10  C          7.0210   -0.6460   -2.0850 C.2     1  UNL1        0.0000
     11  C          9.0620    0.5010   -1.6450 C.2     1  UNL1        0.0000
     12  C          8.3540   -0.4500   -2.3770 C.2     1  UNL1        0.0000
@<TRIPOS>BOND
     1    12    10    2
     2    12    11    1
     3    10     8    1
     4    11     9    2
     5     8     7    2
     6     9     7    1
     7     7     6    1
     8     1     6    1
     9     1     2    1
    10     2     4    1
    11     2     3    2
    12     5     4    1
