@<TRIPOS>MOLECULE
/home/cewinharhar/GITHUB/reincatalyze/data/processed/docking_pred/2023-Apr-25-2140_maxeplen10_maxtrainstep200_exh16_gamma099_lrac3e-4_lrcr1e-3/81487a167534eaf1a49a57d95a0bec7d9495d7bd_ligand_2.pdbqt
 12 12 0 0 0
SMALL
GASTEIGER

@<TRIPOS>ATOM
      1  C          8.4090   -0.5260   -2.1790 C.3     1  UNL1        0.1270
      2  C          8.4630   -1.8250   -2.9000 C.2     1  UNL1        0.3030
      3  O          7.4580   -2.3920   -3.3980 O.2     1  UNL1       -0.2520
      4  O          9.6860   -2.4630   -3.0420 O.3     1  UNL1       -0.4810
      5  H         10.3850   -1.9730   -3.6050 H       1  UNL1        0.2960
      6  C          6.9890   -0.0450   -2.1210 C.3     1  UNL1        0.0470
      7  C          6.4570    0.1030   -0.7680 C.2     1  UNL1       -0.0470
      8  C          5.8220    1.2340   -0.3170 C.2     1  UNL1        0.0040
      9  C          6.5920   -0.9390    0.1150 C.2     1  UNL1        0.0040
     10  C          5.3270    1.3560    0.9600 C.2     1  UNL1        0.0000
     11  C          6.1090   -0.8510    1.4000 C.2     1  UNL1        0.0000
     12  C          5.4670    0.3050    1.8400 C.2     1  UNL1        0.0000
@<TRIPOS>BOND
     1     5     4    1
     2     3     2    2
     3     4     2    1
     4     2     1    1
     5     1     6    1
     6     6     7    1
     7     7     8    2
     8     7     9    1
     9     8    10    1
    10     9    11    2
    11    10    12    2
    12    11    12    1
