@<TRIPOS>MOLECULE
/home/cewinharhar/GITHUB/reincatalyze/data/processed/docking_pred/2023-Apr-25-2140_maxeplen10_maxtrainstep200_exh16_gamma099_lrac3e-4_lrcr1e-3/81487a167534eaf1a49a57d95a0bec7d9495d7bd_ligand_2.pdbqt
 12 12 0 0 0
SMALL
GASTEIGER

@<TRIPOS>ATOM
      1  C          5.0390    1.7820    0.7170 C.3     1  UNL1        0.1270
      2  C          4.6060    1.0370    1.9280 C.2     1  UNL1        0.3030
      3  O          5.3000    0.1550    2.4940 O.2     1  UNL1       -0.2520
      4  O          3.3660    1.3200    2.4820 O.3     1  UNL1       -0.4810
      5  H          3.0220    0.6510    3.1740 H       1  UNL1        0.2960
      6  C          6.5360    1.8790    0.6990 C.3     1  UNL1        0.0470
      7  C          7.1780    1.1100   -0.3640 C.2     1  UNL1       -0.0470
      8  C          8.5240    1.1580   -0.6360 C.2     1  UNL1        0.0040
      9  C          6.4060    0.2880   -1.1470 C.2     1  UNL1        0.0040
     10  C          9.1120    0.4270   -1.6410 C.2     1  UNL1        0.0000
     11  C          6.9610   -0.4570   -2.1610 C.2     1  UNL1        0.0000
     12  C          8.3290   -0.3960   -2.4220 C.2     1  UNL1        0.0000
@<TRIPOS>BOND
     1    12    11    2
     2    12    10    1
     3    11     9    1
     4    10     8    2
     5     9     7    2
     6     8     7    1
     7     7     6    1
     8     6     1    1
     9     1     2    1
    10     2     4    1
    11     2     3    2
    12     4     5    1
