@<TRIPOS>MOLECULE
/home/cewinharhar/GITHUB/reincatalyze/data/processed/docking_pred/2023-Apr-25-2140_maxeplen10_maxtrainstep200_exh16_gamma099_lrac3e-4_lrcr1e-3/82066193004a6cdbe54a2a950d109d8cafa96b54_ligand_2.pdbqt
 12 12 0 0 0
SMALL
GASTEIGER

@<TRIPOS>ATOM
      1  C          8.4270   -0.5670   -2.1930 C.3     1  UNL1        0.1270
      2  C          8.5070   -1.8660   -2.9120 C.2     1  UNL1        0.3030
      3  O          9.5780   -2.4930   -3.1110 O.2     1  UNL1       -0.2520
      4  O          7.3400   -2.4350   -3.3990 O.3     1  UNL1       -0.4810
      5  H          7.3340   -3.4550   -3.4690 H       1  UNL1        0.2960
      6  C          6.9980   -0.1130   -2.1380 C.3     1  UNL1        0.0470
      7  C          6.4700    0.0570   -0.7870 C.2     1  UNL1       -0.0470
      8  C          5.8460    1.1990   -0.3480 C.2     1  UNL1        0.0040
      9  C          6.5970   -0.9750    0.1090 C.2     1  UNL1        0.0040
     10  C          5.3550    1.3430    0.9270 C.2     1  UNL1        0.0000
     11  C          6.1180   -0.8660    1.3940 C.2     1  UNL1        0.0000
     12  C          5.4870    0.3020    1.8210 C.2     1  UNL1        0.0000
@<TRIPOS>BOND
     1     5     4    1
     2     4     2    1
     3     3     2    2
     4     2     1    1
     5     1     6    1
     6     6     7    1
     7     7     8    2
     8     7     9    1
     9     8    10    1
    10     9    11    2
    11    10    12    2
    12    11    12    1
