@<TRIPOS>MOLECULE
/home/cewinharhar/GITHUB/reincatalyze/data/processed/docking_pred/2023-Apr-25-2140_maxeplen10_maxtrainstep200_exh16_gamma099_lrac3e-4_lrcr1e-3/82066193004a6cdbe54a2a950d109d8cafa96b54_ligand_2.pdbqt
 12 12 0 0 0
SMALL
GASTEIGER

@<TRIPOS>ATOM
      1  C          5.4070    2.8660    0.0080 C.3     1  UNL1        0.1270
      2  C          6.2160    3.8460    0.7800 C.2     1  UNL1        0.3030
      3  O          6.8840    4.7720    0.2540 O.2     1  UNL1       -0.2520
      4  O          6.2460    3.7490    2.1630 O.3     1  UNL1       -0.4810
      5  H          6.8120    2.9890    2.5470 H       1  UNL1        0.2960
      6  C          4.9280    1.7800    0.9270 C.3     1  UNL1        0.0470
      7  C          5.7690    0.5860    0.9390 C.2     1  UNL1       -0.0470
      8  C          6.6060    0.2300   -0.0900 C.2     1  UNL1        0.0040
      9  C          5.7310   -0.2400    2.0350 C.2     1  UNL1        0.0040
     10  C          7.3910   -0.8990   -0.0620 C.2     1  UNL1        0.0000
     11  C          6.5030   -1.3780    2.0960 C.2     1  UNL1        0.0000
     12  C          7.3470   -1.7220    1.0420 C.2     1  UNL1        0.0000
@<TRIPOS>BOND
     1     8    10    1
     2     8     7    2
     3    10    12    2
     4     1     2    1
     5     1     6    1
     6     3     2    2
     7     2     4    1
     8     6     7    1
     9     7     9    1
    10    12    11    1
    11     9    11    2
    12     4     5    1
