@<TRIPOS>MOLECULE
/home/cewinharhar/GITHUB/reincatalyze/data/processed/docking_pred/2023-Apr-25-2140_maxeplen10_maxtrainstep200_exh16_gamma099_lrac3e-4_lrcr1e-3/82066193004a6cdbe54a2a950d109d8cafa96b54_ligand_2.pdbqt
 12 12 0 0 0
SMALL
GASTEIGER

@<TRIPOS>ATOM
      1  C          8.4080   -0.6950   -2.0030 C.3     1  UNL1        0.1270
      2  C          8.3330   -1.8890   -2.8850 C.2     1  UNL1        0.3030
      3  O          7.2550   -2.3940   -3.2910 O.2     1  UNL1       -0.2520
      4  O          9.5110   -2.4940   -3.2970 O.3     1  UNL1       -0.4810
      5  H          9.9900   -3.0640   -2.5960 H       1  UNL1        0.2960
      6  C          7.9300   -1.0590   -0.6280 C.3     1  UNL1        0.0470
      7  C          6.9160   -0.1590   -0.0840 C.2     1  UNL1       -0.0470
      8  C          6.4140   -0.2540    1.1900 C.2     1  UNL1        0.0040
      9  C          6.4250    0.8460   -0.8810 C.2     1  UNL1        0.0040
     10  C          5.4590    0.6010    1.6860 C.2     1  UNL1        0.0000
     11  C          5.4690    1.7200   -0.4180 C.2     1  UNL1        0.0000
     12  C          4.9720    1.6070    0.8800 C.2     1  UNL1        0.0000
@<TRIPOS>BOND
     1     4     2    1
     2     4     5    1
     3     3     2    2
     4     2     1    1
     5     1     6    1
     6     9    11    1
     7     9     7    2
     8     6     7    1
     9    11    12    2
    10     7     8    1
    11    12    10    1
    12     8    10    2
