@<TRIPOS>MOLECULE
/home/cewinharhar/GITHUB/reincatalyze/data/processed/docking_pred/2023-Apr-25-2140_maxeplen10_maxtrainstep200_exh16_gamma099_lrac3e-4_lrcr1e-3/82066193004a6cdbe54a2a950d109d8cafa96b54_ligand_2.pdbqt
 12 12 0 0 0
SMALL
GASTEIGER

@<TRIPOS>ATOM
      1  C          8.4320   -0.5530   -2.2370 C.3     1  UNL1        0.1270
      2  C          8.5010   -1.8690   -2.9220 C.2     1  UNL1        0.3030
      3  O          9.5670   -2.5130   -3.0990 O.2     1  UNL1       -0.2520
      4  O          7.3310   -2.4380   -3.4010 O.3     1  UNL1       -0.4810
      5  H          7.4440   -3.2470   -4.0160 H       1  UNL1        0.2960
      6  C          7.0020   -0.1060   -2.1550 C.3     1  UNL1        0.0470
      7  C          6.4850    0.0180   -0.7940 C.2     1  UNL1       -0.0470
      8  C          6.5890   -0.9680    0.1560 C.2     1  UNL1        0.0040
      9  C          5.8550    1.1820   -0.4290 C.2     1  UNL1        0.0040
     10  C          6.0970   -0.8350    1.4320 C.2     1  UNL1        0.0000
     11  C          5.3500    1.3490    0.8400 C.2     1  UNL1        0.0000
     12  C          5.4660    0.3370    1.7910 C.2     1  UNL1        0.0000
@<TRIPOS>BOND
     1     5     4    1
     2     4     2    1
     3     3     2    2
     4     2     1    1
     5     1     6    1
     6     6     7    1
     7     7     9    2
     8     7     8    1
     9     9    11    1
    10     8    10    2
    11    11    12    2
    12    10    12    1
