@<TRIPOS>MOLECULE
/home/cewinharhar/GITHUB/reincatalyze/data/processed/docking_pred/2023-Apr-25-2140_maxeplen10_maxtrainstep200_exh16_gamma099_lrac3e-4_lrcr1e-3/82066193004a6cdbe54a2a950d109d8cafa96b54_ligand_2.pdbqt
 12 12 0 0 0
SMALL
GASTEIGER

@<TRIPOS>ATOM
      1  C          5.0310    1.7630    0.7110 C.3     1  UNL1        0.1270
      2  C          4.5930    1.0310    1.9270 C.2     1  UNL1        0.3030
      3  O          5.2790    0.1440    2.4970 O.2     1  UNL1       -0.2520
      4  O          3.3570    1.3300    2.4810 O.3     1  UNL1       -0.4810
      5  H          3.2720    2.2510    2.9170 H       1  UNL1        0.2960
      6  C          6.5290    1.8600    0.6980 C.3     1  UNL1        0.0470
      7  C          7.1750    1.0840   -0.3570 C.2     1  UNL1       -0.0470
      8  C          8.5090    1.1800   -0.6690 C.2     1  UNL1        0.0040
      9  C          6.4180    0.2030   -1.0900 C.2     1  UNL1        0.0040
     10  C          9.1010    0.4410   -1.6650 C.2     1  UNL1        0.0000
     11  C          6.9780   -0.5510   -2.0950 C.2     1  UNL1        0.0000
     12  C          8.3350   -0.4410   -2.3960 C.2     1  UNL1        0.0000
@<TRIPOS>BOND
     1    12    11    2
     2    12    10    1
     3    11     9    1
     4    10     8    2
     5     9     7    2
     6     8     7    1
     7     7     6    1
     8     6     1    1
     9     1     2    1
    10     2     4    1
    11     2     3    2
    12     4     5    1
