MODEL 1
REMARK VINA RESULT:      -7.4      0.000      0.000
REMARK SMILES O=C(O)CCc1ccccc1
REMARK SMILES IDX 4 1 2 2 1 3 3 4 5 6 6 7 7 8 11 9 8 10 10 11 9 12
REMARK H PARENT 3 5
REMARK Flexibility Score: inf
ROOT
ATOM      1  C   UNL     1       8.432  -0.553  -2.237  1.00  0.00     0.127 C 
ENDROOT
BRANCH   1   2
ATOM      2  C   UNL     1       8.501  -1.869  -2.922  1.00  0.00     0.303 C 
ATOM      3  O   UNL     1       9.567  -2.513  -3.099  1.00  0.00    -0.252 OA
BRANCH   2   4
ATOM      4  O   UNL     1       7.331  -2.438  -3.401  1.00  0.00    -0.481 OA
ATOM      5  H   UNL     1       7.444  -3.247  -4.016  1.00  0.00     0.296 HD
ENDBRANCH   2   4
ENDBRANCH   1   2
BRANCH   1   6
ATOM      6  C   UNL     1       7.002  -0.106  -2.155  1.00  0.00     0.047 C 
BRANCH   6   7
ATOM      7  C   UNL     1       6.485   0.018  -0.794  1.00  0.00    -0.047 A 
ATOM      8  C   UNL     1       6.589  -0.968   0.156  1.00  0.00     0.004 A 
ATOM      9  C   UNL     1       5.855   1.182  -0.429  1.00  0.00     0.004 A 
ATOM     10  C   UNL     1       6.097  -0.835   1.432  1.00  0.00     0.000 A 
ATOM     11  C   UNL     1       5.350   1.349   0.840  1.00  0.00     0.000 A 
ATOM     12  C   UNL     1       5.466   0.337   1.791  1.00  0.00     0.000 A 
ENDBRANCH   6   7
ENDBRANCH   1   6
TORSDOF 4
ENDMDL
MODEL 2
REMARK VINA RESULT:      -7.3      0.050      1.425
REMARK SMILES O=C(O)CCc1ccccc1
REMARK SMILES IDX 4 1 2 2 1 3 3 4 5 6 6 7 7 8 11 9 8 10 10 11 9 12
REMARK H PARENT 3 5
REMARK Flexibility Score: inf
ROOT
ATOM      1  C   UNL     1       8.427  -0.567  -2.193  1.00  0.00     0.127 C 
ENDROOT
BRANCH   1   2
ATOM      2  C   UNL     1       8.507  -1.866  -2.912  1.00  0.00     0.303 C 
ATOM      3  O   UNL     1       9.578  -2.493  -3.111  1.00  0.00    -0.252 OA
BRANCH   2   4
ATOM      4  O   UNL     1       7.340  -2.435  -3.399  1.00  0.00    -0.481 OA
ATOM      5  H   UNL     1       7.334  -3.455  -3.469  1.00  0.00     0.296 HD
ENDBRANCH   2   4
ENDBRANCH   1   2
BRANCH   1   6
ATOM      6  C   UNL     1       6.998  -0.113  -2.138  1.00  0.00     0.047 C 
BRANCH   6   7
ATOM      7  C   UNL     1       6.470   0.057  -0.787  1.00  0.00    -0.047 A 
ATOM      8  C   UNL     1       5.846   1.199  -0.348  1.00  0.00     0.004 A 
ATOM      9  C   UNL     1       6.597  -0.975   0.109  1.00  0.00     0.004 A 
ATOM     10  C   UNL     1       5.355   1.343   0.927  1.00  0.00     0.000 A 
ATOM     11  C   UNL     1       6.118  -0.866   1.394  1.00  0.00     0.000 A 
ATOM     12  C   UNL     1       5.487   0.302   1.821  1.00  0.00     0.000 A 
ENDBRANCH   6   7
ENDBRANCH   1   6
TORSDOF 4
ENDMDL
MODEL 3
REMARK VINA RESULT:      -6.9      0.691      1.486
REMARK SMILES O=C(O)CCc1ccccc1
REMARK SMILES IDX 4 1 2 2 1 3 3 4 5 6 6 7 7 8 11 9 8 10 10 11 9 12
REMARK H PARENT 3 5
REMARK Flexibility Score: inf
ROOT
ATOM      1  C   UNL     1       8.408  -0.695  -2.003  1.00  0.00     0.127 C 
ENDROOT
BRANCH   1   2
ATOM      2  C   UNL     1       8.333  -1.889  -2.885  1.00  0.00     0.303 C 
ATOM      3  O   UNL     1       7.255  -2.394  -3.291  1.00  0.00    -0.252 OA
BRANCH   2   4
ATOM      4  O   UNL     1       9.511  -2.494  -3.297  1.00  0.00    -0.481 OA
ATOM      5  H   UNL     1       9.990  -3.064  -2.596  1.00  0.00     0.296 HD
ENDBRANCH   2   4
ENDBRANCH   1   2
BRANCH   1   6
ATOM      6  C   UNL     1       7.930  -1.059  -0.628  1.00  0.00     0.047 C 
BRANCH   6   7
ATOM      7  C   UNL     1       6.916  -0.159  -0.084  1.00  0.00    -0.047 A 
ATOM      8  C   UNL     1       6.414  -0.254   1.190  1.00  0.00     0.004 A 
ATOM      9  C   UNL     1       6.425   0.846  -0.881  1.00  0.00     0.004 A 
ATOM     10  C   UNL     1       5.459   0.601   1.686  1.00  0.00     0.000 A 
ATOM     11  C   UNL     1       5.469   1.720  -0.418  1.00  0.00     0.000 A 
ATOM     12  C   UNL     1       4.972   1.607   0.880  1.00  0.00     0.000 A 
ENDBRANCH   6   7
ENDBRANCH   1   6
TORSDOF 4
ENDMDL
MODEL 4
REMARK VINA RESULT:      -6.8      3.342      5.049
REMARK SMILES O=C(O)CCc1ccccc1
REMARK SMILES IDX 4 1 2 2 1 3 3 4 5 6 6 7 7 8 11 9 8 10 10 11 9 12
REMARK H PARENT 3 5
REMARK Flexibility Score: inf
ROOT
ATOM      1  C   UNL     1       5.031   1.763   0.711  1.00  0.00     0.127 C 
ENDROOT
BRANCH   1   2
ATOM      2  C   UNL     1       4.593   1.031   1.927  1.00  0.00     0.303 C 
ATOM      3  O   UNL     1       5.279   0.144   2.497  1.00  0.00    -0.252 OA
BRANCH   2   4
ATOM      4  O   UNL     1       3.357   1.330   2.481  1.00  0.00    -0.481 OA
ATOM      5  H   UNL     1       3.272   2.251   2.917  1.00  0.00     0.296 HD
ENDBRANCH   2   4
ENDBRANCH   1   2
BRANCH   1   6
ATOM      6  C   UNL     1       6.529   1.860   0.698  1.00  0.00     0.047 C 
BRANCH   6   7
ATOM      7  C   UNL     1       7.175   1.084  -0.357  1.00  0.00    -0.047 A 
ATOM      8  C   UNL     1       8.509   1.180  -0.669  1.00  0.00     0.004 A 
ATOM      9  C   UNL     1       6.418   0.203  -1.090  1.00  0.00     0.004 A 
ATOM     10  C   UNL     1       9.101   0.441  -1.665  1.00  0.00     0.000 A 
ATOM     11  C   UNL     1       6.978  -0.551  -2.095  1.00  0.00     0.000 A 
ATOM     12  C   UNL     1       8.335  -0.441  -2.396  1.00  0.00     0.000 A 
ENDBRANCH   6   7
ENDBRANCH   1   6
TORSDOF 4
ENDMDL
MODEL 5
REMARK VINA RESULT:      -6.7      3.842      4.980
REMARK SMILES O=C(O)CCc1ccccc1
REMARK SMILES IDX 4 1 2 2 1 3 3 4 5 6 6 7 7 8 11 9 8 10 10 11 9 12
REMARK H PARENT 3 5
REMARK Flexibility Score: inf
ROOT
ATOM      1  C   UNL     1       5.407   2.866   0.008  1.00  0.00     0.127 C 
ENDROOT
BRANCH   1   2
ATOM      2  C   UNL     1       6.216   3.846   0.780  1.00  0.00     0.303 C 
ATOM      3  O   UNL     1       6.884   4.772   0.254  1.00  0.00    -0.252 OA
BRANCH   2   4
ATOM      4  O   UNL     1       6.246   3.749   2.163  1.00  0.00    -0.481 OA
ATOM      5  H   UNL     1       6.812   2.989   2.547  1.00  0.00     0.296 HD
ENDBRANCH   2   4
ENDBRANCH   1   2
BRANCH   1   6
ATOM      6  C   UNL     1       4.928   1.780   0.927  1.00  0.00     0.047 C 
BRANCH   6   7
ATOM      7  C   UNL     1       5.769   0.586   0.939  1.00  0.00    -0.047 A 
ATOM      8  C   UNL     1       6.606   0.230  -0.090  1.00  0.00     0.004 A 
ATOM      9  C   UNL     1       5.731  -0.240   2.035  1.00  0.00     0.004 A 
ATOM     10  C   UNL     1       7.391  -0.899  -0.062  1.00  0.00     0.000 A 
ATOM     11  C   UNL     1       6.503  -1.378   2.096  1.00  0.00     0.000 A 
ATOM     12  C   UNL     1       7.347  -1.722   1.042  1.00  0.00     0.000 A 
ENDBRANCH   6   7
ENDBRANCH   1   6
TORSDOF 4
ENDMDL
