MODEL 1
REMARK VINA RESULT:      -7.4      0.000      0.000
REMARK SMILES O=C(O)CCc1ccccc1
REMARK SMILES IDX 4 1 2 2 1 3 3 4 5 6 6 7 7 8 11 9 8 10 10 11 9 12
REMARK H PARENT 3 5
REMARK Flexibility Score: inf
ROOT
ATOM      1  C   UNL     1       8.444  -0.608  -2.140  1.00  0.00     0.127 C 
ENDROOT
BRANCH   1   2
ATOM      2  C   UNL     1       8.507  -1.891  -2.887  1.00  0.00     0.303 C 
ATOM      3  O   UNL     1       9.569  -2.531  -3.093  1.00  0.00    -0.252 OA
BRANCH   2   4
ATOM      4  O   UNL     1       7.333  -2.430  -3.392  1.00  0.00    -0.481 OA
ATOM      5  H   UNL     1       6.730  -2.905  -2.717  1.00  0.00     0.296 HD
ENDBRANCH   2   4
ENDBRANCH   1   2
BRANCH   1   6
ATOM      6  C   UNL     1       7.022  -0.134  -2.079  1.00  0.00     0.047 C 
BRANCH   6   7
ATOM      7  C   UNL     1       6.483  -0.013  -0.726  1.00  0.00    -0.047 A 
ATOM      8  C   UNL     1       6.560  -1.007   0.218  1.00  0.00     0.004 A 
ATOM      9  C   UNL     1       5.860   1.155  -0.363  1.00  0.00     0.004 A 
ATOM     10  C   UNL     1       6.048  -0.877   1.487  1.00  0.00     0.000 A 
ATOM     11  C   UNL     1       5.335   1.319   0.898  1.00  0.00     0.000 A 
ATOM     12  C   UNL     1       5.423   0.299   1.844  1.00  0.00     0.000 A 
ENDBRANCH   6   7
ENDBRANCH   1   6
TORSDOF 4
ENDMDL
MODEL 2
REMARK VINA RESULT:      -7.3      0.151      1.724
REMARK SMILES O=C(O)CCc1ccccc1
REMARK SMILES IDX 4 1 2 2 1 3 3 4 5 6 6 7 7 8 11 9 8 10 10 11 9 12
REMARK H PARENT 3 5
REMARK Flexibility Score: inf
ROOT
ATOM      1  C   UNL     1       8.422  -0.605  -2.156  1.00  0.00     0.127 C 
ENDROOT
BRANCH   1   2
ATOM      2  C   UNL     1       8.373  -1.886  -2.908  1.00  0.00     0.303 C 
ATOM      3  O   UNL     1       7.308  -2.445  -3.274  1.00  0.00    -0.252 OA
BRANCH   2   4
ATOM      4  O   UNL     1       9.565  -2.516  -3.236  1.00  0.00    -0.481 OA
ATOM      5  H   UNL     1      10.036  -3.008  -2.474  1.00  0.00     0.296 HD
ENDBRANCH   2   4
ENDBRANCH   1   2
BRANCH   1   6
ATOM      6  C   UNL     1       7.055   0.015  -2.138  1.00  0.00     0.047 C 
BRANCH   6   7
ATOM      7  C   UNL     1       6.482   0.174  -0.803  1.00  0.00    -0.047 A 
ATOM      8  C   UNL     1       5.808   1.296  -0.390  1.00  0.00     0.004 A 
ATOM      9  C   UNL     1       6.619  -0.848   0.103  1.00  0.00     0.004 A 
ATOM     10  C   UNL     1       5.275   1.430   0.870  1.00  0.00     0.000 A 
ATOM     11  C   UNL     1       6.099  -0.748   1.373  1.00  0.00     0.000 A 
ATOM     12  C   UNL     1       5.417   0.399   1.774  1.00  0.00     0.000 A 
ENDBRANCH   6   7
ENDBRANCH   1   6
TORSDOF 4
ENDMDL
MODEL 3
REMARK VINA RESULT:      -6.7      3.338      5.037
REMARK SMILES O=C(O)CCc1ccccc1
REMARK SMILES IDX 4 1 2 2 1 3 3 4 5 6 6 7 7 8 11 9 8 10 10 11 9 12
REMARK H PARENT 3 5
REMARK Flexibility Score: inf
ROOT
ATOM      1  C   UNL     1       5.036   1.832   0.695  1.00  0.00     0.127 C 
ENDROOT
BRANCH   1   2
ATOM      2  C   UNL     1       4.609   1.083   1.905  1.00  0.00     0.303 C 
ATOM      3  O   UNL     1       5.312   0.210   2.474  1.00  0.00    -0.252 OA
BRANCH   2   4
ATOM      4  O   UNL     1       3.364   1.350   2.454  1.00  0.00    -0.481 OA
ATOM      5  H   UNL     1       2.718   0.559   2.507  1.00  0.00     0.296 HD
ENDBRANCH   2   4
ENDBRANCH   1   2
BRANCH   1   6
ATOM      6  C   UNL     1       6.535   1.886   0.643  1.00  0.00     0.047 C 
BRANCH   6   7
ATOM      7  C   UNL     1       7.133   1.055  -0.399  1.00  0.00    -0.047 A 
ATOM      8  C   UNL     1       6.437   0.122  -1.127  1.00  0.00     0.004 A 
ATOM      9  C   UNL     1       8.469   1.203  -0.678  1.00  0.00     0.004 A 
ATOM     10  C   UNL     1       7.016  -0.651  -2.104  1.00  0.00     0.000 A 
ATOM     11  C   UNL     1       9.082   0.445  -1.649  1.00  0.00     0.000 A 
ATOM     12  C   UNL     1       8.358  -0.497  -2.378  1.00  0.00     0.000 A 
ENDBRANCH   6   7
ENDBRANCH   1   6
TORSDOF 4
ENDMDL
MODEL 4
REMARK VINA RESULT:      -6.6      2.006      2.669
REMARK SMILES O=C(O)CCc1ccccc1
REMARK SMILES IDX 4 1 2 2 1 3 3 4 5 6 6 7 7 8 11 9 8 10 10 11 9 12
REMARK H PARENT 3 5
REMARK Flexibility Score: inf
ROOT
ATOM      1  C   UNL     1       8.370   0.411  -1.926  1.00  0.00     0.127 C 
ENDROOT
BRANCH   1   2
ATOM      2  C   UNL     1       9.498   0.228  -0.976  1.00  0.00     0.303 C 
ATOM      3  O   UNL     1       9.447  -0.511   0.039  1.00  0.00    -0.252 OA
BRANCH   2   4
ATOM      4  O   UNL     1      10.687   0.904  -1.209  1.00  0.00    -0.481 OA
ATOM      5  H   UNL     1      10.983   1.554  -0.477  1.00  0.00     0.296 HD
ENDBRANCH   2   4
ENDBRANCH   1   2
BRANCH   1   6
ATOM      6  C   UNL     1       7.191  -0.391  -1.462  1.00  0.00     0.047 C 
BRANCH   6   7
ATOM      7  C   UNL     1       6.363   0.277  -0.460  1.00  0.00    -0.047 A 
ATOM      8  C   UNL     1       5.755   1.492  -0.658  1.00  0.00     0.004 A 
ATOM      9  C   UNL     1       6.172  -0.333   0.755  1.00  0.00     0.004 A 
ATOM     10  C   UNL     1       4.979   2.107   0.295  1.00  0.00     0.000 A 
ATOM     11  C   UNL     1       5.402   0.254   1.732  1.00  0.00     0.000 A 
ATOM     12  C   UNL     1       4.792   1.489   1.513  1.00  0.00     0.000 A 
ENDBRANCH   6   7
ENDBRANCH   1   6
TORSDOF 4
ENDMDL
MODEL 5
REMARK VINA RESULT:      -6.5      3.707      5.103
REMARK SMILES O=C(O)CCc1ccccc1
REMARK SMILES IDX 4 1 2 2 1 3 3 4 5 6 6 7 7 8 11 9 8 10 10 11 9 12
REMARK H PARENT 3 5
REMARK Flexibility Score: inf
ROOT
ATOM      1  C   UNL     1       5.353   2.893   0.054  1.00  0.00     0.127 C 
ENDROOT
BRANCH   1   2
ATOM      2  C   UNL     1       6.215   3.843   0.805  1.00  0.00     0.303 C 
ATOM      3  O   UNL     1       6.866   4.775   0.268  1.00  0.00    -0.252 OA
BRANCH   2   4
ATOM      4  O   UNL     1       6.321   3.709   2.181  1.00  0.00    -0.481 OA
ATOM      5  H   UNL     1       7.139   3.199   2.521  1.00  0.00     0.296 HD
ENDBRANCH   2   4
ENDBRANCH   1   2
BRANCH   1   6
ATOM      6  C   UNL     1       5.343   1.567   0.755  1.00  0.00     0.047 C 
BRANCH   6   7
ATOM      7  C   UNL     1       6.098   0.518   0.073  1.00  0.00    -0.047 A 
ATOM      8  C   UNL     1       6.388   0.535  -1.269  1.00  0.00     0.004 A 
ATOM      9  C   UNL     1       6.550  -0.554   0.802  1.00  0.00     0.004 A 
ATOM     10  C   UNL     1       7.100  -0.460  -1.895  1.00  0.00     0.000 A 
ATOM     11  C   UNL     1       7.265  -1.568   0.208  1.00  0.00     0.000 A 
ATOM     12  C   UNL     1       7.550  -1.533  -1.156  1.00  0.00     0.000 A 
ENDBRANCH   6   7
ENDBRANCH   1   6
TORSDOF 4
ENDMDL
