@<TRIPOS>MOLECULE
/home/cewinharhar/GITHUB/reincatalyze/data/processed/docking_pred/2023-Apr-25-2140_maxeplen10_maxtrainstep200_exh16_gamma099_lrac3e-4_lrcr1e-3/8651a6b7cbc4b018fd9bb7015a505d05e6fdae34_ligand_2.pdbqt
 12 12 0 0 0
SMALL
GASTEIGER

@<TRIPOS>ATOM
      1  C          8.4440   -0.6080   -2.1400 C.3     1  UNL1        0.1270
      2  C          8.5070   -1.8910   -2.8870 C.2     1  UNL1        0.3030
      3  O          9.5690   -2.5310   -3.0930 O.2     1  UNL1       -0.2520
      4  O          7.3330   -2.4300   -3.3920 O.3     1  UNL1       -0.4810
      5  H          6.7300   -2.9050   -2.7170 H       1  UNL1        0.2960
      6  C          7.0220   -0.1340   -2.0790 C.3     1  UNL1        0.0470
      7  C          6.4830   -0.0130   -0.7260 C.2     1  UNL1       -0.0470
      8  C          6.5600   -1.0070    0.2180 C.2     1  UNL1        0.0040
      9  C          5.8600    1.1550   -0.3630 C.2     1  UNL1        0.0040
     10  C          6.0480   -0.8770    1.4870 C.2     1  UNL1        0.0000
     11  C          5.3350    1.3190    0.8980 C.2     1  UNL1        0.0000
     12  C          5.4230    0.2990    1.8440 C.2     1  UNL1        0.0000
@<TRIPOS>BOND
     1     4     2    1
     2     4     5    1
     3     3     2    2
     4     2     1    1
     5     1     6    1
     6     6     7    1
     7     7     9    2
     8     7     8    1
     9     9    11    1
    10     8    10    2
    11    11    12    2
    12    10    12    1
