@<TRIPOS>MOLECULE
/home/cewinharhar/GITHUB/reincatalyze/data/processed/docking_pred/2023-Apr-25-2140_maxeplen10_maxtrainstep200_exh16_gamma099_lrac3e-4_lrcr1e-3/8651a6b7cbc4b018fd9bb7015a505d05e6fdae34_ligand_2.pdbqt
 12 12 0 0 0
SMALL
GASTEIGER

@<TRIPOS>ATOM
      1  C          8.3700    0.4110   -1.9260 C.3     1  UNL1        0.1270
      2  C          9.4980    0.2280   -0.9760 C.2     1  UNL1        0.3030
      3  O          9.4470   -0.5110    0.0390 O.2     1  UNL1       -0.2520
      4  O         10.6870    0.9040   -1.2090 O.3     1  UNL1       -0.4810
      5  H         10.9830    1.5540   -0.4770 H       1  UNL1        0.2960
      6  C          7.1910   -0.3910   -1.4620 C.3     1  UNL1        0.0470
      7  C          6.3630    0.2770   -0.4600 C.2     1  UNL1       -0.0470
      8  C          5.7550    1.4920   -0.6580 C.2     1  UNL1        0.0040
      9  C          6.1720   -0.3330    0.7550 C.2     1  UNL1        0.0040
     10  C          4.9790    2.1070    0.2950 C.2     1  UNL1        0.0000
     11  C          5.4020    0.2540    1.7320 C.2     1  UNL1        0.0000
     12  C          4.7920    1.4890    1.5130 C.2     1  UNL1        0.0000
@<TRIPOS>BOND
     1     1     6    1
     2     1     2    1
     3     6     7    1
     4     4     2    1
     5     4     5    1
     6     2     3    2
     7     8     7    2
     8     8    10    1
     9     7     9    1
    10    10    12    2
    11     9    11    2
    12    12    11    1
