@<TRIPOS>MOLECULE
/home/cewinharhar/GITHUB/reincatalyze/data/processed/docking_pred/2023-Apr-25-2140_maxeplen10_maxtrainstep200_exh16_gamma099_lrac3e-4_lrcr1e-3/8651a6b7cbc4b018fd9bb7015a505d05e6fdae34_ligand_2.pdbqt
 12 12 0 0 0
SMALL
GASTEIGER

@<TRIPOS>ATOM
      1  C          5.3530    2.8930    0.0540 C.3     1  UNL1        0.1270
      2  C          6.2150    3.8430    0.8050 C.2     1  UNL1        0.3030
      3  O          6.8660    4.7750    0.2680 O.2     1  UNL1       -0.2520
      4  O          6.3210    3.7090    2.1810 O.3     1  UNL1       -0.4810
      5  H          7.1390    3.1990    2.5210 H       1  UNL1        0.2960
      6  C          5.3430    1.5670    0.7550 C.3     1  UNL1        0.0470
      7  C          6.0980    0.5180    0.0730 C.2     1  UNL1       -0.0470
      8  C          6.3880    0.5350   -1.2690 C.2     1  UNL1        0.0040
      9  C          6.5500   -0.5540    0.8020 C.2     1  UNL1        0.0040
     10  C          7.1000   -0.4600   -1.8950 C.2     1  UNL1        0.0000
     11  C          7.2650   -1.5680    0.2080 C.2     1  UNL1        0.0000
     12  C          7.5500   -1.5330   -1.1560 C.2     1  UNL1        0.0000
@<TRIPOS>BOND
     1    10     8    1
     2    10    12    2
     3     8     7    2
     4    12    11    1
     5     1     6    1
     6     1     2    1
     7     7     6    1
     8     7     9    1
     9    11     9    2
    10     3     2    2
    11     2     4    1
    12     4     5    1
