@<TRIPOS>MOLECULE
/home/cewinharhar/GITHUB/reincatalyze/data/processed/docking_pred/2023-Apr-25-2140_maxeplen10_maxtrainstep200_exh16_gamma099_lrac3e-4_lrcr1e-3/87c24324279ed01ab1d4888e5c128f335f215516_ligand_2.pdbqt
 12 12 0 0 0
SMALL
GASTEIGER

@<TRIPOS>ATOM
      1  C          8.2650    0.2340   -2.2140 C.3     1  UNL1        0.1270
      2  C          9.3750    0.3420   -1.2320 C.2     1  UNL1        0.3030
      3  O          9.4780   -0.3810   -0.2090 O.2     1  UNL1       -0.2520
      4  O         10.3650    1.2900   -1.4400 O.3     1  UNL1       -0.4810
      5  H         11.2170    0.9560   -1.8950 H       1  UNL1        0.2960
      6  C          7.1230   -0.5190   -1.5970 C.3     1  UNL1        0.0470
      7  C          6.3660    0.2390   -0.6040 C.2     1  UNL1       -0.0470
      8  C          6.1340   -0.1980    0.6760 C.2     1  UNL1        0.0040
      9  C          5.8490    1.4610   -0.9570 C.2     1  UNL1        0.0040
     10  C          5.4190    0.5290    1.5980 C.2     1  UNL1        0.0000
     11  C          5.1280    2.2150   -0.0600 C.2     1  UNL1        0.0000
     12  C          4.9030    1.7550    1.2360 C.2     1  UNL1        0.0000
@<TRIPOS>BOND
     1     1     6    1
     2     1     2    1
     3     5     4    1
     4     6     7    1
     5     4     2    1
     6     2     3    2
     7     9     7    2
     8     9    11    1
     9     7     8    1
    10    11    12    2
    11     8    10    2
    12    12    10    1
