@<TRIPOS>MOLECULE
/home/cewinharhar/GITHUB/reincatalyze/data/processed/docking_pred/2023-Apr-25-2140_maxeplen10_maxtrainstep200_exh16_gamma099_lrac3e-4_lrcr1e-3/87c24324279ed01ab1d4888e5c128f335f215516_ligand_2.pdbqt
 12 12 0 0 0
SMALL
GASTEIGER

@<TRIPOS>ATOM
      1  C          4.9860    1.8290    0.7260 C.3     1  UNL1        0.1270
      2  C          4.4890    1.1040    1.9250 C.2     1  UNL1        0.3030
      3  O          5.1210    0.1800    2.4970 O.2     1  UNL1       -0.2520
      4  O          3.2570    1.4530    2.4580 O.3     1  UNL1       -0.4810
      5  H          2.9570    0.9230    3.2790 H       1  UNL1        0.2960
      6  C          6.4850    1.8750    0.7560 C.3     1  UNL1        0.0470
      7  C          7.1330    1.1260   -0.3180 C.2     1  UNL1       -0.0470
      8  C          8.4670    1.2330   -0.6270 C.2     1  UNL1        0.0040
      9  C          6.3790    0.2620   -1.0720 C.2     1  UNL1        0.0040
     10  C          9.0610    0.5200   -1.6420 C.2     1  UNL1        0.0000
     11  C          6.9400   -0.4660   -2.0960 C.2     1  UNL1        0.0000
     12  C          8.2960   -0.3450   -2.3940 C.2     1  UNL1        0.0000
@<TRIPOS>BOND
     1    12    11    2
     2    12    10    1
     3    11     9    1
     4    10     8    2
     5     9     7    2
     6     8     7    1
     7     7     6    1
     8     1     6    1
     9     1     2    1
    10     2     4    1
    11     2     3    2
    12     4     5    1
