@<TRIPOS>MOLECULE
/home/cewinharhar/GITHUB/reincatalyze/data/processed/docking_pred/2023-Apr-25-2140_maxeplen10_maxtrainstep200_exh16_gamma099_lrac3e-4_lrcr1e-3/87c24324279ed01ab1d4888e5c128f335f215516_ligand_2.pdbqt
 12 12 0 0 0
SMALL
GASTEIGER

@<TRIPOS>ATOM
      1  C          8.4310   -0.5900   -2.1830 C.3     1  UNL1        0.1270
      2  C          8.3730   -1.8820   -2.9160 C.2     1  UNL1        0.3030
      3  O          7.3040   -2.4420   -3.2680 O.2     1  UNL1       -0.2520
      4  O          9.5600   -2.5230   -3.2400 O.3     1  UNL1       -0.4810
      5  H         10.1250   -2.0780   -3.9670 H       1  UNL1        0.2960
      6  C          7.0540    0.0020   -2.1050 C.3     1  UNL1        0.0470
      7  C          6.5040    0.0750   -0.7540 C.2     1  UNL1       -0.0470
      8  C          6.6030   -0.9380    0.1680 C.2     1  UNL1        0.0040
      9  C          5.8470    1.2170   -0.3670 C.2     1  UNL1        0.0040
     10  C          6.0790   -0.8520    1.4360 C.2     1  UNL1        0.0000
     11  C          5.3100    1.3370    0.8940 C.2     1  UNL1        0.0000
     12  C          5.4210    0.2970    1.8160 C.2     1  UNL1        0.0000
@<TRIPOS>BOND
     1     5     4    1
     2     3     2    2
     3     4     2    1
     4     2     1    1
     5     1     6    1
     6     6     7    1
     7     7     9    2
     8     7     8    1
     9     9    11    1
    10     8    10    2
    11    11    12    2
    12    10    12    1
