@<TRIPOS>MOLECULE
/home/cewinharhar/GITHUB/reincatalyze/data/processed/docking_pred/2023-Apr-25-2140_maxeplen10_maxtrainstep200_exh16_gamma099_lrac3e-4_lrcr1e-3/87c24324279ed01ab1d4888e5c128f335f215516_ligand_2.pdbqt
 12 12 0 0 0
SMALL
GASTEIGER

@<TRIPOS>ATOM
      1  C          8.4710   -0.5820   -2.1800 C.3     1  UNL1        0.1270
      2  C          8.5290   -1.8720   -2.9150 C.2     1  UNL1        0.3030
      3  O          9.5890   -2.5160   -3.1190 O.2     1  UNL1       -0.2520
      4  O          7.3530   -2.4140   -3.4120 O.3     1  UNL1       -0.4810
      5  H          6.8300   -3.0150   -2.7710 H       1  UNL1        0.2960
      6  C          7.0600   -0.0700   -2.1810 C.3     1  UNL1        0.0470
      7  C          6.4910    0.1320   -0.8510 C.2     1  UNL1       -0.0470
      8  C          5.8250    1.2710   -0.4690 C.2     1  UNL1        0.0040
      9  C          6.6200   -0.8660    0.0830 C.2     1  UNL1        0.0040
     10  C          5.2950    1.4440    0.7880 C.2     1  UNL1        0.0000
     11  C          6.1020   -0.7260    1.3510 C.2     1  UNL1        0.0000
     12  C          5.4290    0.4370    1.7200 C.2     1  UNL1        0.0000
@<TRIPOS>BOND
     1     4     2    1
     2     4     5    1
     3     3     2    2
     4     2     1    1
     5     6     1    1
     6     6     7    1
     7     7     8    2
     8     7     9    1
     9     8    10    1
    10     9    11    2
    11    10    12    2
    12    11    12    1
