@<TRIPOS>MOLECULE
/home/cewinharhar/GITHUB/reincatalyze/data/processed/docking_pred/2023-Apr-25-2140_maxeplen10_maxtrainstep200_exh16_gamma099_lrac3e-4_lrcr1e-3/87c24324279ed01ab1d4888e5c128f335f215516_ligand_2.pdbqt
 12 12 0 0 0
SMALL
GASTEIGER

@<TRIPOS>ATOM
      1  C          7.9130   -2.3080    0.8410 C.3     1  UNL1        0.1270
      2  C          8.7760   -3.4140    0.3490 C.2     1  UNL1        0.3030
      3  O          9.6910   -3.9450    1.0270 O.2     1  UNL1       -0.2520
      4  O          8.5730   -3.9030   -0.9330 O.3     1  UNL1       -0.4810
      5  H          9.3510   -3.7850   -1.5860 H       1  UNL1        0.2960
      6  C          7.5270   -1.4260   -0.3090 C.3     1  UNL1        0.0470
      7  C          6.6430   -0.3190    0.0490 C.2     1  UNL1       -0.0470
      8  C          6.3220    0.7090   -0.8030 C.2     1  UNL1        0.0040
      9  C          6.0940   -0.2910    1.3060 C.2     1  UNL1        0.0040
     10  C          5.4880    1.7430   -0.4500 C.2     1  UNL1        0.0000
     11  C          5.2550    0.7290    1.6940 C.2     1  UNL1        0.0000
     12  C          4.9400    1.7640    0.8150 C.2     1  UNL1        0.0000
@<TRIPOS>BOND
     1     5     4    1
     2     4     2    1
     3     8    10    1
     4     8     7    2
     5    10    12    2
     6     6     7    1
     7     6     1    1
     8     7     9    1
     9     2     1    1
    10     2     3    2
    11    12    11    1
    12     9    11    2
