MODEL 1
REMARK VINA RESULT:      -7.4      0.000      0.000
REMARK SMILES O=C(O)CCc1ccccc1
REMARK SMILES IDX 4 1 2 2 1 3 3 4 5 6 6 7 7 8 11 9 8 10 10 11 9 12
REMARK H PARENT 3 5
REMARK Flexibility Score: inf
ROOT
ATOM      1  C   UNL     1       8.471  -0.582  -2.180  1.00  0.00     0.127 C 
ENDROOT
BRANCH   1   2
ATOM      2  C   UNL     1       8.529  -1.872  -2.915  1.00  0.00     0.303 C 
ATOM      3  O   UNL     1       9.589  -2.516  -3.119  1.00  0.00    -0.252 OA
BRANCH   2   4
ATOM      4  O   UNL     1       7.353  -2.414  -3.412  1.00  0.00    -0.481 OA
ATOM      5  H   UNL     1       6.830  -3.015  -2.771  1.00  0.00     0.296 HD
ENDBRANCH   2   4
ENDBRANCH   1   2
BRANCH   1   6
ATOM      6  C   UNL     1       7.060  -0.070  -2.181  1.00  0.00     0.047 C 
BRANCH   6   7
ATOM      7  C   UNL     1       6.491   0.132  -0.851  1.00  0.00    -0.047 A 
ATOM      8  C   UNL     1       5.825   1.271  -0.469  1.00  0.00     0.004 A 
ATOM      9  C   UNL     1       6.620  -0.866   0.083  1.00  0.00     0.004 A 
ATOM     10  C   UNL     1       5.295   1.444   0.788  1.00  0.00     0.000 A 
ATOM     11  C   UNL     1       6.102  -0.726   1.351  1.00  0.00     0.000 A 
ATOM     12  C   UNL     1       5.429   0.437   1.720  1.00  0.00     0.000 A 
ENDBRANCH   6   7
ENDBRANCH   1   6
TORSDOF 4
ENDMDL
MODEL 2
REMARK VINA RESULT:      -7.3      0.132      1.723
REMARK SMILES O=C(O)CCc1ccccc1
REMARK SMILES IDX 4 1 2 2 1 3 3 4 5 6 6 7 7 8 11 9 8 10 10 11 9 12
REMARK H PARENT 3 5
REMARK Flexibility Score: inf
ROOT
ATOM      1  C   UNL     1       8.431  -0.590  -2.183  1.00  0.00     0.127 C 
ENDROOT
BRANCH   1   2
ATOM      2  C   UNL     1       8.373  -1.882  -2.916  1.00  0.00     0.303 C 
ATOM      3  O   UNL     1       7.304  -2.442  -3.268  1.00  0.00    -0.252 OA
BRANCH   2   4
ATOM      4  O   UNL     1       9.560  -2.523  -3.240  1.00  0.00    -0.481 OA
ATOM      5  H   UNL     1      10.125  -2.078  -3.967  1.00  0.00     0.296 HD
ENDBRANCH   2   4
ENDBRANCH   1   2
BRANCH   1   6
ATOM      6  C   UNL     1       7.054   0.002  -2.105  1.00  0.00     0.047 C 
BRANCH   6   7
ATOM      7  C   UNL     1       6.504   0.075  -0.754  1.00  0.00    -0.047 A 
ATOM      8  C   UNL     1       6.603  -0.938   0.168  1.00  0.00     0.004 A 
ATOM      9  C   UNL     1       5.847   1.217  -0.367  1.00  0.00     0.004 A 
ATOM     10  C   UNL     1       6.079  -0.852   1.436  1.00  0.00     0.000 A 
ATOM     11  C   UNL     1       5.310   1.337   0.894  1.00  0.00     0.000 A 
ATOM     12  C   UNL     1       5.421   0.297   1.816  1.00  0.00     0.000 A 
ENDBRANCH   6   7
ENDBRANCH   1   6
TORSDOF 4
ENDMDL
MODEL 3
REMARK VINA RESULT:      -6.8      3.373      5.076
REMARK SMILES O=C(O)CCc1ccccc1
REMARK SMILES IDX 4 1 2 2 1 3 3 4 5 6 6 7 7 8 11 9 8 10 10 11 9 12
REMARK H PARENT 3 5
REMARK Flexibility Score: inf
ROOT
ATOM      1  C   UNL     1       4.986   1.829   0.726  1.00  0.00     0.127 C 
ENDROOT
BRANCH   1   2
ATOM      2  C   UNL     1       4.489   1.104   1.925  1.00  0.00     0.303 C 
ATOM      3  O   UNL     1       5.121   0.180   2.497  1.00  0.00    -0.252 OA
BRANCH   2   4
ATOM      4  O   UNL     1       3.257   1.453   2.458  1.00  0.00    -0.481 OA
ATOM      5  H   UNL     1       2.957   0.923   3.279  1.00  0.00     0.296 HD
ENDBRANCH   2   4
ENDBRANCH   1   2
BRANCH   1   6
ATOM      6  C   UNL     1       6.485   1.875   0.756  1.00  0.00     0.047 C 
BRANCH   6   7
ATOM      7  C   UNL     1       7.133   1.126  -0.318  1.00  0.00    -0.047 A 
ATOM      8  C   UNL     1       8.467   1.233  -0.627  1.00  0.00     0.004 A 
ATOM      9  C   UNL     1       6.379   0.262  -1.072  1.00  0.00     0.004 A 
ATOM     10  C   UNL     1       9.061   0.520  -1.642  1.00  0.00     0.000 A 
ATOM     11  C   UNL     1       6.940  -0.466  -2.096  1.00  0.00     0.000 A 
ATOM     12  C   UNL     1       8.296  -0.345  -2.394  1.00  0.00     0.000 A 
ENDBRANCH   6   7
ENDBRANCH   1   6
TORSDOF 4
ENDMDL
MODEL 4
REMARK VINA RESULT:      -6.7      1.926      2.620
REMARK SMILES O=C(O)CCc1ccccc1
REMARK SMILES IDX 4 1 2 2 1 3 3 4 5 6 6 7 7 8 11 9 8 10 10 11 9 12
REMARK H PARENT 3 5
REMARK Flexibility Score: inf
ROOT
ATOM      1  C   UNL     1       8.265   0.234  -2.214  1.00  0.00     0.127 C 
ENDROOT
BRANCH   1   2
ATOM      2  C   UNL     1       9.375   0.342  -1.232  1.00  0.00     0.303 C 
ATOM      3  O   UNL     1       9.478  -0.381  -0.209  1.00  0.00    -0.252 OA
BRANCH   2   4
ATOM      4  O   UNL     1      10.365   1.290  -1.440  1.00  0.00    -0.481 OA
ATOM      5  H   UNL     1      11.217   0.956  -1.895  1.00  0.00     0.296 HD
ENDBRANCH   2   4
ENDBRANCH   1   2
BRANCH   1   6
ATOM      6  C   UNL     1       7.123  -0.519  -1.597  1.00  0.00     0.047 C 
BRANCH   6   7
ATOM      7  C   UNL     1       6.366   0.239  -0.604  1.00  0.00    -0.047 A 
ATOM      8  C   UNL     1       6.134  -0.198   0.676  1.00  0.00     0.004 A 
ATOM      9  C   UNL     1       5.849   1.461  -0.957  1.00  0.00     0.004 A 
ATOM     10  C   UNL     1       5.419   0.529   1.598  1.00  0.00     0.000 A 
ATOM     11  C   UNL     1       5.128   2.215  -0.060  1.00  0.00     0.000 A 
ATOM     12  C   UNL     1       4.903   1.755   1.236  1.00  0.00     0.000 A 
ENDBRANCH   6   7
ENDBRANCH   1   6
TORSDOF 4
ENDMDL
MODEL 5
REMARK VINA RESULT:      -6.6      2.030      2.548
REMARK SMILES O=C(O)CCc1ccccc1
REMARK SMILES IDX 4 1 2 2 1 3 3 4 5 6 6 7 7 8 11 9 8 10 10 11 9 12
REMARK H PARENT 3 5
REMARK Flexibility Score: inf
ROOT
ATOM      1  C   UNL     1       7.913  -2.308   0.841  1.00  0.00     0.127 C 
ENDROOT
BRANCH   1   2
ATOM      2  C   UNL     1       8.776  -3.414   0.349  1.00  0.00     0.303 C 
ATOM      3  O   UNL     1       9.691  -3.945   1.027  1.00  0.00    -0.252 OA
BRANCH   2   4
ATOM      4  O   UNL     1       8.573  -3.903  -0.933  1.00  0.00    -0.481 OA
ATOM      5  H   UNL     1       9.351  -3.785  -1.586  1.00  0.00     0.296 HD
ENDBRANCH   2   4
ENDBRANCH   1   2
BRANCH   1   6
ATOM      6  C   UNL     1       7.527  -1.426  -0.309  1.00  0.00     0.047 C 
BRANCH   6   7
ATOM      7  C   UNL     1       6.643  -0.319   0.049  1.00  0.00    -0.047 A 
ATOM      8  C   UNL     1       6.322   0.709  -0.803  1.00  0.00     0.004 A 
ATOM      9  C   UNL     1       6.094  -0.291   1.306  1.00  0.00     0.004 A 
ATOM     10  C   UNL     1       5.488   1.743  -0.450  1.00  0.00     0.000 A 
ATOM     11  C   UNL     1       5.255   0.729   1.694  1.00  0.00     0.000 A 
ATOM     12  C   UNL     1       4.940   1.764   0.815  1.00  0.00     0.000 A 
ENDBRANCH   6   7
ENDBRANCH   1   6
TORSDOF 4
ENDMDL
