@<TRIPOS>MOLECULE
/home/cewinharhar/GITHUB/reincatalyze/data/processed/docking_pred/2023-Apr-25-2140_maxeplen10_maxtrainstep200_exh16_gamma099_lrac3e-4_lrcr1e-3/88c4e0f8a026884e113c16f062f94e0c253125d7_ligand_2.pdbqt
 12 12 0 0 0
SMALL
GASTEIGER

@<TRIPOS>ATOM
      1  C          8.4450   -0.5900   -2.1880 C.3     1  UNL1        0.1270
      2  C          8.5090   -1.8850   -2.9150 C.2     1  UNL1        0.3030
      3  O          9.5710   -2.5300   -3.1080 O.2     1  UNL1       -0.2520
      4  O          7.3370   -2.4300   -3.4180 O.3     1  UNL1       -0.4810
      5  H          7.2980   -2.5510   -4.4330 H       1  UNL1        0.2960
      6  C          7.0220   -0.1150   -2.1380 C.3     1  UNL1        0.0470
      7  C          6.4830    0.0310   -0.7880 C.2     1  UNL1       -0.0470
      8  C          6.5760   -0.9370    0.1820 C.2     1  UNL1        0.0040
      9  C          5.8420    1.1990   -0.4540 C.2     1  UNL1        0.0040
     10  C          6.0620   -0.7820    1.4470 C.2     1  UNL1        0.0000
     11  C          5.3150    1.3870    0.8030 C.2     1  UNL1        0.0000
     12  C          5.4200    0.3930    1.7750 C.2     1  UNL1        0.0000
@<TRIPOS>BOND
     1     5     4    1
     2     4     2    1
     3     3     2    2
     4     2     1    1
     5     1     6    1
     6     6     7    1
     7     7     9    2
     8     7     8    1
     9     9    11    1
    10     8    10    2
    11    11    12    2
    12    10    12    1
