@<TRIPOS>MOLECULE
/home/cewinharhar/GITHUB/reincatalyze/data/processed/docking_pred/2023-Apr-25-2140_maxeplen10_maxtrainstep200_exh16_gamma099_lrac3e-4_lrcr1e-3/88c4e0f8a026884e113c16f062f94e0c253125d7_ligand_2.pdbqt
 12 12 0 0 0
SMALL
GASTEIGER

@<TRIPOS>ATOM
      1  C          7.3670   -1.5670   -1.9270 C.3     1  UNL1        0.1270
      2  C          8.7720   -1.5000   -2.4080 C.2     1  UNL1        0.3030
      3  O          9.3050   -2.3730   -3.1390 O.2     1  UNL1       -0.2520
      4  O          9.5570   -0.4180   -2.0390 O.3     1  UNL1       -0.4810
      5  H          9.0530    0.4100   -1.7130 H       1  UNL1        0.2960
      6  C          7.3390   -1.3670   -0.4400 C.3     1  UNL1        0.0470
      7  C          6.5070   -0.2510    0.0040 C.2     1  UNL1       -0.0470
      8  C          6.1950    0.8300   -0.7830 C.2     1  UNL1        0.0040
      9  C          6.0010   -0.2690    1.2800 C.2     1  UNL1        0.0040
     10  C          5.4110    1.8720   -0.3500 C.2     1  UNL1        0.0000
     11  C          5.2140    0.7580    1.7470 C.2     1  UNL1        0.0000
     12  C          4.9070    1.8470    0.9330 C.2     1  UNL1        0.0000
@<TRIPOS>BOND
     1     3     2    2
     2     2     4    1
     3     2     1    1
     4     4     5    1
     5     1     6    1
     6     8    10    1
     7     8     7    2
     8     6     7    1
     9    10    12    2
    10     7     9    1
    11    12    11    1
    12     9    11    2
