@<TRIPOS>MOLECULE
/home/cewinharhar/GITHUB/reincatalyze/data/processed/docking_pred/2023-Apr-25-2140_maxeplen10_maxtrainstep200_exh16_gamma099_lrac3e-4_lrcr1e-3/88c4e0f8a026884e113c16f062f94e0c253125d7_ligand_2.pdbqt
 12 12 0 0 0
SMALL
GASTEIGER

@<TRIPOS>ATOM
      1  C          5.4740    2.8620    0.0060 C.3     1  UNL1        0.1270
      2  C          6.2460    3.8700    0.7770 C.2     1  UNL1        0.3030
      3  O          6.9410    4.7750    0.2490 O.2     1  UNL1       -0.2520
      4  O          6.2090    3.8270    2.1630 O.3     1  UNL1       -0.4810
      5  H          5.3280    4.1120    2.5970 H       1  UNL1        0.2960
      6  C          4.9550    1.8090    0.9400 C.3     1  UNL1        0.0470
      7  C          5.7540    0.5860    0.9770 C.2     1  UNL1       -0.0470
      8  C          5.7820   -0.2770    2.0440 C.2     1  UNL1        0.0040
      9  C          6.5290    0.2690   -0.1110 C.2     1  UNL1        0.0040
     10  C          6.5400   -1.4240    2.0610 C.2     1  UNL1        0.0000
     11  C          7.3010   -0.8700   -0.1280 C.2     1  UNL1        0.0000
     12  C          7.3160   -1.7350    0.9650 C.2     1  UNL1        0.0000
@<TRIPOS>BOND
     1    11     9    1
     2    11    12    2
     3     9     7    2
     4     1     2    1
     5     1     6    1
     6     3     2    2
     7     2     4    1
     8     6     7    1
     9    12    10    1
    10     7     8    1
    11     8    10    2
    12     4     5    1
