@<TRIPOS>MOLECULE
/home/cewinharhar/GITHUB/reincatalyze/data/processed/docking_pred/2023-Apr-25-2140_maxeplen10_maxtrainstep200_exh16_gamma099_lrac3e-4_lrcr1e-3/88c4e0f8a026884e113c16f062f94e0c253125d7_ligand_2.pdbqt
 12 12 0 0 0
SMALL
GASTEIGER

@<TRIPOS>ATOM
      1  C          8.4220   -0.5700   -2.1980 C.3     1  UNL1        0.1270
      2  C          8.4960   -1.8750   -2.9060 C.2     1  UNL1        0.3030
      3  O          9.5640   -2.5100   -3.0960 O.2     1  UNL1       -0.2520
      4  O          7.3270   -2.4400   -3.3920 O.3     1  UNL1       -0.4810
      5  H          7.0270   -2.1250   -4.3180 H       1  UNL1        0.2960
      6  C          6.9980   -0.0970   -2.1680 C.3     1  UNL1        0.0470
      7  C          6.4560    0.1020   -0.8260 C.2     1  UNL1       -0.0470
      8  C          5.8220    1.2500   -0.4210 C.2     1  UNL1        0.0040
      9  C          6.5810   -0.9080    0.0960 C.2     1  UNL1        0.0040
     10  C          5.3180    1.4210    0.8470 C.2     1  UNL1        0.0000
     11  C          6.0890   -0.7710    1.3730 C.2     1  UNL1        0.0000
     12  C          5.4470    0.4030    1.7660 C.2     1  UNL1        0.0000
@<TRIPOS>BOND
     1     5     4    1
     2     4     2    1
     3     3     2    2
     4     2     1    1
     5     1     6    1
     6     6     7    1
     7     7     8    2
     8     7     9    1
     9     8    10    1
    10     9    11    2
    11    10    12    2
    12    11    12    1
