MODEL 1
REMARK VINA RESULT:      -7.4      0.000      0.000
REMARK SMILES O=C(O)CCc1ccccc1
REMARK SMILES IDX 4 1 2 2 1 3 3 4 5 6 6 7 7 8 11 9 8 10 10 11 9 12
REMARK H PARENT 3 5
REMARK Flexibility Score: inf
ROOT
ATOM      1  C   UNL     1       8.445  -0.590  -2.188  1.00  0.00     0.127 C 
ENDROOT
BRANCH   1   2
ATOM      2  C   UNL     1       8.509  -1.885  -2.915  1.00  0.00     0.303 C 
ATOM      3  O   UNL     1       9.571  -2.530  -3.108  1.00  0.00    -0.252 OA
BRANCH   2   4
ATOM      4  O   UNL     1       7.337  -2.430  -3.418  1.00  0.00    -0.481 OA
ATOM      5  H   UNL     1       7.298  -2.551  -4.433  1.00  0.00     0.296 HD
ENDBRANCH   2   4
ENDBRANCH   1   2
BRANCH   1   6
ATOM      6  C   UNL     1       7.022  -0.115  -2.138  1.00  0.00     0.047 C 
BRANCH   6   7
ATOM      7  C   UNL     1       6.483   0.031  -0.788  1.00  0.00    -0.047 A 
ATOM      8  C   UNL     1       6.576  -0.937   0.182  1.00  0.00     0.004 A 
ATOM      9  C   UNL     1       5.842   1.199  -0.454  1.00  0.00     0.004 A 
ATOM     10  C   UNL     1       6.062  -0.782   1.447  1.00  0.00     0.000 A 
ATOM     11  C   UNL     1       5.315   1.387   0.803  1.00  0.00     0.000 A 
ATOM     12  C   UNL     1       5.420   0.393   1.775  1.00  0.00     0.000 A 
ENDBRANCH   6   7
ENDBRANCH   1   6
TORSDOF 4
ENDMDL
MODEL 2
REMARK VINA RESULT:      -7.4      0.056      1.426
REMARK SMILES O=C(O)CCc1ccccc1
REMARK SMILES IDX 4 1 2 2 1 3 3 4 5 6 6 7 7 8 11 9 8 10 10 11 9 12
REMARK H PARENT 3 5
REMARK Flexibility Score: inf
ROOT
ATOM      1  C   UNL     1       8.422  -0.570  -2.198  1.00  0.00     0.127 C 
ENDROOT
BRANCH   1   2
ATOM      2  C   UNL     1       8.496  -1.875  -2.906  1.00  0.00     0.303 C 
ATOM      3  O   UNL     1       9.564  -2.510  -3.096  1.00  0.00    -0.252 OA
BRANCH   2   4
ATOM      4  O   UNL     1       7.327  -2.440  -3.392  1.00  0.00    -0.481 OA
ATOM      5  H   UNL     1       7.027  -2.125  -4.318  1.00  0.00     0.296 HD
ENDBRANCH   2   4
ENDBRANCH   1   2
BRANCH   1   6
ATOM      6  C   UNL     1       6.998  -0.097  -2.168  1.00  0.00     0.047 C 
BRANCH   6   7
ATOM      7  C   UNL     1       6.456   0.102  -0.826  1.00  0.00    -0.047 A 
ATOM      8  C   UNL     1       5.822   1.250  -0.421  1.00  0.00     0.004 A 
ATOM      9  C   UNL     1       6.581  -0.908   0.096  1.00  0.00     0.004 A 
ATOM     10  C   UNL     1       5.318   1.421   0.847  1.00  0.00     0.000 A 
ATOM     11  C   UNL     1       6.089  -0.771   1.373  1.00  0.00     0.000 A 
ATOM     12  C   UNL     1       5.447   0.403   1.766  1.00  0.00     0.000 A 
ENDBRANCH   6   7
ENDBRANCH   1   6
TORSDOF 4
ENDMDL
MODEL 3
REMARK VINA RESULT:      -6.7      3.340      5.039
REMARK SMILES O=C(O)CCc1ccccc1
REMARK SMILES IDX 4 1 2 2 1 3 3 4 5 6 6 7 7 8 11 9 8 10 10 11 9 12
REMARK H PARENT 3 5
REMARK Flexibility Score: inf
ROOT
ATOM      1  C   UNL     1       5.037   1.757   0.722  1.00  0.00     0.127 C 
ENDROOT
BRANCH   1   2
ATOM      2  C   UNL     1       4.611   1.018   1.940  1.00  0.00     0.303 C 
ATOM      3  O   UNL     1       5.310   0.141   2.507  1.00  0.00    -0.252 OA
BRANCH   2   4
ATOM      4  O   UNL     1       3.373   1.301   2.497  1.00  0.00    -0.481 OA
ATOM      5  H   UNL     1       3.214   2.274   2.765  1.00  0.00     0.296 HD
ENDBRANCH   2   4
ENDBRANCH   1   2
BRANCH   1   6
ATOM      6  C   UNL     1       6.535   1.824   0.677  1.00  0.00     0.047 C 
BRANCH   6   7
ATOM      7  C   UNL     1       7.143   1.024  -0.384  1.00  0.00    -0.047 A 
ATOM      8  C   UNL     1       6.462   0.087  -1.121  1.00  0.00     0.004 A 
ATOM      9  C   UNL     1       8.472   1.209  -0.674  1.00  0.00     0.004 A 
ATOM     10  C   UNL     1       7.050  -0.657  -2.116  1.00  0.00     0.000 A 
ATOM     11  C   UNL     1       9.093   0.481  -1.663  1.00  0.00     0.000 A 
ATOM     12  C   UNL     1       8.384  -0.466  -2.400  1.00  0.00     0.000 A 
ENDBRANCH   6   7
ENDBRANCH   1   6
TORSDOF 4
ENDMDL
MODEL 4
REMARK VINA RESULT:      -6.7      1.040      1.985
REMARK SMILES O=C(O)CCc1ccccc1
REMARK SMILES IDX 4 1 2 2 1 3 3 4 5 6 6 7 7 8 11 9 8 10 10 11 9 12
REMARK H PARENT 3 5
REMARK Flexibility Score: inf
ROOT
ATOM      1  C   UNL     1       7.367  -1.567  -1.927  1.00  0.00     0.127 C 
ENDROOT
BRANCH   1   2
ATOM      2  C   UNL     1       8.772  -1.500  -2.408  1.00  0.00     0.303 C 
ATOM      3  O   UNL     1       9.305  -2.373  -3.139  1.00  0.00    -0.252 OA
BRANCH   2   4
ATOM      4  O   UNL     1       9.557  -0.418  -2.039  1.00  0.00    -0.481 OA
ATOM      5  H   UNL     1       9.053   0.410  -1.713  1.00  0.00     0.296 HD
ENDBRANCH   2   4
ENDBRANCH   1   2
BRANCH   1   6
ATOM      6  C   UNL     1       7.339  -1.367  -0.440  1.00  0.00     0.047 C 
BRANCH   6   7
ATOM      7  C   UNL     1       6.507  -0.251   0.004  1.00  0.00    -0.047 A 
ATOM      8  C   UNL     1       6.195   0.830  -0.783  1.00  0.00     0.004 A 
ATOM      9  C   UNL     1       6.001  -0.269   1.280  1.00  0.00     0.004 A 
ATOM     10  C   UNL     1       5.411   1.872  -0.350  1.00  0.00     0.000 A 
ATOM     11  C   UNL     1       5.214   0.758   1.747  1.00  0.00     0.000 A 
ATOM     12  C   UNL     1       4.907   1.847   0.933  1.00  0.00     0.000 A 
ENDBRANCH   6   7
ENDBRANCH   1   6
TORSDOF 4
ENDMDL
MODEL 5
REMARK VINA RESULT:      -6.7      3.834      4.932
REMARK SMILES O=C(O)CCc1ccccc1
REMARK SMILES IDX 4 1 2 2 1 3 3 4 5 6 6 7 7 8 11 9 8 10 10 11 9 12
REMARK H PARENT 3 5
REMARK Flexibility Score: inf
ROOT
ATOM      1  C   UNL     1       5.474   2.862   0.006  1.00  0.00     0.127 C 
ENDROOT
BRANCH   1   2
ATOM      2  C   UNL     1       6.246   3.870   0.777  1.00  0.00     0.303 C 
ATOM      3  O   UNL     1       6.941   4.775   0.249  1.00  0.00    -0.252 OA
BRANCH   2   4
ATOM      4  O   UNL     1       6.209   3.827   2.163  1.00  0.00    -0.481 OA
ATOM      5  H   UNL     1       5.328   4.112   2.597  1.00  0.00     0.296 HD
ENDBRANCH   2   4
ENDBRANCH   1   2
BRANCH   1   6
ATOM      6  C   UNL     1       4.955   1.809   0.940  1.00  0.00     0.047 C 
BRANCH   6   7
ATOM      7  C   UNL     1       5.754   0.586   0.977  1.00  0.00    -0.047 A 
ATOM      8  C   UNL     1       5.782  -0.277   2.044  1.00  0.00     0.004 A 
ATOM      9  C   UNL     1       6.529   0.269  -0.111  1.00  0.00     0.004 A 
ATOM     10  C   UNL     1       6.540  -1.424   2.061  1.00  0.00     0.000 A 
ATOM     11  C   UNL     1       7.301  -0.870  -0.128  1.00  0.00     0.000 A 
ATOM     12  C   UNL     1       7.316  -1.735   0.965  1.00  0.00     0.000 A 
ENDBRANCH   6   7
ENDBRANCH   1   6
TORSDOF 4
ENDMDL
