@<TRIPOS>MOLECULE
/home/cewinharhar/GITHUB/reincatalyze/data/processed/docking_pred/2023-Apr-25-2140_maxeplen10_maxtrainstep200_exh16_gamma099_lrac3e-4_lrcr1e-3/895ea28dab147140afd805a2e235fc395d2e1c3a_ligand_2.pdbqt
 12 12 0 0 0
SMALL
GASTEIGER

@<TRIPOS>ATOM
      1  C          5.0520    1.7230    0.7290 C.3     1  UNL1        0.1270
      2  C          4.6300    0.9440    1.9220 C.2     1  UNL1        0.3030
      3  O          5.3140    0.0220    2.4350 O.2     1  UNL1       -0.2520
      4  O          3.4140    1.2380    2.5200 O.3     1  UNL1       -0.4810
      5  H          3.4410    1.4230    3.5250 H       1  UNL1        0.2960
      6  C          6.5500    1.7920    0.6810 C.3     1  UNL1        0.0470
      7  C          7.1580    0.9930   -0.3800 C.2     1  UNL1       -0.0470
      8  C          6.4800    0.0470   -1.1080 C.2     1  UNL1        0.0040
      9  C          8.4840    1.1850   -0.6770 C.2     1  UNL1        0.0040
     10  C          7.0670   -0.6970   -2.1040 C.2     1  UNL1        0.0000
     11  C          9.1050    0.4580   -1.6660 C.2     1  UNL1        0.0000
     12  C          8.3990   -0.4980   -2.3960 C.2     1  UNL1        0.0000
@<TRIPOS>BOND
     1    12    10    2
     2    12    11    1
     3    10     8    1
     4    11     9    2
     5     8     7    2
     6     9     7    1
     7     7     6    1
     8     6     1    1
     9     1     2    1
    10     2     3    2
    11     2     4    1
    12     4     5    1
