@<TRIPOS>MOLECULE
/home/cewinharhar/GITHUB/reincatalyze/data/processed/docking_pred/2023-Apr-25-2140_maxeplen10_maxtrainstep200_exh16_gamma099_lrac3e-4_lrcr1e-3/895ea28dab147140afd805a2e235fc395d2e1c3a_ligand_2.pdbqt
 12 12 0 0 0
SMALL
GASTEIGER

@<TRIPOS>ATOM
      1  C          8.3860   -0.3610   -2.1910 C.3     1  UNL1        0.1270
      2  C          8.5180   -1.6950   -2.8330 C.2     1  UNL1        0.3030
      3  O          9.6120   -2.2960   -2.9810 O.2     1  UNL1       -0.2520
      4  O          7.3780   -2.3300   -3.3010 O.3     1  UNL1       -0.4810
      5  H          7.4340   -2.7120   -4.2480 H       1  UNL1        0.2960
      6  C          6.9350    0.0140   -2.1120 C.3     1  UNL1        0.0470
      7  C          6.4180    0.1420   -0.7510 C.2     1  UNL1       -0.0470
      8  C          5.7790    1.2620   -0.2800 C.2     1  UNL1        0.0040
      9  C          6.5730   -0.9090    0.1180 C.2     1  UNL1        0.0040
     10  C          5.2980    1.3660    1.0040 C.2     1  UNL1        0.0000
     11  C          6.1060   -0.8380    1.4100 C.2     1  UNL1        0.0000
     12  C          5.4580    0.3070    1.8710 C.2     1  UNL1        0.0000
@<TRIPOS>BOND
     1     5     4    1
     2     4     2    1
     3     3     2    2
     4     2     1    1
     5     1     6    1
     6     6     7    1
     7     7     8    2
     8     7     9    1
     9     8    10    1
    10     9    11    2
    11    10    12    2
    12    11    12    1
