@<TRIPOS>MOLECULE
/home/cewinharhar/GITHUB/reincatalyze/data/processed/docking_pred/2023-Apr-25-2140_maxeplen10_maxtrainstep200_exh16_gamma099_lrac3e-4_lrcr1e-3/895ea28dab147140afd805a2e235fc395d2e1c3a_ligand_2.pdbqt
 12 12 0 0 0
SMALL
GASTEIGER

@<TRIPOS>ATOM
      1  C          8.4270   -0.5480   -2.0900 C.3     1  UNL1        0.1270
      2  C          8.4030   -1.8330   -2.8360 C.2     1  UNL1        0.3030
      3  O          7.3520   -2.3800   -3.2560 O.2     1  UNL1       -0.2520
      4  O          9.6010   -2.4810   -3.0940 O.3     1  UNL1       -0.4810
      5  H         10.0350   -2.9550   -2.2990 H       1  UNL1        0.2960
      6  C          7.0450    0.0350   -2.0550 C.3     1  UNL1        0.0470
      7  C          6.4700    0.1470   -0.7160 C.2     1  UNL1       -0.0470
      8  C          6.5680   -0.8320    0.2420 C.2     1  UNL1        0.0040
      9  C          5.7910    1.2920   -0.3800 C.2     1  UNL1        0.0040
     10  C          6.0210   -0.7110    1.4970 C.2     1  UNL1        0.0000
     11  C          5.2300    1.4470    0.8670 C.2     1  UNL1        0.0000
     12  C          5.3400    0.4410    1.8260 C.2     1  UNL1        0.0000
@<TRIPOS>BOND
     1     3     2    2
     2     4     2    1
     3     4     5    1
     4     2     1    1
     5     1     6    1
     6     6     7    1
     7     7     9    2
     8     7     8    1
     9     9    11    1
    10     8    10    2
    11    11    12    2
    12    10    12    1
