@<TRIPOS>MOLECULE
/home/cewinharhar/GITHUB/reincatalyze/data/processed/docking_pred/2023-Apr-25-2140_maxeplen10_maxtrainstep200_exh16_gamma099_lrac3e-4_lrcr1e-3/895ea28dab147140afd805a2e235fc395d2e1c3a_ligand_2.pdbqt
 12 12 0 0 0
SMALL
GASTEIGER

@<TRIPOS>ATOM
      1  C          5.0660    1.7590    0.7630 C.3     1  UNL1        0.1270
      2  C          4.5790    1.0210    1.9580 C.2     1  UNL1        0.3030
      3  O          5.2300    0.1130    2.5350 O.2     1  UNL1       -0.2520
      4  O          3.3360    1.3410    2.4830 O.3     1  UNL1       -0.4810
      5  H          3.0280    2.3070    2.3490 H       1  UNL1        0.2960
      6  C          6.5670    1.7860    0.7700 C.3     1  UNL1        0.0470
      7  C          7.1890    1.0320   -0.3150 C.2     1  UNL1       -0.0470
      8  C          8.4990    1.1840   -0.6980 C.2     1  UNL1        0.0040
      9  C          6.4340    0.1130   -1.0010 C.2     1  UNL1        0.0040
     10  C          9.0690    0.4660   -1.7220 C.2     1  UNL1        0.0000
     11  C          6.9720   -0.6230   -2.0320 C.2     1  UNL1        0.0000
     12  C          8.3040   -0.4540   -2.4060 C.2     1  UNL1        0.0000
@<TRIPOS>BOND
     1    12    11    2
     2    12    10    1
     3    11     9    1
     4    10     8    2
     5     9     7    2
     6     8     7    1
     7     7     6    1
     8     1     6    1
     9     1     2    1
    10     2     4    1
    11     2     3    2
    12     5     4    1
