MODEL 1
REMARK VINA RESULT:      -6.7      0.000      0.000
REMARK SMILES O=C(O)CCc1ccccc1
REMARK SMILES IDX 4 1 2 2 1 3 3 4 5 6 6 7 7 8 11 9 8 10 10 11 9 12
REMARK H PARENT 3 5
REMARK Flexibility Score: inf
ROOT
ATOM      1  C   UNL     1       8.427  -0.548  -2.090  1.00  0.00     0.127 C 
ENDROOT
BRANCH   1   2
ATOM      2  C   UNL     1       8.403  -1.833  -2.836  1.00  0.00     0.303 C 
ATOM      3  O   UNL     1       7.352  -2.380  -3.256  1.00  0.00    -0.252 OA
BRANCH   2   4
ATOM      4  O   UNL     1       9.601  -2.481  -3.094  1.00  0.00    -0.481 OA
ATOM      5  H   UNL     1      10.035  -2.955  -2.299  1.00  0.00     0.296 HD
ENDBRANCH   2   4
ENDBRANCH   1   2
BRANCH   1   6
ATOM      6  C   UNL     1       7.045   0.035  -2.055  1.00  0.00     0.047 C 
BRANCH   6   7
ATOM      7  C   UNL     1       6.470   0.147  -0.716  1.00  0.00    -0.047 A 
ATOM      8  C   UNL     1       6.568  -0.832   0.242  1.00  0.00     0.004 A 
ATOM      9  C   UNL     1       5.791   1.292  -0.380  1.00  0.00     0.004 A 
ATOM     10  C   UNL     1       6.021  -0.711   1.497  1.00  0.00     0.000 A 
ATOM     11  C   UNL     1       5.230   1.447   0.867  1.00  0.00     0.000 A 
ATOM     12  C   UNL     1       5.340   0.441   1.826  1.00  0.00     0.000 A 
ENDBRANCH   6   7
ENDBRANCH   1   6
TORSDOF 4
ENDMDL
MODEL 2
REMARK VINA RESULT:      -6.7      3.286      5.113
REMARK SMILES O=C(O)CCc1ccccc1
REMARK SMILES IDX 4 1 2 2 1 3 3 4 5 6 6 7 7 8 11 9 8 10 10 11 9 12
REMARK H PARENT 3 5
REMARK Flexibility Score: inf
ROOT
ATOM      1  C   UNL     1       5.066   1.759   0.763  1.00  0.00     0.127 C 
ENDROOT
BRANCH   1   2
ATOM      2  C   UNL     1       4.579   1.021   1.958  1.00  0.00     0.303 C 
ATOM      3  O   UNL     1       5.230   0.113   2.535  1.00  0.00    -0.252 OA
BRANCH   2   4
ATOM      4  O   UNL     1       3.336   1.341   2.483  1.00  0.00    -0.481 OA
ATOM      5  H   UNL     1       3.028   2.307   2.349  1.00  0.00     0.296 HD
ENDBRANCH   2   4
ENDBRANCH   1   2
BRANCH   1   6
ATOM      6  C   UNL     1       6.567   1.786   0.770  1.00  0.00     0.047 C 
BRANCH   6   7
ATOM      7  C   UNL     1       7.189   1.032  -0.315  1.00  0.00    -0.047 A 
ATOM      8  C   UNL     1       8.499   1.184  -0.698  1.00  0.00     0.004 A 
ATOM      9  C   UNL     1       6.434   0.113  -1.001  1.00  0.00     0.004 A 
ATOM     10  C   UNL     1       9.069   0.466  -1.722  1.00  0.00     0.000 A 
ATOM     11  C   UNL     1       6.972  -0.623  -2.032  1.00  0.00     0.000 A 
ATOM     12  C   UNL     1       8.304  -0.454  -2.406  1.00  0.00     0.000 A 
ENDBRANCH   6   7
ENDBRANCH   1   6
TORSDOF 4
ENDMDL
MODEL 3
REMARK VINA RESULT:      -6.7      0.159      1.724
REMARK SMILES O=C(O)CCc1ccccc1
REMARK SMILES IDX 4 1 2 2 1 3 3 4 5 6 6 7 7 8 11 9 8 10 10 11 9 12
REMARK H PARENT 3 5
REMARK Flexibility Score: inf
ROOT
ATOM      1  C   UNL     1       8.386  -0.361  -2.191  1.00  0.00     0.127 C 
ENDROOT
BRANCH   1   2
ATOM      2  C   UNL     1       8.518  -1.695  -2.833  1.00  0.00     0.303 C 
ATOM      3  O   UNL     1       9.612  -2.296  -2.981  1.00  0.00    -0.252 OA
BRANCH   2   4
ATOM      4  O   UNL     1       7.378  -2.330  -3.301  1.00  0.00    -0.481 OA
ATOM      5  H   UNL     1       7.434  -2.712  -4.248  1.00  0.00     0.296 HD
ENDBRANCH   2   4
ENDBRANCH   1   2
BRANCH   1   6
ATOM      6  C   UNL     1       6.935   0.014  -2.112  1.00  0.00     0.047 C 
BRANCH   6   7
ATOM      7  C   UNL     1       6.418   0.142  -0.751  1.00  0.00    -0.047 A 
ATOM      8  C   UNL     1       5.779   1.262  -0.280  1.00  0.00     0.004 A 
ATOM      9  C   UNL     1       6.573  -0.909   0.118  1.00  0.00     0.004 A 
ATOM     10  C   UNL     1       5.298   1.366   1.004  1.00  0.00     0.000 A 
ATOM     11  C   UNL     1       6.106  -0.838   1.410  1.00  0.00     0.000 A 
ATOM     12  C   UNL     1       5.458   0.307   1.871  1.00  0.00     0.000 A 
ENDBRANCH   6   7
ENDBRANCH   1   6
TORSDOF 4
ENDMDL
MODEL 4
REMARK VINA RESULT:      -6.6      3.245      5.060
REMARK SMILES O=C(O)CCc1ccccc1
REMARK SMILES IDX 4 1 2 2 1 3 3 4 5 6 6 7 7 8 11 9 8 10 10 11 9 12
REMARK H PARENT 3 5
REMARK Flexibility Score: inf
ROOT
ATOM      1  C   UNL     1       5.052   1.723   0.729  1.00  0.00     0.127 C 
ENDROOT
BRANCH   1   2
ATOM      2  C   UNL     1       4.630   0.944   1.922  1.00  0.00     0.303 C 
ATOM      3  O   UNL     1       5.314   0.022   2.435  1.00  0.00    -0.252 OA
BRANCH   2   4
ATOM      4  O   UNL     1       3.414   1.238   2.520  1.00  0.00    -0.481 OA
ATOM      5  H   UNL     1       3.441   1.423   3.525  1.00  0.00     0.296 HD
ENDBRANCH   2   4
ENDBRANCH   1   2
BRANCH   1   6
ATOM      6  C   UNL     1       6.550   1.792   0.681  1.00  0.00     0.047 C 
BRANCH   6   7
ATOM      7  C   UNL     1       7.158   0.993  -0.380  1.00  0.00    -0.047 A 
ATOM      8  C   UNL     1       6.480   0.047  -1.108  1.00  0.00     0.004 A 
ATOM      9  C   UNL     1       8.484   1.185  -0.677  1.00  0.00     0.004 A 
ATOM     10  C   UNL     1       7.067  -0.697  -2.104  1.00  0.00     0.000 A 
ATOM     11  C   UNL     1       9.105   0.458  -1.666  1.00  0.00     0.000 A 
ATOM     12  C   UNL     1       8.399  -0.498  -2.396  1.00  0.00     0.000 A 
ENDBRANCH   6   7
ENDBRANCH   1   6
TORSDOF 4
ENDMDL
MODEL 5
REMARK VINA RESULT:      -6.6      0.655      1.588
REMARK SMILES O=C(O)CCc1ccccc1
REMARK SMILES IDX 4 1 2 2 1 3 3 4 5 6 6 7 7 8 11 9 8 10 10 11 9 12
REMARK H PARENT 3 5
REMARK Flexibility Score: inf
ROOT
ATOM      1  C   UNL     1       8.209  -0.908  -2.060  1.00  0.00     0.127 C 
ENDROOT
BRANCH   1   2
ATOM      2  C   UNL     1       8.438  -2.026  -3.012  1.00  0.00     0.303 C 
ATOM      3  O   UNL     1       7.517  -2.638  -3.609  1.00  0.00    -0.252 OA
BRANCH   2   4
ATOM      4  O   UNL     1       9.740  -2.430  -3.271  1.00  0.00    -0.481 OA
ATOM      5  H   UNL     1      10.261  -2.798  -2.472  1.00  0.00     0.296 HD
ENDBRANCH   2   4
ENDBRANCH   1   2
BRANCH   1   6
ATOM      6  C   UNL     1       7.307  -1.370  -0.954  1.00  0.00     0.047 C 
BRANCH   6   7
ATOM      7  C   UNL     1       6.538  -0.304  -0.317  1.00  0.00    -0.047 A 
ATOM      8  C   UNL     1       6.163   0.854  -0.953  1.00  0.00     0.004 A 
ATOM      9  C   UNL     1       6.161  -0.453   0.995  1.00  0.00     0.004 A 
ATOM     10  C   UNL     1       5.439   1.847  -0.338  1.00  0.00     0.000 A 
ATOM     11  C   UNL     1       5.437   0.522   1.642  1.00  0.00     0.000 A 
ATOM     12  C   UNL     1       5.065   1.690   0.980  1.00  0.00     0.000 A 
ENDBRANCH   6   7
ENDBRANCH   1   6
TORSDOF 4
ENDMDL
