@<TRIPOS>MOLECULE
/home/cewinharhar/GITHUB/reincatalyze/data/processed/docking_pred/2023-Apr-25-2140_maxeplen10_maxtrainstep200_exh16_gamma099_lrac3e-4_lrcr1e-3/895ea28dab147140afd805a2e235fc395d2e1c3a_ligand_2.pdbqt
 12 12 0 0 0
SMALL
GASTEIGER

@<TRIPOS>ATOM
      1  C          8.2090   -0.9080   -2.0600 C.3     1  UNL1        0.1270
      2  C          8.4380   -2.0260   -3.0120 C.2     1  UNL1        0.3030
      3  O          7.5170   -2.6380   -3.6090 O.2     1  UNL1       -0.2520
      4  O          9.7400   -2.4300   -3.2710 O.3     1  UNL1       -0.4810
      5  H         10.2610   -2.7980   -2.4720 H       1  UNL1        0.2960
      6  C          7.3070   -1.3700   -0.9540 C.3     1  UNL1        0.0470
      7  C          6.5380   -0.3040   -0.3170 C.2     1  UNL1       -0.0470
      8  C          6.1630    0.8540   -0.9530 C.2     1  UNL1        0.0040
      9  C          6.1610   -0.4530    0.9950 C.2     1  UNL1        0.0040
     10  C          5.4390    1.8470   -0.3380 C.2     1  UNL1        0.0000
     11  C          5.4370    0.5220    1.6420 C.2     1  UNL1        0.0000
     12  C          5.0650    1.6900    0.9800 C.2     1  UNL1        0.0000
@<TRIPOS>BOND
     1     3     2    2
     2     4     2    1
     3     4     5    1
     4     2     1    1
     5     1     6    1
     6     6     7    1
     7     8    10    1
     8     8     7    2
     9    10    12    2
    10     7     9    1
    11    12    11    1
    12     9    11    2
