@<TRIPOS>MOLECULE
/home/cewinharhar/GITHUB/reincatalyze/data/processed/docking_pred/2023-Apr-25-2140_maxeplen10_maxtrainstep200_exh16_gamma099_lrac3e-4_lrcr1e-3/8a11bcf53d23875e79cb17a52aa7b3de0dc85e7d_ligand_2.pdbqt
 12 12 0 0 0
SMALL
GASTEIGER

@<TRIPOS>ATOM
      1  C          4.9920    1.7800    0.7070 C.3     1  UNL1        0.1270
      2  C          4.5700    1.0440    1.9270 C.2     1  UNL1        0.3030
      3  O          5.2660    0.1620    2.4900 O.2     1  UNL1       -0.2520
      4  O          3.3380    1.3360    2.4930 O.3     1  UNL1       -0.4810
      5  H          3.2920    1.2960    3.5140 H       1  UNL1        0.2960
      6  C          6.4900    1.8550    0.6630 C.3     1  UNL1        0.0470
      7  C          7.1040    1.0440   -0.3860 C.2     1  UNL1       -0.0470
      8  C          6.4200    0.1200   -1.1370 C.2     1  UNL1        0.0040
      9  C          8.4430    1.2010   -0.6460 C.2     1  UNL1        0.0040
     10  C          7.0140   -0.6350   -2.1200 C.2     1  UNL1        0.0000
     11  C          9.0700    0.4610   -1.6220 C.2     1  UNL1        0.0000
     12  C          8.3580   -0.4710   -2.3750 C.2     1  UNL1        0.0000
@<TRIPOS>BOND
     1    12    10    2
     2    12    11    1
     3    10     8    1
     4    11     9    2
     5     8     7    2
     6     9     7    1
     7     7     6    1
     8     6     1    1
     9     1     2    1
    10     2     3    2
    11     2     4    1
    12     4     5    1
