@<TRIPOS>MOLECULE
/home/cewinharhar/GITHUB/reincatalyze/data/processed/docking_pred/2023-Apr-25-2140_maxeplen10_maxtrainstep200_exh16_gamma099_lrac3e-4_lrcr1e-3/8a11bcf53d23875e79cb17a52aa7b3de0dc85e7d_ligand_2.pdbqt
 12 12 0 0 0
SMALL
GASTEIGER

@<TRIPOS>ATOM
      1  C          5.4090    2.8690    0.0380 C.3     1  UNL1        0.1270
      2  C          6.1960    3.8160    0.8710 C.2     1  UNL1        0.3030
      3  O          6.2020    3.8050    2.1290 O.2     1  UNL1       -0.2520
      4  O          6.9760    4.7750    0.2420 O.3     1  UNL1       -0.4810
      5  H          7.4470    5.4430    0.8560 H       1  UNL1        0.2960
      6  C          4.8800    1.7630    0.9030 C.3     1  UNL1        0.0470
      7  C          5.7070    0.5590    0.9170 C.2     1  UNL1       -0.0470
      8  C          6.4330    0.1180   -0.1620 C.2     1  UNL1        0.0040
      9  C          5.7720   -0.1860    2.0680 C.2     1  UNL1        0.0040
     10  C          7.2060   -1.0180   -0.1320 C.2     1  UNL1        0.0000
     11  C          6.5350   -1.3290    2.1330 C.2     1  UNL1        0.0000
     12  C          7.2660   -1.7610    1.0280 C.2     1  UNL1        0.0000
@<TRIPOS>BOND
     1     8    10    1
     2     8     7    2
     3    10    12    2
     4     1     2    1
     5     1     6    1
     6     4     5    1
     7     4     2    1
     8     2     3    2
     9     6     7    1
    10     7     9    1
    11    12    11    1
    12     9    11    2
