MODEL 1
REMARK VINA RESULT:      -7.4      0.000      0.000
REMARK SMILES O=C(O)CCc1ccccc1
REMARK SMILES IDX 4 1 2 2 1 3 3 4 5 6 6 7 7 8 11 9 8 10 10 11 9 12
REMARK H PARENT 3 5
REMARK Flexibility Score: inf
ROOT
ATOM      1  C   UNL     1       8.494  -0.588  -2.182  1.00  0.00     0.127 C 
ENDROOT
BRANCH   1   2
ATOM      2  C   UNL     1       8.538  -1.887  -2.903  1.00  0.00     0.303 C 
ATOM      3  O   UNL     1       9.592  -2.542  -3.104  1.00  0.00    -0.252 OA
BRANCH   2   4
ATOM      4  O   UNL     1       7.355  -2.424  -3.388  1.00  0.00    -0.481 OA
ATOM      5  H   UNL     1       6.950  -3.186  -2.840  1.00  0.00     0.296 HD
ENDBRANCH   2   4
ENDBRANCH   1   2
BRANCH   1   6
ATOM      6  C   UNL     1       7.083  -0.080  -2.152  1.00  0.00     0.047 C 
BRANCH   6   7
ATOM      7  C   UNL     1       6.517   0.051  -0.811  1.00  0.00    -0.047 A 
ATOM      8  C   UNL     1       6.603  -0.923   0.153  1.00  0.00     0.004 A 
ATOM      9  C   UNL     1       5.856   1.208  -0.482  1.00  0.00     0.004 A 
ATOM     10  C   UNL     1       6.064  -0.783   1.410  1.00  0.00     0.000 A 
ATOM     11  C   UNL     1       5.304   1.382   0.766  1.00  0.00     0.000 A 
ATOM     12  C   UNL     1       5.403   0.383   1.733  1.00  0.00     0.000 A 
ENDBRANCH   6   7
ENDBRANCH   1   6
TORSDOF 4
ENDMDL
MODEL 2
REMARK VINA RESULT:      -7.4      0.075      1.426
REMARK SMILES O=C(O)CCc1ccccc1
REMARK SMILES IDX 4 1 2 2 1 3 3 4 5 6 6 7 7 8 11 9 8 10 10 11 9 12
REMARK H PARENT 3 5
REMARK Flexibility Score: inf
ROOT
ATOM      1  C   UNL     1       8.440  -0.587  -2.177  1.00  0.00     0.127 C 
ENDROOT
BRANCH   1   2
ATOM      2  C   UNL     1       8.511  -1.882  -2.903  1.00  0.00     0.303 C 
ATOM      3  O   UNL     1       9.577  -2.519  -3.097  1.00  0.00    -0.252 OA
BRANCH   2   4
ATOM      4  O   UNL     1       7.342  -2.435  -3.404  1.00  0.00    -0.481 OA
ATOM      5  H   UNL     1       7.362  -3.442  -3.579  1.00  0.00     0.296 HD
ENDBRANCH   2   4
ENDBRANCH   1   2
BRANCH   1   6
ATOM      6  C   UNL     1       7.016  -0.113  -2.139  1.00  0.00     0.047 C 
BRANCH   6   7
ATOM      7  C   UNL     1       6.475   0.068  -0.794  1.00  0.00    -0.047 A 
ATOM      8  C   UNL     1       5.835   1.208  -0.375  1.00  0.00     0.004 A 
ATOM      9  C   UNL     1       6.608  -0.952   0.115  1.00  0.00     0.004 A 
ATOM     10  C   UNL     1       5.331   1.361   0.895  1.00  0.00     0.000 A 
ATOM     11  C   UNL     1       6.117  -0.832   1.395  1.00  0.00     0.000 A 
ATOM     12  C   UNL     1       5.468   0.333   1.802  1.00  0.00     0.000 A 
ENDBRANCH   6   7
ENDBRANCH   1   6
TORSDOF 4
ENDMDL
MODEL 3
REMARK VINA RESULT:      -6.7      3.335      5.041
REMARK SMILES O=C(O)CCc1ccccc1
REMARK SMILES IDX 4 1 2 2 1 3 3 4 5 6 6 7 7 8 11 9 8 10 10 11 9 12
REMARK H PARENT 3 5
REMARK Flexibility Score: inf
ROOT
ATOM      1  C   UNL     1       4.992   1.780   0.707  1.00  0.00     0.127 C 
ENDROOT
BRANCH   1   2
ATOM      2  C   UNL     1       4.570   1.044   1.927  1.00  0.00     0.303 C 
ATOM      3  O   UNL     1       5.266   0.162   2.490  1.00  0.00    -0.252 OA
BRANCH   2   4
ATOM      4  O   UNL     1       3.338   1.336   2.493  1.00  0.00    -0.481 OA
ATOM      5  H   UNL     1       3.292   1.296   3.514  1.00  0.00     0.296 HD
ENDBRANCH   2   4
ENDBRANCH   1   2
BRANCH   1   6
ATOM      6  C   UNL     1       6.490   1.855   0.663  1.00  0.00     0.047 C 
BRANCH   6   7
ATOM      7  C   UNL     1       7.104   1.044  -0.386  1.00  0.00    -0.047 A 
ATOM      8  C   UNL     1       6.420   0.120  -1.137  1.00  0.00     0.004 A 
ATOM      9  C   UNL     1       8.443   1.201  -0.646  1.00  0.00     0.004 A 
ATOM     10  C   UNL     1       7.014  -0.635  -2.120  1.00  0.00     0.000 A 
ATOM     11  C   UNL     1       9.070   0.461  -1.622  1.00  0.00     0.000 A 
ATOM     12  C   UNL     1       8.358  -0.471  -2.375  1.00  0.00     0.000 A 
ENDBRANCH   6   7
ENDBRANCH   1   6
TORSDOF 4
ENDMDL
MODEL 4
REMARK VINA RESULT:      -6.7      3.834      5.019
REMARK SMILES O=C(O)CCc1ccccc1
REMARK SMILES IDX 4 1 2 2 1 3 3 4 5 6 6 7 7 8 11 9 8 10 10 11 9 12
REMARK H PARENT 3 5
REMARK Flexibility Score: inf
ROOT
ATOM      1  C   UNL     1       5.409   2.869   0.038  1.00  0.00     0.127 C 
ENDROOT
BRANCH   1   2
ATOM      2  C   UNL     1       6.196   3.816   0.871  1.00  0.00     0.303 C 
ATOM      3  O   UNL     1       6.202   3.805   2.129  1.00  0.00    -0.252 OA
BRANCH   2   4
ATOM      4  O   UNL     1       6.976   4.775   0.242  1.00  0.00    -0.481 OA
ATOM      5  H   UNL     1       7.447   5.443   0.856  1.00  0.00     0.296 HD
ENDBRANCH   2   4
ENDBRANCH   1   2
BRANCH   1   6
ATOM      6  C   UNL     1       4.880   1.763   0.903  1.00  0.00     0.047 C 
BRANCH   6   7
ATOM      7  C   UNL     1       5.707   0.559   0.917  1.00  0.00    -0.047 A 
ATOM      8  C   UNL     1       6.433   0.118  -0.162  1.00  0.00     0.004 A 
ATOM      9  C   UNL     1       5.772  -0.186   2.068  1.00  0.00     0.004 A 
ATOM     10  C   UNL     1       7.206  -1.018  -0.132  1.00  0.00     0.000 A 
ATOM     11  C   UNL     1       6.535  -1.329   2.133  1.00  0.00     0.000 A 
ATOM     12  C   UNL     1       7.266  -1.761   1.028  1.00  0.00     0.000 A 
ENDBRANCH   6   7
ENDBRANCH   1   6
TORSDOF 4
ENDMDL
MODEL 5
REMARK VINA RESULT:      -6.7      1.929      2.280
REMARK SMILES O=C(O)CCc1ccccc1
REMARK SMILES IDX 4 1 2 2 1 3 3 4 5 6 6 7 7 8 11 9 8 10 10 11 9 12
REMARK H PARENT 3 5
REMARK Flexibility Score: inf
ROOT
ATOM      1  C   UNL     1       8.265   0.231  -2.229  1.00  0.00     0.127 C 
ENDROOT
BRANCH   1   2
ATOM      2  C   UNL     1       9.371   0.338  -1.241  1.00  0.00     0.303 C 
ATOM      3  O   UNL     1       9.471  -0.388  -0.220  1.00  0.00    -0.252 OA
BRANCH   2   4
ATOM      4  O   UNL     1      10.359   1.289  -1.442  1.00  0.00    -0.481 OA
ATOM      5  H   UNL     1      11.263   0.936  -1.764  1.00  0.00     0.296 HD
ENDBRANCH   2   4
ENDBRANCH   1   2
BRANCH   1   6
ATOM      6  C   UNL     1       7.115  -0.511  -1.613  1.00  0.00     0.047 C 
BRANCH   6   7
ATOM      7  C   UNL     1       6.354   0.261  -0.633  1.00  0.00    -0.047 A 
ATOM      8  C   UNL     1       6.115  -0.160   0.652  1.00  0.00     0.004 A 
ATOM      9  C   UNL     1       5.841   1.479  -1.004  1.00  0.00     0.004 A 
ATOM     10  C   UNL     1       5.396   0.579   1.561  1.00  0.00     0.000 A 
ATOM     11  C   UNL     1       5.117   2.245  -0.120  1.00  0.00     0.000 A 
ATOM     12  C   UNL     1       4.884   1.801   1.181  1.00  0.00     0.000 A 
ENDBRANCH   6   7
ENDBRANCH   1   6
TORSDOF 4
ENDMDL
