@<TRIPOS>MOLECULE
/home/cewinharhar/GITHUB/reincatalyze/data/processed/docking_pred/2023-Apr-25-2140_maxeplen10_maxtrainstep200_exh16_gamma099_lrac3e-4_lrcr1e-3/8a11bcf53d23875e79cb17a52aa7b3de0dc85e7d_ligand_2.pdbqt
 12 12 0 0 0
SMALL
GASTEIGER

@<TRIPOS>ATOM
      1  C          8.2650    0.2310   -2.2290 C.3     1  UNL1        0.1270
      2  C          9.3710    0.3380   -1.2410 C.2     1  UNL1        0.3030
      3  O          9.4710   -0.3880   -0.2200 O.2     1  UNL1       -0.2520
      4  O         10.3590    1.2890   -1.4420 O.3     1  UNL1       -0.4810
      5  H         11.2630    0.9360   -1.7640 H       1  UNL1        0.2960
      6  C          7.1150   -0.5110   -1.6130 C.3     1  UNL1        0.0470
      7  C          6.3540    0.2610   -0.6330 C.2     1  UNL1       -0.0470
      8  C          6.1150   -0.1600    0.6520 C.2     1  UNL1        0.0040
      9  C          5.8410    1.4790   -1.0040 C.2     1  UNL1        0.0040
     10  C          5.3960    0.5790    1.5610 C.2     1  UNL1        0.0000
     11  C          5.1170    2.2450   -0.1200 C.2     1  UNL1        0.0000
     12  C          4.8840    1.8010    1.1810 C.2     1  UNL1        0.0000
@<TRIPOS>BOND
     1     1     6    1
     2     1     2    1
     3     5     4    1
     4     6     7    1
     5     4     2    1
     6     2     3    2
     7     9     7    2
     8     9    11    1
     9     7     8    1
    10    11    12    2
    11     8    10    2
    12    12    10    1
