@<TRIPOS>MOLECULE
/home/cewinharhar/GITHUB/reincatalyze/data/processed/docking_pred/2023-Apr-25-2140_maxeplen10_maxtrainstep200_exh16_gamma099_lrac3e-4_lrcr1e-3/8a11bcf53d23875e79cb17a52aa7b3de0dc85e7d_ligand_2.pdbqt
 12 12 0 0 0
SMALL
GASTEIGER

@<TRIPOS>ATOM
      1  C          8.4400   -0.5870   -2.1770 C.3     1  UNL1        0.1270
      2  C          8.5110   -1.8820   -2.9030 C.2     1  UNL1        0.3030
      3  O          9.5770   -2.5190   -3.0970 O.2     1  UNL1       -0.2520
      4  O          7.3420   -2.4350   -3.4040 O.3     1  UNL1       -0.4810
      5  H          7.3620   -3.4420   -3.5790 H       1  UNL1        0.2960
      6  C          7.0160   -0.1130   -2.1390 C.3     1  UNL1        0.0470
      7  C          6.4750    0.0680   -0.7940 C.2     1  UNL1       -0.0470
      8  C          5.8350    1.2080   -0.3750 C.2     1  UNL1        0.0040
      9  C          6.6080   -0.9520    0.1150 C.2     1  UNL1        0.0040
     10  C          5.3310    1.3610    0.8950 C.2     1  UNL1        0.0000
     11  C          6.1170   -0.8320    1.3950 C.2     1  UNL1        0.0000
     12  C          5.4680    0.3330    1.8020 C.2     1  UNL1        0.0000
@<TRIPOS>BOND
     1     5     4    1
     2     4     2    1
     3     3     2    2
     4     2     1    1
     5     1     6    1
     6     6     7    1
     7     7     8    2
     8     7     9    1
     9     8    10    1
    10     9    11    2
    11    10    12    2
    12    11    12    1
