@<TRIPOS>MOLECULE
/home/cewinharhar/GITHUB/reincatalyze/data/processed/docking_pred/2023-Apr-25-2140_maxeplen10_maxtrainstep200_exh16_gamma099_lrac3e-4_lrcr1e-3/8a11bcf53d23875e79cb17a52aa7b3de0dc85e7d_ligand_2.pdbqt
 12 12 0 0 0
SMALL
GASTEIGER

@<TRIPOS>ATOM
      1  C          8.4940   -0.5880   -2.1820 C.3     1  UNL1        0.1270
      2  C          8.5380   -1.8870   -2.9030 C.2     1  UNL1        0.3030
      3  O          9.5920   -2.5420   -3.1040 O.2     1  UNL1       -0.2520
      4  O          7.3550   -2.4240   -3.3880 O.3     1  UNL1       -0.4810
      5  H          6.9500   -3.1860   -2.8400 H       1  UNL1        0.2960
      6  C          7.0830   -0.0800   -2.1520 C.3     1  UNL1        0.0470
      7  C          6.5170    0.0510   -0.8110 C.2     1  UNL1       -0.0470
      8  C          6.6030   -0.9230    0.1530 C.2     1  UNL1        0.0040
      9  C          5.8560    1.2080   -0.4820 C.2     1  UNL1        0.0040
     10  C          6.0640   -0.7830    1.4100 C.2     1  UNL1        0.0000
     11  C          5.3040    1.3820    0.7660 C.2     1  UNL1        0.0000
     12  C          5.4030    0.3830    1.7330 C.2     1  UNL1        0.0000
@<TRIPOS>BOND
     1     4     2    1
     2     4     5    1
     3     3     2    2
     4     2     1    1
     5     1     6    1
     6     6     7    1
     7     7     9    2
     8     7     8    1
     9     9    11    1
    10     8    10    2
    11    11    12    2
    12    10    12    1
