@<TRIPOS>MOLECULE
/home/cewinharhar/GITHUB/reincatalyze/data/processed/docking_pred/2023-Apr-25-2140_maxeplen10_maxtrainstep200_exh16_gamma099_lrac3e-4_lrcr1e-3/8c75984685002de52dc1feb6518b36ce8b766619_ligand_2.pdbqt
 12 12 0 0 0
SMALL
GASTEIGER

@<TRIPOS>ATOM
      1  C          5.0370    1.7560    0.7110 C.3     1  UNL1        0.1270
      2  C          4.6010    1.0280    1.9310 C.2     1  UNL1        0.3030
      3  O          5.2910    0.1490    2.5080 O.2     1  UNL1       -0.2520
      4  O          3.3620    1.3230    2.4810 O.3     1  UNL1       -0.4810
      5  H          2.7730    0.5200    2.7150 H       1  UNL1        0.2960
      6  C          6.5360    1.8110    0.6720 C.3     1  UNL1        0.0470
      7  C          7.1430    1.0100   -0.3880 C.2     1  UNL1       -0.0470
      8  C          6.4610    0.0700   -1.1200 C.2     1  UNL1        0.0040
      9  C          8.4710    1.1960   -0.6810 C.2     1  UNL1        0.0040
     10  C          7.0480   -0.6760   -2.1150 C.2     1  UNL1        0.0000
     11  C          9.0910    0.4660   -1.6700 C.2     1  UNL1        0.0000
     12  C          8.3820   -0.4840   -2.4030 C.2     1  UNL1        0.0000
@<TRIPOS>BOND
     1    12    10    2
     2    12    11    1
     3    10     8    1
     4    11     9    2
     5     8     7    2
     6     9     7    1
     7     7     6    1
     8     6     1    1
     9     1     2    1
    10     2     4    1
    11     2     3    2
    12     4     5    1
