MODEL 1
REMARK VINA RESULT:      -7.1      0.000      0.000
REMARK SMILES O=C(O)CCc1ccccc1
REMARK SMILES IDX 4 1 2 2 1 3 3 4 5 6 6 7 7 8 11 9 8 10 10 11 9 12
REMARK H PARENT 3 5
REMARK Flexibility Score: inf
ROOT
ATOM      1  C   UNL     1       8.434  -0.593  -2.164  1.00  0.00     0.127 C 
ENDROOT
BRANCH   1   2
ATOM      2  C   UNL     1       8.514  -1.885  -2.895  1.00  0.00     0.303 C 
ATOM      3  O   UNL     1       9.586  -2.508  -3.102  1.00  0.00    -0.252 OA
BRANCH   2   4
ATOM      4  O   UNL     1       7.347  -2.452  -3.384  1.00  0.00    -0.481 OA
ATOM      5  H   UNL     1       6.632  -1.797  -3.709  1.00  0.00     0.296 HD
ENDBRANCH   2   4
ENDBRANCH   1   2
BRANCH   1   6
ATOM      6  C   UNL     1       7.013  -0.109  -2.160  1.00  0.00     0.047 C 
BRANCH   6   7
ATOM      7  C   UNL     1       6.453   0.107  -0.828  1.00  0.00    -0.047 A 
ATOM      8  C   UNL     1       5.825   1.266  -0.443  1.00  0.00     0.004 A 
ATOM      9  C   UNL     1       6.554  -0.896   0.104  1.00  0.00     0.004 A 
ATOM     10  C   UNL     1       5.303   1.453   0.815  1.00  0.00     0.000 A 
ATOM     11  C   UNL     1       6.044  -0.742   1.372  1.00  0.00     0.000 A 
ATOM     12  C   UNL     1       5.408   0.441   1.745  1.00  0.00     0.000 A 
ENDBRANCH   6   7
ENDBRANCH   1   6
TORSDOF 4
ENDMDL
MODEL 2
REMARK VINA RESULT:      -7.0      0.650      1.587
REMARK SMILES O=C(O)CCc1ccccc1
REMARK SMILES IDX 4 1 2 2 1 3 3 4 5 6 6 7 7 8 11 9 8 10 10 11 9 12
REMARK H PARENT 3 5
REMARK Flexibility Score: inf
ROOT
ATOM      1  C   UNL     1       8.290  -0.993  -1.757  1.00  0.00     0.127 C 
ENDROOT
BRANCH   1   2
ATOM      2  C   UNL     1       8.462  -2.016  -2.820  1.00  0.00     0.303 C 
ATOM      3  O   UNL     1       9.574  -2.493  -3.162  1.00  0.00    -0.252 OA
BRANCH   2   4
ATOM      4  O   UNL     1       7.340  -2.486  -3.487  1.00  0.00    -0.481 OA
ATOM      5  H   UNL     1       7.060  -3.445  -3.272  1.00  0.00     0.296 HD
ENDBRANCH   2   4
ENDBRANCH   1   2
BRANCH   1   6
ATOM      6  C   UNL     1       7.235  -1.448  -0.791  1.00  0.00     0.047 C 
BRANCH   6   7
ATOM      7  C   UNL     1       6.477  -0.364  -0.171  1.00  0.00    -0.047 A 
ATOM      8  C   UNL     1       6.033  -0.389   1.129  1.00  0.00     0.004 A 
ATOM      9  C   UNL     1       6.182   0.750  -0.917  1.00  0.00     0.004 A 
ATOM     10  C   UNL     1       5.320   0.639   1.697  1.00  0.00     0.000 A 
ATOM     11  C   UNL     1       5.469   1.797  -0.380  1.00  0.00     0.000 A 
ATOM     12  C   UNL     1       5.028   1.755   0.942  1.00  0.00     0.000 A 
ENDBRANCH   6   7
ENDBRANCH   1   6
TORSDOF 4
ENDMDL
MODEL 3
REMARK VINA RESULT:      -6.5      3.332      5.058
REMARK SMILES O=C(O)CCc1ccccc1
REMARK SMILES IDX 4 1 2 2 1 3 3 4 5 6 6 7 7 8 11 9 8 10 10 11 9 12
REMARK H PARENT 3 5
REMARK Flexibility Score: inf
ROOT
ATOM      1  C   UNL     1       5.037   1.756   0.711  1.00  0.00     0.127 C 
ENDROOT
BRANCH   1   2
ATOM      2  C   UNL     1       4.601   1.028   1.931  1.00  0.00     0.303 C 
ATOM      3  O   UNL     1       5.291   0.149   2.508  1.00  0.00    -0.252 OA
BRANCH   2   4
ATOM      4  O   UNL     1       3.362   1.323   2.481  1.00  0.00    -0.481 OA
ATOM      5  H   UNL     1       2.773   0.520   2.715  1.00  0.00     0.296 HD
ENDBRANCH   2   4
ENDBRANCH   1   2
BRANCH   1   6
ATOM      6  C   UNL     1       6.536   1.811   0.672  1.00  0.00     0.047 C 
BRANCH   6   7
ATOM      7  C   UNL     1       7.143   1.010  -0.388  1.00  0.00    -0.047 A 
ATOM      8  C   UNL     1       6.461   0.070  -1.120  1.00  0.00     0.004 A 
ATOM      9  C   UNL     1       8.471   1.196  -0.681  1.00  0.00     0.004 A 
ATOM     10  C   UNL     1       7.048  -0.676  -2.115  1.00  0.00     0.000 A 
ATOM     11  C   UNL     1       9.091   0.466  -1.670  1.00  0.00     0.000 A 
ATOM     12  C   UNL     1       8.382  -0.484  -2.403  1.00  0.00     0.000 A 
ENDBRANCH   6   7
ENDBRANCH   1   6
TORSDOF 4
ENDMDL
MODEL 4
REMARK VINA RESULT:      -6.5      2.462      3.632
REMARK SMILES O=C(O)CCc1ccccc1
REMARK SMILES IDX 4 1 2 2 1 3 3 4 5 6 6 7 7 8 11 9 8 10 10 11 9 12
REMARK H PARENT 3 5
REMARK Flexibility Score: inf
ROOT
ATOM      1  C   UNL     1       8.152  -1.410   2.620  1.00  0.00     0.127 C 
ENDROOT
BRANCH   1   2
ATOM      2  C   UNL     1       9.198  -2.170   1.887  1.00  0.00     0.303 C 
ATOM      3  O   UNL     1      10.429  -1.935   1.980  1.00  0.00    -0.252 OA
BRANCH   2   4
ATOM      4  O   UNL     1       8.812  -3.204   1.048  1.00  0.00    -0.481 OA
ATOM      5  H   UNL     1       9.568  -3.774   0.661  1.00  0.00     0.296 HD
ENDBRANCH   2   4
ENDBRANCH   1   2
BRANCH   1   6
ATOM      6  C   UNL     1       6.822  -1.625   1.957  1.00  0.00     0.047 C 
BRANCH   6   7
ATOM      7  C   UNL     1       6.362  -0.499   1.148  1.00  0.00    -0.047 A 
ATOM      8  C   UNL     1       6.684  -0.328  -0.176  1.00  0.00     0.004 A 
ATOM      9  C   UNL     1       5.560   0.451   1.730  1.00  0.00     0.004 A 
ATOM     10  C   UNL     1       6.242   0.738  -0.923  1.00  0.00     0.000 A 
ATOM     11  C   UNL     1       5.101   1.531   1.012  1.00  0.00     0.000 A 
ATOM     12  C   UNL     1       5.438   1.688  -0.331  1.00  0.00     0.000 A 
ENDBRANCH   6   7
ENDBRANCH   1   6
TORSDOF 4
ENDMDL
MODEL 5
REMARK VINA RESULT:      -6.5      2.342      3.413
REMARK SMILES O=C(O)CCc1ccccc1
REMARK SMILES IDX 4 1 2 2 1 3 3 4 5 6 6 7 7 8 11 9 8 10 10 11 9 12
REMARK H PARENT 3 5
REMARK Flexibility Score: inf
ROOT
ATOM      1  C   UNL     1       7.891  -1.547   2.390  1.00  0.00     0.127 C 
ENDROOT
BRANCH   1   2
ATOM      2  C   UNL     1       8.861  -2.401   1.656  1.00  0.00     0.303 C 
ATOM      3  O   UNL     1      10.096  -2.418   1.888  1.00  0.00    -0.252 OA
BRANCH   2   4
ATOM      4  O   UNL     1       8.393  -3.237   0.653  1.00  0.00    -0.481 OA
ATOM      5  H   UNL     1       7.384  -3.399   0.638  1.00  0.00     0.296 HD
ENDBRANCH   2   4
ENDBRANCH   1   2
BRANCH   1   6
ATOM      6  C   UNL     1       6.549  -1.629   1.723  1.00  0.00     0.047 C 
BRANCH   6   7
ATOM      7  C   UNL     1       6.140  -0.405   1.038  1.00  0.00    -0.047 A 
ATOM      8  C   UNL     1       5.388   0.584   1.623  1.00  0.00     0.004 A 
ATOM      9  C   UNL     1       6.520  -0.219  -0.268  1.00  0.00     0.004 A 
ATOM     10  C   UNL     1       5.011   1.729   0.963  1.00  0.00     0.000 A 
ATOM     11  C   UNL     1       6.161   0.915  -0.959  1.00  0.00     0.000 A 
ATOM     12  C   UNL     1       5.397   1.909  -0.348  1.00  0.00     0.000 A 
ENDBRANCH   6   7
ENDBRANCH   1   6
TORSDOF 4
ENDMDL
