@<TRIPOS>MOLECULE
/home/cewinharhar/GITHUB/reincatalyze/data/processed/docking_pred/2023-Apr-25-2140_maxeplen10_maxtrainstep200_exh16_gamma099_lrac3e-4_lrcr1e-3/8c75984685002de52dc1feb6518b36ce8b766619_ligand_2.pdbqt
 12 12 0 0 0
SMALL
GASTEIGER

@<TRIPOS>ATOM
      1  C          8.4340   -0.5930   -2.1640 C.3     1  UNL1        0.1270
      2  C          8.5140   -1.8850   -2.8950 C.2     1  UNL1        0.3030
      3  O          9.5860   -2.5080   -3.1020 O.2     1  UNL1       -0.2520
      4  O          7.3470   -2.4520   -3.3840 O.3     1  UNL1       -0.4810
      5  H          6.6320   -1.7970   -3.7090 H       1  UNL1        0.2960
      6  C          7.0130   -0.1090   -2.1600 C.3     1  UNL1        0.0470
      7  C          6.4530    0.1070   -0.8280 C.2     1  UNL1       -0.0470
      8  C          5.8250    1.2660   -0.4430 C.2     1  UNL1        0.0040
      9  C          6.5540   -0.8960    0.1040 C.2     1  UNL1        0.0040
     10  C          5.3030    1.4530    0.8150 C.2     1  UNL1        0.0000
     11  C          6.0440   -0.7420    1.3720 C.2     1  UNL1        0.0000
     12  C          5.4080    0.4410    1.7450 C.2     1  UNL1        0.0000
@<TRIPOS>BOND
     1     5     4    1
     2     4     2    1
     3     3     2    2
     4     2     1    1
     5     1     6    1
     6     6     7    1
     7     7     8    2
     8     7     9    1
     9     8    10    1
    10     9    11    2
    11    10    12    2
    12    11    12    1
