@<TRIPOS>MOLECULE
/home/cewinharhar/GITHUB/reincatalyze/data/processed/docking_pred/2023-Apr-25-2140_maxeplen10_maxtrainstep200_exh16_gamma099_lrac3e-4_lrcr1e-3/8c75984685002de52dc1feb6518b36ce8b766619_ligand_2.pdbqt
 12 12 0 0 0
SMALL
GASTEIGER

@<TRIPOS>ATOM
      1  C          8.2900   -0.9930   -1.7570 C.3     1  UNL1        0.1270
      2  C          8.4620   -2.0160   -2.8200 C.2     1  UNL1        0.3030
      3  O          9.5740   -2.4930   -3.1620 O.2     1  UNL1       -0.2520
      4  O          7.3400   -2.4860   -3.4870 O.3     1  UNL1       -0.4810
      5  H          7.0600   -3.4450   -3.2720 H       1  UNL1        0.2960
      6  C          7.2350   -1.4480   -0.7910 C.3     1  UNL1        0.0470
      7  C          6.4770   -0.3640   -0.1710 C.2     1  UNL1       -0.0470
      8  C          6.0330   -0.3890    1.1290 C.2     1  UNL1        0.0040
      9  C          6.1820    0.7500   -0.9170 C.2     1  UNL1        0.0040
     10  C          5.3200    0.6390    1.6970 C.2     1  UNL1        0.0000
     11  C          5.4690    1.7970   -0.3800 C.2     1  UNL1        0.0000
     12  C          5.0280    1.7550    0.9420 C.2     1  UNL1        0.0000
@<TRIPOS>BOND
     1     4     5    1
     2     4     2    1
     3     3     2    2
     4     2     1    1
     5     1     6    1
     6     9    11    1
     7     9     7    2
     8     6     7    1
     9    11    12    2
    10     7     8    1
    11    12    10    1
    12     8    10    2
