@<TRIPOS>MOLECULE
/home/cewinharhar/GITHUB/reincatalyze/data/processed/docking_pred/2023-Apr-25-2140_maxeplen10_maxtrainstep200_exh16_gamma099_lrac3e-4_lrcr1e-3/8c75984685002de52dc1feb6518b36ce8b766619_ligand_2.pdbqt
 12 12 0 0 0
SMALL
GASTEIGER

@<TRIPOS>ATOM
      1  C          8.1520   -1.4100    2.6200 C.3     1  UNL1        0.1270
      2  C          9.1980   -2.1700    1.8870 C.2     1  UNL1        0.3030
      3  O         10.4290   -1.9350    1.9800 O.2     1  UNL1       -0.2520
      4  O          8.8120   -3.2040    1.0480 O.3     1  UNL1       -0.4810
      5  H          9.5680   -3.7740    0.6610 H       1  UNL1        0.2960
      6  C          6.8220   -1.6250    1.9570 C.3     1  UNL1        0.0470
      7  C          6.3620   -0.4990    1.1480 C.2     1  UNL1       -0.0470
      8  C          6.6840   -0.3280   -0.1760 C.2     1  UNL1        0.0040
      9  C          5.5600    0.4510    1.7300 C.2     1  UNL1        0.0040
     10  C          6.2420    0.7380   -0.9230 C.2     1  UNL1        0.0000
     11  C          5.1010    1.5310    1.0120 C.2     1  UNL1        0.0000
     12  C          5.4380    1.6880   -0.3310 C.2     1  UNL1        0.0000
@<TRIPOS>BOND
     1    10    12    2
     2    10     8    1
     3    12    11    1
     4     8     7    2
     5     5     4    1
     6    11     9    2
     7     4     2    1
     8     7     9    1
     9     7     6    1
    10     2     3    2
    11     2     1    1
    12     6     1    1
