@<TRIPOS>MOLECULE
/home/cewinharhar/GITHUB/reincatalyze/data/processed/docking_pred/2023-Apr-25-2140_maxeplen10_maxtrainstep200_exh16_gamma099_lrac3e-4_lrcr1e-3/8c75984685002de52dc1feb6518b36ce8b766619_ligand_2.pdbqt
 12 12 0 0 0
SMALL
GASTEIGER

@<TRIPOS>ATOM
      1  C          7.8910   -1.5470    2.3900 C.3     1  UNL1        0.1270
      2  C          8.8610   -2.4010    1.6560 C.2     1  UNL1        0.3030
      3  O         10.0960   -2.4180    1.8880 O.2     1  UNL1       -0.2520
      4  O          8.3930   -3.2370    0.6530 O.3     1  UNL1       -0.4810
      5  H          7.3840   -3.3990    0.6380 H       1  UNL1        0.2960
      6  C          6.5490   -1.6290    1.7230 C.3     1  UNL1        0.0470
      7  C          6.1400   -0.4050    1.0380 C.2     1  UNL1       -0.0470
      8  C          5.3880    0.5840    1.6230 C.2     1  UNL1        0.0040
      9  C          6.5200   -0.2190   -0.2680 C.2     1  UNL1        0.0040
     10  C          5.0110    1.7290    0.9630 C.2     1  UNL1        0.0000
     11  C          6.1610    0.9150   -0.9590 C.2     1  UNL1        0.0000
     12  C          5.3970    1.9090   -0.3480 C.2     1  UNL1        0.0000
@<TRIPOS>BOND
     1    11    12    2
     2    11     9    1
     3    12    10    1
     4     9     7    2
     5     5     4    1
     6     4     2    1
     7    10     8    2
     8     7     8    1
     9     7     6    1
    10     2     3    2
    11     2     1    1
    12     6     1    1
