@<TRIPOS>MOLECULE
/home/cewinharhar/GITHUB/reincatalyze/data/processed/docking_pred/2023-Apr-25-2140_maxeplen10_maxtrainstep200_exh16_gamma099_lrac3e-4_lrcr1e-3/8f258178c278a1f8efc989ef7d8625b520fa90c8_ligand_2.pdbqt
 12 12 0 0 0
SMALL
GASTEIGER

@<TRIPOS>ATOM
      1  C          5.0060    1.7480    0.6800 C.3     1  UNL1        0.1270
      2  C          4.5960    1.0330    1.9170 C.2     1  UNL1        0.3030
      3  O          5.3030    0.1690    2.4950 O.2     1  UNL1       -0.2520
      4  O          3.3630    1.3220    2.4810 O.3     1  UNL1       -0.4810
      5  H          3.3800    1.9030    3.3230 H       1  UNL1        0.2960
      6  C          6.4990    1.8890    0.6570 C.3     1  UNL1        0.0470
      7  C          7.1650    1.1020   -0.3790 C.2     1  UNL1       -0.0470
      8  C          8.5080    1.1780   -0.6510 C.2     1  UNL1        0.0040
      9  C          6.4160    0.2330   -1.1330 C.2     1  UNL1        0.0040
     10  C          9.1180    0.4300   -1.6300 C.2     1  UNL1        0.0000
     11  C          6.9940   -0.5300   -2.1210 C.2     1  UNL1        0.0000
     12  C          8.3600   -0.4410   -2.3830 C.2     1  UNL1        0.0000
@<TRIPOS>BOND
     1    12    11    2
     2    12    10    1
     3    11     9    1
     4    10     8    2
     5     9     7    2
     6     8     7    1
     7     7     6    1
     8     6     1    1
     9     1     2    1
    10     2     4    1
    11     2     3    2
    12     4     5    1
