MODEL 1
REMARK VINA RESULT:      -7.4      0.000      0.000
REMARK SMILES O=C(O)CCc1ccccc1
REMARK SMILES IDX 4 1 2 2 1 3 3 4 5 6 6 7 7 8 11 9 8 10 10 11 9 12
REMARK H PARENT 3 5
REMARK Flexibility Score: inf
ROOT
ATOM      1  C   UNL     1       8.442  -0.594  -2.197  1.00  0.00     0.127 C 
ENDROOT
BRANCH   1   2
ATOM      2  C   UNL     1       8.503  -1.886  -2.928  1.00  0.00     0.303 C 
ATOM      3  O   UNL     1       9.561  -2.539  -3.113  1.00  0.00    -0.252 OA
BRANCH   2   4
ATOM      4  O   UNL     1       7.331  -2.420  -3.445  1.00  0.00    -0.481 OA
ATOM      5  H   UNL     1       7.092  -2.138  -4.398  1.00  0.00     0.296 HD
ENDBRANCH   2   4
ENDBRANCH   1   2
BRANCH   1   6
ATOM      6  C   UNL     1       7.024  -0.106  -2.162  1.00  0.00     0.047 C 
BRANCH   6   7
ATOM      7  C   UNL     1       6.481   0.079  -0.818  1.00  0.00    -0.047 A 
ATOM      8  C   UNL     1       5.837   1.218  -0.404  1.00  0.00     0.004 A 
ATOM      9  C   UNL     1       6.615  -0.937   0.095  1.00  0.00     0.004 A 
ATOM     10  C   UNL     1       5.332   1.375   0.865  1.00  0.00     0.000 A 
ATOM     11  C   UNL     1       6.123  -0.814   1.374  1.00  0.00     0.000 A 
ATOM     12  C   UNL     1       5.472   0.351   1.777  1.00  0.00     0.000 A 
ENDBRANCH   6   7
ENDBRANCH   1   6
TORSDOF 4
ENDMDL
MODEL 2
REMARK VINA RESULT:      -7.4      0.050      1.426
REMARK SMILES O=C(O)CCc1ccccc1
REMARK SMILES IDX 4 1 2 2 1 3 3 4 5 6 6 7 7 8 11 9 8 10 10 11 9 12
REMARK H PARENT 3 5
REMARK Flexibility Score: inf
ROOT
ATOM      1  C   UNL     1       8.434  -0.576  -2.226  1.00  0.00     0.127 C 
ENDROOT
BRANCH   1   2
ATOM      2  C   UNL     1       8.501  -1.888  -2.920  1.00  0.00     0.303 C 
ATOM      3  O   UNL     1       9.566  -2.531  -3.103  1.00  0.00    -0.252 OA
BRANCH   2   4
ATOM      4  O   UNL     1       7.330  -2.453  -3.402  1.00  0.00    -0.481 OA
ATOM      5  H   UNL     1       7.400  -3.419  -3.730  1.00  0.00     0.296 HD
ENDBRANCH   2   4
ENDBRANCH   1   2
BRANCH   1   6
ATOM      6  C   UNL     1       7.005  -0.124  -2.150  1.00  0.00     0.047 C 
BRANCH   6   7
ATOM      7  C   UNL     1       6.486   0.011  -0.791  1.00  0.00    -0.047 A 
ATOM      8  C   UNL     1       6.591  -0.967   0.168  1.00  0.00     0.004 A 
ATOM      9  C   UNL     1       5.854   1.176  -0.436  1.00  0.00     0.004 A 
ATOM     10  C   UNL     1       6.096  -0.823   1.442  1.00  0.00     0.000 A 
ATOM     11  C   UNL     1       5.346   1.354   0.830  1.00  0.00     0.000 A 
ATOM     12  C   UNL     1       5.463   0.350   1.791  1.00  0.00     0.000 A 
ENDBRANCH   6   7
ENDBRANCH   1   6
TORSDOF 4
ENDMDL
MODEL 3
REMARK VINA RESULT:      -6.8      3.350      5.040
REMARK SMILES O=C(O)CCc1ccccc1
REMARK SMILES IDX 4 1 2 2 1 3 3 4 5 6 6 7 7 8 11 9 8 10 10 11 9 12
REMARK H PARENT 3 5
REMARK Flexibility Score: inf
ROOT
ATOM      1  C   UNL     1       5.006   1.748   0.680  1.00  0.00     0.127 C 
ENDROOT
BRANCH   1   2
ATOM      2  C   UNL     1       4.596   1.033   1.917  1.00  0.00     0.303 C 
ATOM      3  O   UNL     1       5.303   0.169   2.495  1.00  0.00    -0.252 OA
BRANCH   2   4
ATOM      4  O   UNL     1       3.363   1.322   2.481  1.00  0.00    -0.481 OA
ATOM      5  H   UNL     1       3.380   1.903   3.323  1.00  0.00     0.296 HD
ENDBRANCH   2   4
ENDBRANCH   1   2
BRANCH   1   6
ATOM      6  C   UNL     1       6.499   1.889   0.657  1.00  0.00     0.047 C 
BRANCH   6   7
ATOM      7  C   UNL     1       7.165   1.102  -0.379  1.00  0.00    -0.047 A 
ATOM      8  C   UNL     1       8.508   1.178  -0.651  1.00  0.00     0.004 A 
ATOM      9  C   UNL     1       6.416   0.233  -1.133  1.00  0.00     0.004 A 
ATOM     10  C   UNL     1       9.118   0.430  -1.630  1.00  0.00     0.000 A 
ATOM     11  C   UNL     1       6.994  -0.530  -2.121  1.00  0.00     0.000 A 
ATOM     12  C   UNL     1       8.360  -0.441  -2.383  1.00  0.00     0.000 A 
ENDBRANCH   6   7
ENDBRANCH   1   6
TORSDOF 4
ENDMDL
MODEL 4
REMARK VINA RESULT:      -6.7      3.840      4.943
REMARK SMILES O=C(O)CCc1ccccc1
REMARK SMILES IDX 4 1 2 2 1 3 3 4 5 6 6 7 7 8 11 9 8 10 10 11 9 12
REMARK H PARENT 3 5
REMARK Flexibility Score: inf
ROOT
ATOM      1  C   UNL     1       5.415   2.882   0.012  1.00  0.00     0.127 C 
ENDROOT
BRANCH   1   2
ATOM      2  C   UNL     1       6.225   3.867   0.775  1.00  0.00     0.303 C 
ATOM      3  O   UNL     1       6.910   4.775   0.240  1.00  0.00    -0.252 OA
BRANCH   2   4
ATOM      4  O   UNL     1       6.238   3.796   2.160  1.00  0.00    -0.481 OA
ATOM      5  H   UNL     1       5.589   3.126   2.580  1.00  0.00     0.296 HD
ENDBRANCH   2   4
ENDBRANCH   1   2
BRANCH   1   6
ATOM      6  C   UNL     1       4.919   1.815   0.943  1.00  0.00     0.047 C 
BRANCH   6   7
ATOM      7  C   UNL     1       5.714   0.589   0.935  1.00  0.00    -0.047 A 
ATOM      8  C   UNL     1       6.422   0.145  -0.155  1.00  0.00     0.004 A 
ATOM      9  C   UNL     1       5.767  -0.175   2.074  1.00  0.00     0.004 A 
ATOM     10  C   UNL     1       7.166  -1.012  -0.146  1.00  0.00     0.000 A 
ATOM     11  C   UNL     1       6.500  -1.338   2.119  1.00  0.00     0.000 A 
ATOM     12  C   UNL     1       7.213  -1.773   1.002  1.00  0.00     0.000 A 
ENDBRANCH   6   7
ENDBRANCH   1   6
TORSDOF 4
ENDMDL
MODEL 5
REMARK VINA RESULT:      -6.6      1.955      2.291
REMARK SMILES O=C(O)CCc1ccccc1
REMARK SMILES IDX 4 1 2 2 1 3 3 4 5 6 6 7 7 8 11 9 8 10 10 11 9 12
REMARK H PARENT 3 5
REMARK Flexibility Score: inf
ROOT
ATOM      1  C   UNL     1       8.238   0.127  -2.144  1.00  0.00     0.127 C 
ENDROOT
BRANCH   1   2
ATOM      2  C   UNL     1       9.354   0.309  -1.180  1.00  0.00     0.303 C 
ATOM      3  O   UNL     1       9.506  -0.386  -0.144  1.00  0.00    -0.252 OA
BRANCH   2   4
ATOM      4  O   UNL     1      10.294   1.300  -1.422  1.00  0.00    -0.481 OA
ATOM      5  H   UNL     1      10.238   1.758  -2.335  1.00  0.00     0.296 HD
ENDBRANCH   2   4
ENDBRANCH   1   2
BRANCH   1   6
ATOM      6  C   UNL     1       7.111  -0.602  -1.472  1.00  0.00     0.047 C 
BRANCH   6   7
ATOM      7  C   UNL     1       6.333   0.215  -0.544  1.00  0.00    -0.047 A 
ATOM      8  C   UNL     1       5.795   1.436  -0.866  1.00  0.00     0.004 A 
ATOM      9  C   UNL     1       6.118  -0.253   0.729  1.00  0.00     0.004 A 
ATOM     10  C   UNL     1       5.065   2.191   0.021  1.00  0.00     0.000 A 
ATOM     11  C   UNL     1       5.393   0.477   1.643  1.00  0.00     0.000 A 
ATOM     12  C   UNL     1       4.854   1.715   1.297  1.00  0.00     0.000 A 
ENDBRANCH   6   7
ENDBRANCH   1   6
TORSDOF 4
ENDMDL
