@<TRIPOS>MOLECULE
/home/cewinharhar/GITHUB/reincatalyze/data/processed/docking_pred/2023-Apr-25-2140_maxeplen10_maxtrainstep200_exh16_gamma099_lrac3e-4_lrcr1e-3/8f258178c278a1f8efc989ef7d8625b520fa90c8_ligand_2.pdbqt
 12 12 0 0 0
SMALL
GASTEIGER

@<TRIPOS>ATOM
      1  C          8.4420   -0.5940   -2.1970 C.3     1  UNL1        0.1270
      2  C          8.5030   -1.8860   -2.9280 C.2     1  UNL1        0.3030
      3  O          9.5610   -2.5390   -3.1130 O.2     1  UNL1       -0.2520
      4  O          7.3310   -2.4200   -3.4450 O.3     1  UNL1       -0.4810
      5  H          7.0920   -2.1380   -4.3980 H       1  UNL1        0.2960
      6  C          7.0240   -0.1060   -2.1620 C.3     1  UNL1        0.0470
      7  C          6.4810    0.0790   -0.8180 C.2     1  UNL1       -0.0470
      8  C          5.8370    1.2180   -0.4040 C.2     1  UNL1        0.0040
      9  C          6.6150   -0.9370    0.0950 C.2     1  UNL1        0.0040
     10  C          5.3320    1.3750    0.8650 C.2     1  UNL1        0.0000
     11  C          6.1230   -0.8140    1.3740 C.2     1  UNL1        0.0000
     12  C          5.4720    0.3510    1.7770 C.2     1  UNL1        0.0000
@<TRIPOS>BOND
     1     5     4    1
     2     4     2    1
     3     3     2    2
     4     2     1    1
     5     1     6    1
     6     6     7    1
     7     7     8    2
     8     7     9    1
     9     8    10    1
    10     9    11    2
    11    10    12    2
    12    11    12    1
