@<TRIPOS>MOLECULE
/home/cewinharhar/GITHUB/reincatalyze/data/processed/docking_pred/2023-Apr-25-2140_maxeplen10_maxtrainstep200_exh16_gamma099_lrac3e-4_lrcr1e-3/8f258178c278a1f8efc989ef7d8625b520fa90c8_ligand_2.pdbqt
 12 12 0 0 0
SMALL
GASTEIGER

@<TRIPOS>ATOM
      1  C          5.4150    2.8820    0.0120 C.3     1  UNL1        0.1270
      2  C          6.2250    3.8670    0.7750 C.2     1  UNL1        0.3030
      3  O          6.9100    4.7750    0.2400 O.2     1  UNL1       -0.2520
      4  O          6.2380    3.7960    2.1600 O.3     1  UNL1       -0.4810
      5  H          5.5890    3.1260    2.5800 H       1  UNL1        0.2960
      6  C          4.9190    1.8150    0.9430 C.3     1  UNL1        0.0470
      7  C          5.7140    0.5890    0.9350 C.2     1  UNL1       -0.0470
      8  C          6.4220    0.1450   -0.1550 C.2     1  UNL1        0.0040
      9  C          5.7670   -0.1750    2.0740 C.2     1  UNL1        0.0040
     10  C          7.1660   -1.0120   -0.1460 C.2     1  UNL1        0.0000
     11  C          6.5000   -1.3380    2.1190 C.2     1  UNL1        0.0000
     12  C          7.2130   -1.7730    1.0020 C.2     1  UNL1        0.0000
@<TRIPOS>BOND
     1     8    10    1
     2     8     7    2
     3    10    12    2
     4     1     2    1
     5     1     6    1
     6     3     2    2
     7     2     4    1
     8     7     6    1
     9     7     9    1
    10    12    11    1
    11     9    11    2
    12     4     5    1
