@<TRIPOS>MOLECULE
/home/cewinharhar/GITHUB/reincatalyze/data/processed/docking_pred/2023-Apr-25-2140_maxeplen10_maxtrainstep200_exh16_gamma099_lrac3e-4_lrcr1e-3/8f258178c278a1f8efc989ef7d8625b520fa90c8_ligand_2.pdbqt
 12 12 0 0 0
SMALL
GASTEIGER

@<TRIPOS>ATOM
      1  C          8.2380    0.1270   -2.1440 C.3     1  UNL1        0.1270
      2  C          9.3540    0.3090   -1.1800 C.2     1  UNL1        0.3030
      3  O          9.5060   -0.3860   -0.1440 O.2     1  UNL1       -0.2520
      4  O         10.2940    1.3000   -1.4220 O.3     1  UNL1       -0.4810
      5  H         10.2380    1.7580   -2.3350 H       1  UNL1        0.2960
      6  C          7.1110   -0.6020   -1.4720 C.3     1  UNL1        0.0470
      7  C          6.3330    0.2150   -0.5440 C.2     1  UNL1       -0.0470
      8  C          5.7950    1.4360   -0.8660 C.2     1  UNL1        0.0040
      9  C          6.1180   -0.2530    0.7290 C.2     1  UNL1        0.0040
     10  C          5.0650    2.1910    0.0210 C.2     1  UNL1        0.0000
     11  C          5.3930    0.4770    1.6430 C.2     1  UNL1        0.0000
     12  C          4.8540    1.7150    1.2970 C.2     1  UNL1        0.0000
@<TRIPOS>BOND
     1     5     4    1
     2     1     6    1
     3     1     2    1
     4     6     7    1
     5     4     2    1
     6     2     3    2
     7     8     7    2
     8     8    10    1
     9     7     9    1
    10    10    12    2
    11     9    11    2
    12    12    11    1
