@<TRIPOS>MOLECULE
/home/cewinharhar/GITHUB/reincatalyze/data/processed/docking_pred/2023-Apr-25-2140_maxeplen10_maxtrainstep200_exh16_gamma099_lrac3e-4_lrcr1e-3/8f3f3cc121b2e0b9b67c9595347d7d2b0dd21437_ligand_2.pdbqt
 12 12 0 0 0
SMALL
GASTEIGER

@<TRIPOS>ATOM
      1  C          8.4670   -0.6490   -2.1360 C.3     1  UNL1        0.1270
      2  C          8.5110   -1.9150   -2.9130 C.2     1  UNL1        0.3030
      3  O          9.5590   -2.5830   -3.1070 O.2     1  UNL1       -0.2520
      4  O          7.3370   -2.4040   -3.4650 O.3     1  UNL1       -0.4810
      5  H          6.9610   -1.8790   -4.2580 H       1  UNL1        0.2960
      6  C          7.0580   -0.1370   -2.0950 C.3     1  UNL1        0.0470
      7  C          6.5040    0.0010   -0.7500 C.2     1  UNL1       -0.0470
      8  C          6.5930   -0.9710    0.2160 C.2     1  UNL1        0.0040
      9  C          5.8530    1.1620   -0.4170 C.2     1  UNL1        0.0040
     10  C          6.0670   -0.8260    1.4770 C.2     1  UNL1        0.0000
     11  C          5.3130    1.3420    0.8360 C.2     1  UNL1        0.0000
     12  C          5.4140    0.3440    1.8040 C.2     1  UNL1        0.0000
@<TRIPOS>BOND
     1     5     4    1
     2     4     2    1
     3     3     2    2
     4     2     1    1
     5     1     6    1
     6     6     7    1
     7     7     9    2
     8     7     8    1
     9     9    11    1
    10     8    10    2
    11    11    12    2
    12    10    12    1
