@<TRIPOS>MOLECULE
/home/cewinharhar/GITHUB/reincatalyze/data/processed/docking_pred/2023-Apr-25-2140_maxeplen10_maxtrainstep200_exh16_gamma099_lrac3e-4_lrcr1e-3/8f3f3cc121b2e0b9b67c9595347d7d2b0dd21437_ligand_2.pdbqt
 12 12 0 0 0
SMALL
GASTEIGER

@<TRIPOS>ATOM
      1  C          5.0000    1.8290    0.7250 C.3     1  UNL1        0.1270
      2  C          4.5000    1.1060    1.9230 C.2     1  UNL1        0.3030
      3  O          5.1320    0.1850    2.5000 O.2     1  UNL1       -0.2520
      4  O          3.2660    1.4540    2.4510 O.3     1  UNL1       -0.4810
      5  H          3.2810    1.8840    3.3790 H       1  UNL1        0.2960
      6  C          6.4990    1.8670    0.7530 C.3     1  UNL1        0.0470
      7  C          7.1430    1.1170   -0.3230 C.2     1  UNL1       -0.0470
      8  C          8.4770    1.2150   -0.6320 C.2     1  UNL1        0.0040
      9  C          6.3820    0.2600   -1.0800 C.2     1  UNL1        0.0040
     10  C          9.0660    0.5020   -1.6490 C.2     1  UNL1        0.0000
     11  C          6.9390   -0.4690   -2.1050 C.2     1  UNL1        0.0000
     12  C          8.2960   -0.3560   -2.4040 C.2     1  UNL1        0.0000
@<TRIPOS>BOND
     1    12    11    2
     2    12    10    1
     3    11     9    1
     4    10     8    2
     5     9     7    2
     6     8     7    1
     7     7     6    1
     8     1     6    1
     9     1     2    1
    10     2     4    1
    11     2     3    2
    12     4     5    1
