@<TRIPOS>MOLECULE
/home/cewinharhar/GITHUB/reincatalyze/data/processed/docking_pred/2023-Apr-25-2140_maxeplen10_maxtrainstep200_exh16_gamma099_lrac3e-4_lrcr1e-3/8f3f3cc121b2e0b9b67c9595347d7d2b0dd21437_ligand_2.pdbqt
 12 12 0 0 0
SMALL
GASTEIGER

@<TRIPOS>ATOM
      1  C          8.4680   -0.5810   -2.2090 C.3     1  UNL1        0.1270
      2  C          8.5160   -1.8800   -2.9290 C.2     1  UNL1        0.3030
      3  O          9.5680   -2.5440   -3.1080 O.2     1  UNL1       -0.2520
      4  O          7.3390   -2.4080   -3.4380 O.3     1  UNL1       -0.4810
      5  H          7.3600   -2.6830   -4.4230 H       1  UNL1        0.2960
      6  C          7.0520   -0.0870   -2.1630 C.3     1  UNL1        0.0470
      7  C          6.5100    0.0670   -0.8140 C.2     1  UNL1       -0.0470
      8  C          5.8740    1.2010   -0.3720 C.2     1  UNL1        0.0040
      9  C          6.6380   -0.9720    0.0730 C.2     1  UNL1        0.0040
     10  C          5.3700    1.3290    0.9010 C.2     1  UNL1        0.0000
     11  C          6.1460   -0.8770    1.3550 C.2     1  UNL1        0.0000
     12  C          5.5020    0.2810    1.7860 C.2     1  UNL1        0.0000
@<TRIPOS>BOND
     1     5     4    1
     2     4     2    1
     3     3     2    2
     4     2     1    1
     5     1     6    1
     6     6     7    1
     7     7     8    2
     8     7     9    1
     9     8    10    1
    10     9    11    2
    11    10    12    2
    12    11    12    1
