@<TRIPOS>MOLECULE
/home/cewinharhar/GITHUB/reincatalyze/data/processed/docking_pred/2023-Apr-25-2140_maxeplen10_maxtrainstep200_exh16_gamma099_lrac3e-4_lrcr1e-3/8f3f3cc121b2e0b9b67c9595347d7d2b0dd21437_ligand_2.pdbqt
 12 12 0 0 0
SMALL
GASTEIGER

@<TRIPOS>ATOM
      1  C          8.4830    0.6560   -1.7170 C.3     1  UNL1        0.1270
      2  C          9.6090    0.2740   -0.8260 C.2     1  UNL1        0.3030
      3  O          9.4980   -0.5180    0.1450 O.2     1  UNL1       -0.2520
      4  O         10.8650    0.8110   -1.0640 O.3     1  UNL1       -0.4810
      5  H         11.6420    0.1460   -1.0770 H       1  UNL1        0.2960
      6  C          7.2950   -0.2120   -1.4210 C.3     1  UNL1        0.0470
      7  C          6.4270    0.2940   -0.3600 C.2     1  UNL1       -0.0470
      8  C          6.1920   -0.3710    0.8180 C.2     1  UNL1        0.0040
      9  C          5.8010    1.5040   -0.5360 C.2     1  UNL1        0.0040
     10  C          5.3710    0.1200    1.8060 C.2     1  UNL1        0.0000
     11  C          4.9730    2.0240    0.4310 C.2     1  UNL1        0.0000
     12  C          4.7470    1.3340    1.6210 C.2     1  UNL1        0.0000
@<TRIPOS>BOND
     1     1     6    1
     2     1     2    1
     3     6     7    1
     4     5     4    1
     5     4     2    1
     6     2     3    2
     7     9     7    2
     8     9    11    1
     9     7     8    1
    10    11    12    2
    11     8    10    2
    12    12    10    1
