@<TRIPOS>MOLECULE
/home/cewinharhar/GITHUB/reincatalyze/data/processed/docking_pred/2023-Apr-25-2140_maxeplen10_maxtrainstep200_exh16_gamma099_lrac3e-4_lrcr1e-3/8f3f3cc121b2e0b9b67c9595347d7d2b0dd21437_ligand_2.pdbqt
 12 12 0 0 0
SMALL
GASTEIGER

@<TRIPOS>ATOM
      1  C          5.4500    2.9300   -0.0090 C.3     1  UNL1        0.1270
      2  C          6.3190    3.8240    0.8000 C.2     1  UNL1        0.3030
      3  O          7.3150    4.4380    0.3400 O.2     1  UNL1       -0.2520
      4  O          6.0290    4.0040    2.1440 O.3     1  UNL1       -0.4810
      5  H          6.4680    4.8110    2.5930 H       1  UNL1        0.2960
      6  C          4.8880    1.8510    0.8690 C.3     1  UNL1        0.0470
      7  C          5.6850    0.6270    0.9060 C.2     1  UNL1       -0.0470
      8  C          6.3680    0.1270   -0.1760 C.2     1  UNL1        0.0040
      9  C          5.7650   -0.0760    2.0820 C.2     1  UNL1        0.0040
     10  C          7.1130   -1.0270   -0.1240 C.2     1  UNL1        0.0000
     11  C          6.5010   -1.2350    2.1700 C.2     1  UNL1        0.0000
     12  C          7.1890   -1.7270    1.0610 C.2     1  UNL1        0.0000
@<TRIPOS>BOND
     1     8    10    1
     2     8     7    2
     3    10    12    2
     4     1     2    1
     5     1     6    1
     6     3     2    2
     7     2     4    1
     8     6     7    1
     9     7     9    1
    10    12    11    1
    11     9    11    2
    12     4     5    1
