@<TRIPOS>MOLECULE
/home/cewinharhar/GITHUB/reincatalyze/data/processed/docking_pred/2023-Apr-25-2140_maxeplen10_maxtrainstep200_exh16_gamma099_lrac3e-4_lrcr1e-3/8f7c925e970cb887b69f6e81c5db99fda922d0ae_ligand_2.pdbqt
 12 12 0 0 0
SMALL
GASTEIGER

@<TRIPOS>ATOM
      1  C          8.2680   -0.9030   -1.8540 C.3     1  UNL1        0.1270
      2  C          8.2900   -1.9920   -2.8640 C.2     1  UNL1        0.3030
      3  O          7.2610   -2.4650   -3.4090 O.2     1  UNL1       -0.2520
      4  O          9.5110   -2.5310   -3.2420 O.3     1  UNL1       -0.4810
      5  H          9.8820   -3.2680   -2.6370 H       1  UNL1        0.2960
      6  C          7.4930   -1.3540   -0.6500 C.3     1  UNL1        0.0470
      7  C          6.6260   -0.3310   -0.0720 C.2     1  UNL1       -0.0470
      8  C          6.1270   -0.3850    1.2060 C.2     1  UNL1        0.0040
      9  C          6.2800    0.7550   -0.8380 C.2     1  UNL1        0.0040
     10  C          5.3120    0.5870    1.7350 C.2     1  UNL1        0.0000
     11  C          5.4660    1.7460   -0.3410 C.2     1  UNL1        0.0000
     12  C          4.9690    1.6740    0.9600 C.2     1  UNL1        0.0000
@<TRIPOS>BOND
     1     3     2    2
     2     4     2    1
     3     4     5    1
     4     2     1    1
     5     1     6    1
     6     9    11    1
     7     9     7    2
     8     6     7    1
     9    11    12    2
    10     7     8    1
    11    12    10    1
    12     8    10    2
