@<TRIPOS>MOLECULE
/home/cewinharhar/GITHUB/reincatalyze/data/processed/docking_pred/2023-Apr-25-2140_maxeplen10_maxtrainstep200_exh16_gamma099_lrac3e-4_lrcr1e-3/8f7c925e970cb887b69f6e81c5db99fda922d0ae_ligand_2.pdbqt
 12 12 0 0 0
SMALL
GASTEIGER

@<TRIPOS>ATOM
      1  C          8.4090   -0.5550   -2.2420 C.3     1  UNL1        0.1270
      2  C          8.4870   -1.8710   -2.9280 C.2     1  UNL1        0.3030
      3  O          9.5570   -2.5050   -3.1100 O.2     1  UNL1       -0.2520
      4  O          7.3190   -2.4500   -3.4030 O.3     1  UNL1       -0.4810
      5  H          6.4490   -1.9770   -3.1490 H       1  UNL1        0.2960
      6  C          6.9790   -0.1040   -2.1870 C.3     1  UNL1        0.0470
      7  C          6.4590    0.0930   -0.8360 C.2     1  UNL1       -0.0470
      8  C          5.8430    1.2460   -0.4160 C.2     1  UNL1        0.0040
      9  C          6.5870   -0.9230    0.0780 C.2     1  UNL1        0.0040
     10  C          5.3590    1.4150    0.8600 C.2     1  UNL1        0.0000
     11  C          6.1150   -0.7870    1.3630 C.2     1  UNL1        0.0000
     12  C          5.4920    0.3910    1.7720 C.2     1  UNL1        0.0000
@<TRIPOS>BOND
     1     4     5    1
     2     4     2    1
     3     3     2    2
     4     2     1    1
     5     1     6    1
     6     6     7    1
     7     7     8    2
     8     7     9    1
     9     8    10    1
    10     9    11    2
    11    10    12    2
    12    11    12    1
