MODEL 1
REMARK VINA RESULT:      -7.3      0.000      0.000
REMARK SMILES O=C(O)CCc1ccccc1
REMARK SMILES IDX 4 1 2 2 1 3 3 4 5 6 6 7 7 8 11 9 8 10 10 11 9 12
REMARK H PARENT 3 5
REMARK Flexibility Score: inf
ROOT
ATOM      1  C   UNL     1       8.409  -0.555  -2.242  1.00  0.00     0.127 C 
ENDROOT
BRANCH   1   2
ATOM      2  C   UNL     1       8.487  -1.871  -2.928  1.00  0.00     0.303 C 
ATOM      3  O   UNL     1       9.557  -2.505  -3.110  1.00  0.00    -0.252 OA
BRANCH   2   4
ATOM      4  O   UNL     1       7.319  -2.450  -3.403  1.00  0.00    -0.481 OA
ATOM      5  H   UNL     1       6.449  -1.977  -3.149  1.00  0.00     0.296 HD
ENDBRANCH   2   4
ENDBRANCH   1   2
BRANCH   1   6
ATOM      6  C   UNL     1       6.979  -0.104  -2.187  1.00  0.00     0.047 C 
BRANCH   6   7
ATOM      7  C   UNL     1       6.459   0.093  -0.836  1.00  0.00    -0.047 A 
ATOM      8  C   UNL     1       5.843   1.246  -0.416  1.00  0.00     0.004 A 
ATOM      9  C   UNL     1       6.587  -0.923   0.078  1.00  0.00     0.004 A 
ATOM     10  C   UNL     1       5.359   1.415   0.860  1.00  0.00     0.000 A 
ATOM     11  C   UNL     1       6.115  -0.787   1.363  1.00  0.00     0.000 A 
ATOM     12  C   UNL     1       5.492   0.391   1.772  1.00  0.00     0.000 A 
ENDBRANCH   6   7
ENDBRANCH   1   6
TORSDOF 4
ENDMDL
MODEL 2
REMARK VINA RESULT:      -7.3      0.099      1.429
REMARK SMILES O=C(O)CCc1ccccc1
REMARK SMILES IDX 4 1 2 2 1 3 3 4 5 6 6 7 7 8 11 9 8 10 10 11 9 12
REMARK H PARENT 3 5
REMARK Flexibility Score: inf
ROOT
ATOM      1  C   UNL     1       8.452  -0.546  -2.238  1.00  0.00     0.127 C 
ENDROOT
BRANCH   1   2
ATOM      2  C   UNL     1       8.510  -1.864  -2.922  1.00  0.00     0.303 C 
ATOM      3  O   UNL     1       9.569  -2.520  -3.092  1.00  0.00    -0.252 OA
BRANCH   2   4
ATOM      4  O   UNL     1       7.335  -2.420  -3.406  1.00  0.00    -0.481 OA
ATOM      5  H   UNL     1       6.855  -1.888  -4.135  1.00  0.00     0.296 HD
ENDBRANCH   2   4
ENDBRANCH   1   2
BRANCH   1   6
ATOM      6  C   UNL     1       7.024  -0.097  -2.139  1.00  0.00     0.047 C 
BRANCH   6   7
ATOM      7  C   UNL     1       6.514  -0.002  -0.773  1.00  0.00    -0.047 A 
ATOM      8  C   UNL     1       6.609  -1.014   0.150  1.00  0.00     0.004 A 
ATOM      9  C   UNL     1       5.902   1.160  -0.374  1.00  0.00     0.004 A 
ATOM     10  C   UNL     1       6.124  -0.907   1.432  1.00  0.00     0.000 A 
ATOM     11  C   UNL     1       5.404   1.301   0.901  1.00  0.00     0.000 A 
ATOM     12  C   UNL     1       5.511   0.263   1.825  1.00  0.00     0.000 A 
ENDBRANCH   6   7
ENDBRANCH   1   6
TORSDOF 4
ENDMDL
MODEL 3
REMARK VINA RESULT:      -7.1      0.641      1.869
REMARK SMILES O=C(O)CCc1ccccc1
REMARK SMILES IDX 4 1 2 2 1 3 3 4 5 6 6 7 7 8 11 9 8 10 10 11 9 12
REMARK H PARENT 3 5
REMARK Flexibility Score: inf
ROOT
ATOM      1  C   UNL     1       8.268  -0.903  -1.854  1.00  0.00     0.127 C 
ENDROOT
BRANCH   1   2
ATOM      2  C   UNL     1       8.290  -1.992  -2.864  1.00  0.00     0.303 C 
ATOM      3  O   UNL     1       7.261  -2.465  -3.409  1.00  0.00    -0.252 OA
BRANCH   2   4
ATOM      4  O   UNL     1       9.511  -2.531  -3.242  1.00  0.00    -0.481 OA
ATOM      5  H   UNL     1       9.882  -3.268  -2.637  1.00  0.00     0.296 HD
ENDBRANCH   2   4
ENDBRANCH   1   2
BRANCH   1   6
ATOM      6  C   UNL     1       7.493  -1.354  -0.650  1.00  0.00     0.047 C 
BRANCH   6   7
ATOM      7  C   UNL     1       6.626  -0.331  -0.072  1.00  0.00    -0.047 A 
ATOM      8  C   UNL     1       6.127  -0.385   1.206  1.00  0.00     0.004 A 
ATOM      9  C   UNL     1       6.280   0.755  -0.838  1.00  0.00     0.004 A 
ATOM     10  C   UNL     1       5.312   0.587   1.735  1.00  0.00     0.000 A 
ATOM     11  C   UNL     1       5.466   1.746  -0.341  1.00  0.00     0.000 A 
ATOM     12  C   UNL     1       4.969   1.674   0.960  1.00  0.00     0.000 A 
ENDBRANCH   6   7
ENDBRANCH   1   6
TORSDOF 4
ENDMDL
MODEL 4
REMARK VINA RESULT:      -7.1      0.667      1.477
REMARK SMILES O=C(O)CCc1ccccc1
REMARK SMILES IDX 4 1 2 2 1 3 3 4 5 6 6 7 7 8 11 9 8 10 10 11 9 12
REMARK H PARENT 3 5
REMARK Flexibility Score: inf
ROOT
ATOM      1  C   UNL     1       8.343  -0.915  -1.823  1.00  0.00     0.127 C 
ENDROOT
BRANCH   1   2
ATOM      2  C   UNL     1       8.329  -1.996  -2.843  1.00  0.00     0.303 C 
ATOM      3  O   UNL     1       7.280  -2.462  -3.356  1.00  0.00    -0.252 OA
BRANCH   2   4
ATOM      4  O   UNL     1       9.535  -2.535  -3.265  1.00  0.00    -0.481 OA
ATOM      5  H   UNL     1       9.622  -2.706  -4.269  1.00  0.00     0.296 HD
ENDBRANCH   2   4
ENDBRANCH   1   2
BRANCH   1   6
ATOM      6  C   UNL     1       7.535  -1.340  -0.633  1.00  0.00     0.047 C 
BRANCH   6   7
ATOM      7  C   UNL     1       6.654  -0.303  -0.100  1.00  0.00    -0.047 A 
ATOM      8  C   UNL     1       6.264   0.807  -0.808  1.00  0.00     0.004 A 
ATOM      9  C   UNL     1       6.180  -0.432   1.183  1.00  0.00     0.004 A 
ATOM     10  C   UNL     1       5.434   1.773  -0.290  1.00  0.00     0.000 A 
ATOM     11  C   UNL     1       5.349   0.517   1.732  1.00  0.00     0.000 A 
ATOM     12  C   UNL     1       4.963   1.637   0.998  1.00  0.00     0.000 A 
ENDBRANCH   6   7
ENDBRANCH   1   6
TORSDOF 4
ENDMDL
MODEL 5
REMARK VINA RESULT:      -6.8      3.368      5.084
REMARK SMILES O=C(O)CCc1ccccc1
REMARK SMILES IDX 4 1 2 2 1 3 3 4 5 6 6 7 7 8 11 9 8 10 10 11 9 12
REMARK H PARENT 3 5
REMARK Flexibility Score: inf
ROOT
ATOM      1  C   UNL     1       5.009   1.824   0.723  1.00  0.00     0.127 C 
ENDROOT
BRANCH   1   2
ATOM      2  C   UNL     1       4.498   1.103   1.917  1.00  0.00     0.303 C 
ATOM      3  O   UNL     1       5.117   0.173   2.493  1.00  0.00    -0.252 OA
BRANCH   2   4
ATOM      4  O   UNL     1       3.266   1.465   2.443  1.00  0.00    -0.481 OA
ATOM      5  H   UNL     1       3.167   2.445   2.718  1.00  0.00     0.296 HD
ENDBRANCH   2   4
ENDBRANCH   1   2
BRANCH   1   6
ATOM      6  C   UNL     1       6.510   1.807   0.733  1.00  0.00     0.047 C 
BRANCH   6   7
ATOM      7  C   UNL     1       7.112   1.020  -0.341  1.00  0.00    -0.047 A 
ATOM      8  C   UNL     1       6.435   0.067  -1.062  1.00  0.00     0.004 A 
ATOM      9  C   UNL     1       8.430   1.233  -0.659  1.00  0.00     0.004 A 
ATOM     10  C   UNL     1       7.017  -0.665  -2.069  1.00  0.00     0.000 A 
ATOM     11  C   UNL     1       9.045   0.518  -1.661  1.00  0.00     0.000 A 
ATOM     12  C   UNL     1       8.341  -0.445  -2.383  1.00  0.00     0.000 A 
ENDBRANCH   6   7
ENDBRANCH   1   6
TORSDOF 4
ENDMDL
