@<TRIPOS>MOLECULE
/home/cewinharhar/GITHUB/reincatalyze/data/processed/docking_pred/2023-Apr-25-2140_maxeplen10_maxtrainstep200_exh16_gamma099_lrac3e-4_lrcr1e-3/8f7c925e970cb887b69f6e81c5db99fda922d0ae_ligand_2.pdbqt
 12 12 0 0 0
SMALL
GASTEIGER

@<TRIPOS>ATOM
      1  C          8.3430   -0.9150   -1.8230 C.3     1  UNL1        0.1270
      2  C          8.3290   -1.9960   -2.8430 C.2     1  UNL1        0.3030
      3  O          7.2800   -2.4620   -3.3560 O.2     1  UNL1       -0.2520
      4  O          9.5350   -2.5350   -3.2650 O.3     1  UNL1       -0.4810
      5  H          9.6220   -2.7060   -4.2690 H       1  UNL1        0.2960
      6  C          7.5350   -1.3400   -0.6330 C.3     1  UNL1        0.0470
      7  C          6.6540   -0.3030   -0.1000 C.2     1  UNL1       -0.0470
      8  C          6.2640    0.8070   -0.8080 C.2     1  UNL1        0.0040
      9  C          6.1800   -0.4320    1.1830 C.2     1  UNL1        0.0040
     10  C          5.4340    1.7730   -0.2900 C.2     1  UNL1        0.0000
     11  C          5.3490    0.5170    1.7320 C.2     1  UNL1        0.0000
     12  C          4.9630    1.6370    0.9980 C.2     1  UNL1        0.0000
@<TRIPOS>BOND
     1     5     4    1
     2     3     2    2
     3     4     2    1
     4     2     1    1
     5     1     6    1
     6     8    10    1
     7     8     7    2
     8     6     7    1
     9    10    12    2
    10     7     9    1
    11    12    11    1
    12     9    11    2
