@<TRIPOS>MOLECULE
/home/cewinharhar/GITHUB/reincatalyze/data/processed/docking_pred/2023-Apr-25-2140_maxeplen10_maxtrainstep200_exh16_gamma099_lrac3e-4_lrcr1e-3/8f7c925e970cb887b69f6e81c5db99fda922d0ae_ligand_2.pdbqt
 12 12 0 0 0
SMALL
GASTEIGER

@<TRIPOS>ATOM
      1  C          8.4520   -0.5460   -2.2380 C.3     1  UNL1        0.1270
      2  C          8.5100   -1.8640   -2.9220 C.2     1  UNL1        0.3030
      3  O          9.5690   -2.5200   -3.0920 O.2     1  UNL1       -0.2520
      4  O          7.3350   -2.4200   -3.4060 O.3     1  UNL1       -0.4810
      5  H          6.8550   -1.8880   -4.1350 H       1  UNL1        0.2960
      6  C          7.0240   -0.0970   -2.1390 C.3     1  UNL1        0.0470
      7  C          6.5140   -0.0020   -0.7730 C.2     1  UNL1       -0.0470
      8  C          6.6090   -1.0140    0.1500 C.2     1  UNL1        0.0040
      9  C          5.9020    1.1600   -0.3740 C.2     1  UNL1        0.0040
     10  C          6.1240   -0.9070    1.4320 C.2     1  UNL1        0.0000
     11  C          5.4040    1.3010    0.9010 C.2     1  UNL1        0.0000
     12  C          5.5110    0.2630    1.8250 C.2     1  UNL1        0.0000
@<TRIPOS>BOND
     1     5     4    1
     2     4     2    1
     3     3     2    2
     4     2     1    1
     5     1     6    1
     6     6     7    1
     7     7     9    2
     8     7     8    1
     9     9    11    1
    10     8    10    2
    11    11    12    2
    12    10    12    1
