@<TRIPOS>MOLECULE
/home/cewinharhar/GITHUB/reincatalyze/data/processed/docking_pred/2023-Apr-25-2140_maxeplen10_maxtrainstep200_exh16_gamma099_lrac3e-4_lrcr1e-3/91438d65c636cbfd2c8442c68b92b155f88758ee_ligand_2.pdbqt
 12 12 0 0 0
SMALL
GASTEIGER

@<TRIPOS>ATOM
      1  C          5.0180    1.7230    0.6850 C.3     1  UNL1        0.1270
      2  C          4.6070    1.0100    1.9230 C.2     1  UNL1        0.3030
      3  O          5.3140    0.1470    2.5020 O.2     1  UNL1       -0.2520
      4  O          3.3740    1.3010    2.4870 O.3     1  UNL1       -0.4810
      5  H          2.7320    0.5130    2.5930 H       1  UNL1        0.2960
      6  C          6.5140    1.8240    0.6400 C.3     1  UNL1        0.0470
      7  C          7.1430    1.0160   -0.4030 C.2     1  UNL1       -0.0470
      8  C          6.4690    0.0930   -1.1640 C.2     1  UNL1        0.0040
      9  C          8.4840    1.1780   -0.6480 C.2     1  UNL1        0.0040
     10  C          7.0760   -0.6590   -2.1410 C.2     1  UNL1        0.0000
     11  C          9.1240    0.4410   -1.6180 C.2     1  UNL1        0.0000
     12  C          8.4230   -0.4910   -2.3810 C.2     1  UNL1        0.0000
@<TRIPOS>BOND
     1    12    10    2
     2    12    11    1
     3    10     8    1
     4    11     9    2
     5     8     7    2
     6     9     7    1
     7     7     6    1
     8     6     1    1
     9     1     2    1
    10     2     4    1
    11     2     3    2
    12     4     5    1
