@<TRIPOS>MOLECULE
/home/cewinharhar/GITHUB/reincatalyze/data/processed/docking_pred/2023-Apr-25-2140_maxeplen10_maxtrainstep200_exh16_gamma099_lrac3e-4_lrcr1e-3/91438d65c636cbfd2c8442c68b92b155f88758ee_ligand_2.pdbqt
 12 12 0 0 0
SMALL
GASTEIGER

@<TRIPOS>ATOM
      1  C          5.0210    1.7680    0.7030 C.3     1  UNL1        0.1270
      2  C          4.5190    1.0820    1.9220 C.2     1  UNL1        0.3030
      3  O          3.4010    1.3130    2.4480 O.2     1  UNL1       -0.2520
      4  O          5.3190    0.1260    2.5310 O.3     1  UNL1       -0.4810
      5  H          5.6340    0.3420    3.4790 H       1  UNL1        0.2960
      6  C          6.5200    1.8170    0.7380 C.3     1  UNL1        0.0470
      7  C          7.1730    1.0780   -0.3400 C.2     1  UNL1       -0.0470
      8  C          8.5000    1.2150   -0.6650 C.2     1  UNL1        0.0040
      9  C          6.4310    0.1920   -1.0800 C.2     1  UNL1        0.0040
     10  C          9.1000    0.5120   -1.6830 C.2     1  UNL1        0.0000
     11  C          6.9980   -0.5280   -2.1060 C.2     1  UNL1        0.0000
     12  C          8.3480   -0.3760   -2.4210 C.2     1  UNL1        0.0000
@<TRIPOS>BOND
     1    12    11    2
     2    12    10    1
     3    11     9    1
     4    10     8    2
     5     9     7    2
     6     8     7    1
     7     7     6    1
     8     1     6    1
     9     1     2    1
    10     2     3    2
    11     2     4    1
    12     4     5    1
