@<TRIPOS>MOLECULE
/home/cewinharhar/GITHUB/reincatalyze/data/processed/docking_pred/2023-Apr-25-2140_maxeplen10_maxtrainstep200_exh16_gamma099_lrac3e-4_lrcr1e-3/91438d65c636cbfd2c8442c68b92b155f88758ee_ligand_2.pdbqt
 12 12 0 0 0
SMALL
GASTEIGER

@<TRIPOS>ATOM
      1  C          8.4240   -0.5100   -2.2940 C.3     1  UNL1        0.1270
      2  C          8.4970   -1.8540   -2.9250 C.2     1  UNL1        0.3030
      3  O          9.5630   -2.5070   -3.0630 O.2     1  UNL1       -0.2520
      4  O          7.3310   -2.4390   -3.3940 O.3     1  UNL1       -0.4810
      5  H          7.2830   -3.4590   -3.3290 H       1  UNL1        0.2960
      6  C          6.9890   -0.0860   -2.1890 C.3     1  UNL1        0.0470
      7  C          6.4920    0.0290   -0.8200 C.2     1  UNL1       -0.0470
      8  C          6.5930   -0.9710    0.1160 C.2     1  UNL1        0.0040
      9  C          5.8860    1.1980   -0.4310 C.2     1  UNL1        0.0040
     10  C          6.1200   -0.8460    1.4010 C.2     1  UNL1        0.0000
     11  C          5.4000    1.3570    0.8470 C.2     1  UNL1        0.0000
     12  C          5.5130    0.3300    1.7840 C.2     1  UNL1        0.0000
@<TRIPOS>BOND
     1     4     5    1
     2     4     2    1
     3     3     2    2
     4     2     1    1
     5     1     6    1
     6     6     7    1
     7     7     9    2
     8     7     8    1
     9     9    11    1
    10     8    10    2
    11    11    12    2
    12    10    12    1
