MODEL 1
REMARK VINA RESULT:      -7.4      0.000      0.000
REMARK SMILES O=C(O)CCc1ccccc1
REMARK SMILES IDX 4 1 2 2 1 3 3 4 5 6 6 7 7 8 11 9 8 10 10 11 9 12
REMARK H PARENT 3 5
REMARK Flexibility Score: inf
ROOT
ATOM      1  C   UNL     1       8.474  -0.606  -2.171  1.00  0.00     0.127 C 
ENDROOT
BRANCH   1   2
ATOM      2  C   UNL     1       8.524  -1.891  -2.915  1.00  0.00     0.303 C 
ATOM      3  O   UNL     1       9.582  -2.536  -3.130  1.00  0.00    -0.252 OA
BRANCH   2   4
ATOM      4  O   UNL     1       7.344  -2.426  -3.409  1.00  0.00    -0.481 OA
ATOM      5  H   UNL     1       7.417  -3.351  -3.839  1.00  0.00     0.296 HD
ENDBRANCH   2   4
ENDBRANCH   1   2
BRANCH   1   6
ATOM      6  C   UNL     1       7.065  -0.091  -2.158  1.00  0.00     0.047 C 
BRANCH   6   7
ATOM      7  C   UNL     1       6.499   0.087  -0.823  1.00  0.00    -0.047 A 
ATOM      8  C   UNL     1       5.839   1.221  -0.416  1.00  0.00     0.004 A 
ATOM      9  C   UNL     1       6.625  -0.930   0.091  1.00  0.00     0.004 A 
ATOM     10  C   UNL     1       5.313   1.371   0.844  1.00  0.00     0.000 A 
ATOM     11  C   UNL     1       6.111  -0.813   1.362  1.00  0.00     0.000 A 
ATOM     12  C   UNL     1       5.444   0.346   1.756  1.00  0.00     0.000 A 
ENDBRANCH   6   7
ENDBRANCH   1   6
TORSDOF 4
ENDMDL
MODEL 2
REMARK VINA RESULT:      -7.3      0.079      1.427
REMARK SMILES O=C(O)CCc1ccccc1
REMARK SMILES IDX 4 1 2 2 1 3 3 4 5 6 6 7 7 8 11 9 8 10 10 11 9 12
REMARK H PARENT 3 5
REMARK Flexibility Score: inf
ROOT
ATOM      1  C   UNL     1       8.424  -0.510  -2.294  1.00  0.00     0.127 C 
ENDROOT
BRANCH   1   2
ATOM      2  C   UNL     1       8.497  -1.854  -2.925  1.00  0.00     0.303 C 
ATOM      3  O   UNL     1       9.563  -2.507  -3.063  1.00  0.00    -0.252 OA
BRANCH   2   4
ATOM      4  O   UNL     1       7.331  -2.439  -3.394  1.00  0.00    -0.481 OA
ATOM      5  H   UNL     1       7.283  -3.459  -3.329  1.00  0.00     0.296 HD
ENDBRANCH   2   4
ENDBRANCH   1   2
BRANCH   1   6
ATOM      6  C   UNL     1       6.989  -0.086  -2.189  1.00  0.00     0.047 C 
BRANCH   6   7
ATOM      7  C   UNL     1       6.492   0.029  -0.820  1.00  0.00    -0.047 A 
ATOM      8  C   UNL     1       6.593  -0.971   0.116  1.00  0.00     0.004 A 
ATOM      9  C   UNL     1       5.886   1.198  -0.431  1.00  0.00     0.004 A 
ATOM     10  C   UNL     1       6.120  -0.846   1.401  1.00  0.00     0.000 A 
ATOM     11  C   UNL     1       5.400   1.357   0.847  1.00  0.00     0.000 A 
ATOM     12  C   UNL     1       5.513   0.330   1.784  1.00  0.00     0.000 A 
ENDBRANCH   6   7
ENDBRANCH   1   6
TORSDOF 4
ENDMDL
MODEL 3
REMARK VINA RESULT:      -6.8      0.896      1.077
REMARK SMILES O=C(O)CCc1ccccc1
REMARK SMILES IDX 4 1 2 2 1 3 3 4 5 6 6 7 7 8 11 9 8 10 10 11 9 12
REMARK H PARENT 3 5
REMARK Flexibility Score: inf
ROOT
ATOM      1  C   UNL     1       7.078  -1.491  -2.320  1.00  0.00     0.127 C 
ENDROOT
BRANCH   1   2
ATOM      2  C   UNL     1       8.288  -2.353  -2.297  1.00  0.00     0.303 C 
ATOM      3  O   UNL     1       8.555  -3.162  -1.373  1.00  0.00    -0.252 OA
BRANCH   2   4
ATOM      4  O   UNL     1       9.188  -2.275  -3.350  1.00  0.00    -0.481 OA
ATOM      5  H   UNL     1       9.735  -1.413  -3.409  1.00  0.00     0.296 HD
ENDBRANCH   2   4
ENDBRANCH   1   2
BRANCH   1   6
ATOM      6  C   UNL     1       7.402  -0.159  -1.709  1.00  0.00     0.047 C 
BRANCH   6   7
ATOM      7  C   UNL     1       6.599   0.178  -0.536  1.00  0.00    -0.047 A 
ATOM      8  C   UNL     1       5.897   1.351  -0.402  1.00  0.00     0.004 A 
ATOM      9  C   UNL     1       6.533  -0.718   0.502  1.00  0.00     0.004 A 
ATOM     10  C   UNL     1       5.145   1.653   0.708  1.00  0.00     0.000 A 
ATOM     11  C   UNL     1       5.791  -0.448   1.629  1.00  0.00     0.000 A 
ATOM     12  C   UNL     1       5.084   0.748   1.746  1.00  0.00     0.000 A 
ENDBRANCH   6   7
ENDBRANCH   1   6
TORSDOF 4
ENDMDL
MODEL 4
REMARK VINA RESULT:      -6.7      3.332      5.050
REMARK SMILES O=C(O)CCc1ccccc1
REMARK SMILES IDX 4 1 2 2 1 3 3 4 5 6 6 7 7 8 11 9 8 10 10 11 9 12
REMARK H PARENT 3 5
REMARK Flexibility Score: inf
ROOT
ATOM      1  C   UNL     1       5.018   1.723   0.685  1.00  0.00     0.127 C 
ENDROOT
BRANCH   1   2
ATOM      2  C   UNL     1       4.607   1.010   1.923  1.00  0.00     0.303 C 
ATOM      3  O   UNL     1       5.314   0.147   2.502  1.00  0.00    -0.252 OA
BRANCH   2   4
ATOM      4  O   UNL     1       3.374   1.301   2.487  1.00  0.00    -0.481 OA
ATOM      5  H   UNL     1       2.732   0.513   2.593  1.00  0.00     0.296 HD
ENDBRANCH   2   4
ENDBRANCH   1   2
BRANCH   1   6
ATOM      6  C   UNL     1       6.514   1.824   0.640  1.00  0.00     0.047 C 
BRANCH   6   7
ATOM      7  C   UNL     1       7.143   1.016  -0.403  1.00  0.00    -0.047 A 
ATOM      8  C   UNL     1       6.469   0.093  -1.164  1.00  0.00     0.004 A 
ATOM      9  C   UNL     1       8.484   1.178  -0.648  1.00  0.00     0.004 A 
ATOM     10  C   UNL     1       7.076  -0.659  -2.141  1.00  0.00     0.000 A 
ATOM     11  C   UNL     1       9.124   0.441  -1.618  1.00  0.00     0.000 A 
ATOM     12  C   UNL     1       8.423  -0.491  -2.381  1.00  0.00     0.000 A 
ENDBRANCH   6   7
ENDBRANCH   1   6
TORSDOF 4
ENDMDL
MODEL 5
REMARK VINA RESULT:      -6.7      3.335      5.123
REMARK SMILES O=C(O)CCc1ccccc1
REMARK SMILES IDX 4 1 2 2 1 3 3 4 5 6 6 7 7 8 11 9 8 10 10 11 9 12
REMARK H PARENT 3 5
REMARK Flexibility Score: inf
ROOT
ATOM      1  C   UNL     1       5.021   1.768   0.703  1.00  0.00     0.127 C 
ENDROOT
BRANCH   1   2
ATOM      2  C   UNL     1       4.519   1.082   1.922  1.00  0.00     0.303 C 
ATOM      3  O   UNL     1       3.401   1.313   2.448  1.00  0.00    -0.252 OA
BRANCH   2   4
ATOM      4  O   UNL     1       5.319   0.126   2.531  1.00  0.00    -0.481 OA
ATOM      5  H   UNL     1       5.634   0.342   3.479  1.00  0.00     0.296 HD
ENDBRANCH   2   4
ENDBRANCH   1   2
BRANCH   1   6
ATOM      6  C   UNL     1       6.520   1.817   0.738  1.00  0.00     0.047 C 
BRANCH   6   7
ATOM      7  C   UNL     1       7.173   1.078  -0.340  1.00  0.00    -0.047 A 
ATOM      8  C   UNL     1       8.500   1.215  -0.665  1.00  0.00     0.004 A 
ATOM      9  C   UNL     1       6.431   0.192  -1.080  1.00  0.00     0.004 A 
ATOM     10  C   UNL     1       9.100   0.512  -1.683  1.00  0.00     0.000 A 
ATOM     11  C   UNL     1       6.998  -0.528  -2.106  1.00  0.00     0.000 A 
ATOM     12  C   UNL     1       8.348  -0.376  -2.421  1.00  0.00     0.000 A 
ENDBRANCH   6   7
ENDBRANCH   1   6
TORSDOF 4
ENDMDL
