@<TRIPOS>MOLECULE
/home/cewinharhar/GITHUB/reincatalyze/data/processed/docking_pred/2023-Apr-25-2140_maxeplen10_maxtrainstep200_exh16_gamma099_lrac3e-4_lrcr1e-3/91438d65c636cbfd2c8442c68b92b155f88758ee_ligand_2.pdbqt
 12 12 0 0 0
SMALL
GASTEIGER

@<TRIPOS>ATOM
      1  C          7.0780   -1.4910   -2.3200 C.3     1  UNL1        0.1270
      2  C          8.2880   -2.3530   -2.2970 C.2     1  UNL1        0.3030
      3  O          8.5550   -3.1620   -1.3730 O.2     1  UNL1       -0.2520
      4  O          9.1880   -2.2750   -3.3500 O.3     1  UNL1       -0.4810
      5  H          9.7350   -1.4130   -3.4090 H       1  UNL1        0.2960
      6  C          7.4020   -0.1590   -1.7090 C.3     1  UNL1        0.0470
      7  C          6.5990    0.1780   -0.5360 C.2     1  UNL1       -0.0470
      8  C          5.8970    1.3510   -0.4020 C.2     1  UNL1        0.0040
      9  C          6.5330   -0.7180    0.5020 C.2     1  UNL1        0.0040
     10  C          5.1450    1.6530    0.7080 C.2     1  UNL1        0.0000
     11  C          5.7910   -0.4480    1.6290 C.2     1  UNL1        0.0000
     12  C          5.0840    0.7480    1.7460 C.2     1  UNL1        0.0000
@<TRIPOS>BOND
     1     5     4    1
     2     4     2    1
     3     1     2    1
     4     1     6    1
     5     2     3    2
     6     6     7    1
     7     7     8    2
     8     7     9    1
     9     8    10    1
    10     9    11    2
    11    10    12    2
    12    11    12    1
