@<TRIPOS>MOLECULE
/home/cewinharhar/GITHUB/reincatalyze/data/processed/docking_pred/2023-Apr-25-2140_maxeplen10_maxtrainstep200_exh16_gamma099_lrac3e-4_lrcr1e-3/91438d65c636cbfd2c8442c68b92b155f88758ee_ligand_2.pdbqt
 12 12 0 0 0
SMALL
GASTEIGER

@<TRIPOS>ATOM
      1  C          8.4740   -0.6060   -2.1710 C.3     1  UNL1        0.1270
      2  C          8.5240   -1.8910   -2.9150 C.2     1  UNL1        0.3030
      3  O          9.5820   -2.5360   -3.1300 O.2     1  UNL1       -0.2520
      4  O          7.3440   -2.4260   -3.4090 O.3     1  UNL1       -0.4810
      5  H          7.4170   -3.3510   -3.8390 H       1  UNL1        0.2960
      6  C          7.0650   -0.0910   -2.1580 C.3     1  UNL1        0.0470
      7  C          6.4990    0.0870   -0.8230 C.2     1  UNL1       -0.0470
      8  C          5.8390    1.2210   -0.4160 C.2     1  UNL1        0.0040
      9  C          6.6250   -0.9300    0.0910 C.2     1  UNL1        0.0040
     10  C          5.3130    1.3710    0.8440 C.2     1  UNL1        0.0000
     11  C          6.1110   -0.8130    1.3620 C.2     1  UNL1        0.0000
     12  C          5.4440    0.3460    1.7560 C.2     1  UNL1        0.0000
@<TRIPOS>BOND
     1     5     4    1
     2     4     2    1
     3     3     2    2
     4     2     1    1
     5     1     6    1
     6     6     7    1
     7     7     8    2
     8     7     9    1
     9     8    10    1
    10     9    11    2
    11    10    12    2
    12    11    12    1
