@<TRIPOS>MOLECULE
/home/cewinharhar/GITHUB/reincatalyze/data/processed/docking_pred/2023-Apr-25-2140_maxeplen10_maxtrainstep200_exh16_gamma099_lrac3e-4_lrcr1e-3/9282b18981f6708324b0af4486d36de930a99903_ligand_2.pdbqt
 12 12 0 0 0
SMALL
GASTEIGER

@<TRIPOS>ATOM
      1  C          8.4910   -6.1250   10.2930 C.3     1  UNL1        0.1270
      2  C          7.9530   -4.9820   11.0760 C.2     1  UNL1        0.3030
      3  O          7.6190   -3.8810   10.5710 O.2     1  UNL1       -0.2520
      4  O          7.8040   -5.1210   12.4480 O.3     1  UNL1       -0.4810
      5  H          7.0350   -4.5960   12.8710 H       1  UNL1        0.2960
      6  C          8.9890   -7.1840   11.2320 C.3     1  UNL1        0.0470
      7  C         10.2780   -7.7620   10.8600 C.2     1  UNL1       -0.0470
      8  C         10.5130   -9.1120   10.7710 C.2     1  UNL1        0.0040
      9  C         11.3260   -6.9200   10.5810 C.2     1  UNL1        0.0040
     10  C         11.7330   -9.6390   10.4200 C.2     1  UNL1        0.0000
     11  C         12.5610   -7.4130   10.2270 C.2     1  UNL1        0.0000
     12  C         12.7800   -8.7870   10.1420 C.2     1  UNL1        0.0000
@<TRIPOS>BOND
     1    12    11    2
     2    12    10    1
     3    11     9    1
     4     1     2    1
     5     1     6    1
     6    10     8    2
     7     3     2    2
     8     9     7    2
     9     8     7    1
    10     7     6    1
    11     2     4    1
    12     4     5    1
