MODEL 1
REMARK VINA RESULT:      -5.6      0.000      0.000
REMARK SMILES O=C(O)CCc1ccccc1
REMARK SMILES IDX 4 1 2 2 1 3 3 4 5 6 6 7 7 8 11 9 8 10 10 11 9 12
REMARK H PARENT 3 5
REMARK Flexibility Score: inf
ROOT
ATOM      1  C   UNL     1       6.363  -0.600   2.751  1.00  0.00     0.127 C 
ENDROOT
BRANCH   1   2
ATOM      2  C   UNL     1       7.156  -1.523   1.898  1.00  0.00     0.303 C 
ATOM      3  O   UNL     1       8.317  -1.273   1.486  1.00  0.00    -0.252 OA
BRANCH   2   4
ATOM      4  O   UNL     1       6.598  -2.737   1.526  1.00  0.00    -0.481 OA
ATOM      5  H   UNL     1       6.115  -2.751   0.625  1.00  0.00     0.296 HD
ENDBRANCH   2   4
ENDBRANCH   1   2
BRANCH   1   6
ATOM      6  C   UNL     1       5.252  -0.000   1.940  1.00  0.00     0.047 C 
BRANCH   6   7
ATOM      7  C   UNL     1       5.561   1.306   1.364  1.00  0.00    -0.047 A 
ATOM      8  C   UNL     1       6.518   2.154   1.865  1.00  0.00     0.004 A 
ATOM      9  C   UNL     1       4.862   1.726   0.260  1.00  0.00     0.004 A 
ATOM     10  C   UNL     1       6.797   3.381   1.311  1.00  0.00     0.000 A 
ATOM     11  C   UNL     1       5.114   2.948  -0.320  1.00  0.00     0.000 A 
ATOM     12  C   UNL     1       6.091   3.795   0.202  1.00  0.00     0.000 A 
ENDBRANCH   6   7
ENDBRANCH   1   6
TORSDOF 4
ENDMDL
MODEL 2
REMARK VINA RESULT:      -5.5      0.085      1.426
REMARK SMILES O=C(O)CCc1ccccc1
REMARK SMILES IDX 4 1 2 2 1 3 3 4 5 6 6 7 7 8 11 9 8 10 10 11 9 12
REMARK H PARENT 3 5
REMARK Flexibility Score: inf
ROOT
ATOM      1  C   UNL     1       6.307  -0.611   2.738  1.00  0.00     0.127 C 
ENDROOT
BRANCH   1   2
ATOM      2  C   UNL     1       7.156  -1.493   1.896  1.00  0.00     0.303 C 
ATOM      3  O   UNL     1       8.317  -1.196   1.518  1.00  0.00    -0.252 OA
BRANCH   2   4
ATOM      4  O   UNL     1       6.654  -2.722   1.495  1.00  0.00    -0.481 OA
ATOM      5  H   UNL     1       7.161  -3.545   1.831  1.00  0.00     0.296 HD
ENDBRANCH   2   4
ENDBRANCH   1   2
BRANCH   1   6
ATOM      6  C   UNL     1       5.205  -0.031   1.900  1.00  0.00     0.047 C 
BRANCH   6   7
ATOM      7  C   UNL     1       5.512   1.272   1.315  1.00  0.00    -0.047 A 
ATOM      8  C   UNL     1       4.875   1.784   0.212  1.00  0.00     0.004 A 
ATOM      9  C   UNL     1       6.493   2.041   1.890  1.00  0.00     0.004 A 
ATOM     10  C   UNL     1       5.177   3.012  -0.326  1.00  0.00     0.000 A 
ATOM     11  C   UNL     1       6.822   3.275   1.378  1.00  0.00     0.000 A 
ATOM     12  C   UNL     1       6.164   3.778   0.257  1.00  0.00     0.000 A 
ENDBRANCH   6   7
ENDBRANCH   1   6
TORSDOF 4
ENDMDL
MODEL 3
REMARK VINA RESULT:      -3.7      2.900      4.528
REMARK SMILES O=C(O)CCc1ccccc1
REMARK SMILES IDX 4 1 2 2 1 3 3 4 5 6 6 7 7 8 11 9 8 10 10 11 9 12
REMARK H PARENT 3 5
REMARK Flexibility Score: inf
ROOT
ATOM      1  C   UNL     1       5.418   2.927   0.094  1.00  0.00     0.127 C 
ENDROOT
BRANCH   1   2
ATOM      2  C   UNL     1       6.148   4.019   0.789  1.00  0.00     0.303 C 
ATOM      3  O   UNL     1       6.985   4.772   0.229  1.00  0.00    -0.252 OA
BRANCH   2   4
ATOM      4  O   UNL     1       5.903   4.237   2.137  1.00  0.00    -0.481 OA
ATOM      5  H   UNL     1       5.062   3.796   2.517  1.00  0.00     0.296 HD
ENDBRANCH   2   4
ENDBRANCH   1   2
BRANCH   1   6
ATOM      6  C   UNL     1       4.742   2.053   1.108  1.00  0.00     0.047 C 
BRANCH   6   7
ATOM      7  C   UNL     1       5.518   0.882   1.509  1.00  0.00    -0.047 A 
ATOM      8  C   UNL     1       6.764   0.950   2.081  1.00  0.00     0.004 A 
ATOM      9  C   UNL     1       4.984  -0.367   1.308  1.00  0.00     0.004 A 
ATOM     10  C   UNL     1       7.481  -0.163   2.453  1.00  0.00     0.000 A 
ATOM     11  C   UNL     1       5.674  -1.502   1.666  1.00  0.00     0.000 A 
ATOM     12  C   UNL     1       6.938  -1.413   2.247  1.00  0.00     0.000 A 
ENDBRANCH   6   7
ENDBRANCH   1   6
TORSDOF 4
ENDMDL
MODEL 4
REMARK VINA RESULT:      -3.7     11.526     13.261
REMARK SMILES O=C(O)CCc1ccccc1
REMARK SMILES IDX 4 1 2 2 1 3 3 4 5 6 6 7 7 8 11 9 8 10 10 11 9 12
REMARK H PARENT 3 5
REMARK Flexibility Score: inf
ROOT
ATOM      1  C   UNL     1       8.095  -5.769  11.684  1.00  0.00     0.127 C 
ENDROOT
BRANCH   1   2
ATOM      2  C   UNL     1       7.581  -4.400  11.420  1.00  0.00     0.303 C 
ATOM      3  O   UNL     1       7.073  -3.660  12.300  1.00  0.00    -0.252 OA
BRANCH   2   4
ATOM      4  O   UNL     1       7.659  -3.891  10.132  1.00  0.00    -0.481 OA
ATOM      5  H   UNL     1       8.597  -3.829   9.730  1.00  0.00     0.296 HD
ENDBRANCH   2   4
ENDBRANCH   1   2
BRANCH   1   6
ATOM      6  C   UNL     1       8.583  -6.375  10.402  1.00  0.00     0.047 C 
BRANCH   6   7
ATOM      7  C   UNL     1       9.883  -7.034  10.501  1.00  0.00    -0.047 A 
ATOM      8  C   UNL     1      10.058  -8.394  10.430  1.00  0.00     0.004 A 
ATOM      9  C   UNL     1      11.005  -6.263  10.677  1.00  0.00     0.004 A 
ATOM     10  C   UNL     1      11.289  -8.998  10.526  1.00  0.00     0.000 A 
ATOM     11  C   UNL     1      12.253  -6.833  10.778  1.00  0.00     0.000 A 
ATOM     12  C   UNL     1      12.411  -8.216  10.703  1.00  0.00     0.000 A 
ENDBRANCH   6   7
ENDBRANCH   1   6
TORSDOF 4
ENDMDL
MODEL 5
REMARK VINA RESULT:      -3.6     11.636     13.651
REMARK SMILES O=C(O)CCc1ccccc1
REMARK SMILES IDX 4 1 2 2 1 3 3 4 5 6 6 7 7 8 11 9 8 10 10 11 9 12
REMARK H PARENT 3 5
REMARK Flexibility Score: inf
ROOT
ATOM      1  C   UNL     1       8.491  -6.125  10.293  1.00  0.00     0.127 C 
ENDROOT
BRANCH   1   2
ATOM      2  C   UNL     1       7.953  -4.982  11.076  1.00  0.00     0.303 C 
ATOM      3  O   UNL     1       7.619  -3.881  10.571  1.00  0.00    -0.252 OA
BRANCH   2   4
ATOM      4  O   UNL     1       7.804  -5.121  12.448  1.00  0.00    -0.481 OA
ATOM      5  H   UNL     1       7.035  -4.596  12.871  1.00  0.00     0.296 HD
ENDBRANCH   2   4
ENDBRANCH   1   2
BRANCH   1   6
ATOM      6  C   UNL     1       8.989  -7.184  11.232  1.00  0.00     0.047 C 
BRANCH   6   7
ATOM      7  C   UNL     1      10.278  -7.762  10.860  1.00  0.00    -0.047 A 
ATOM      8  C   UNL     1      10.513  -9.112  10.771  1.00  0.00     0.004 A 
ATOM      9  C   UNL     1      11.326  -6.920  10.581  1.00  0.00     0.004 A 
ATOM     10  C   UNL     1      11.733  -9.639  10.420  1.00  0.00     0.000 A 
ATOM     11  C   UNL     1      12.561  -7.413  10.227  1.00  0.00     0.000 A 
ATOM     12  C   UNL     1      12.780  -8.787  10.142  1.00  0.00     0.000 A 
ENDBRANCH   6   7
ENDBRANCH   1   6
TORSDOF 4
ENDMDL
