@<TRIPOS>MOLECULE
/home/cewinharhar/GITHUB/reincatalyze/data/processed/docking_pred/2023-Apr-25-2140_maxeplen10_maxtrainstep200_exh16_gamma099_lrac3e-4_lrcr1e-3/9282b18981f6708324b0af4486d36de930a99903_ligand_2.pdbqt
 12 12 0 0 0
SMALL
GASTEIGER

@<TRIPOS>ATOM
      1  C          6.3070   -0.6110    2.7380 C.3     1  UNL1        0.1270
      2  C          7.1560   -1.4930    1.8960 C.2     1  UNL1        0.3030
      3  O          8.3170   -1.1960    1.5180 O.2     1  UNL1       -0.2520
      4  O          6.6540   -2.7220    1.4950 O.3     1  UNL1       -0.4810
      5  H          7.1610   -3.5450    1.8310 H       1  UNL1        0.2960
      6  C          5.2050   -0.0310    1.9000 C.3     1  UNL1        0.0470
      7  C          5.5120    1.2720    1.3150 C.2     1  UNL1       -0.0470
      8  C          4.8750    1.7840    0.2120 C.2     1  UNL1        0.0040
      9  C          6.4930    2.0410    1.8900 C.2     1  UNL1        0.0040
     10  C          5.1770    3.0120   -0.3260 C.2     1  UNL1        0.0000
     11  C          6.8220    3.2750    1.3780 C.2     1  UNL1        0.0000
     12  C          6.1640    3.7780    0.2570 C.2     1  UNL1        0.0000
@<TRIPOS>BOND
     1    10     8    1
     2    10    12    2
     3     8     7    2
     4    12    11    1
     5     7     9    1
     6     7     6    1
     7    11     9    2
     8     4     5    1
     9     4     2    1
    10     3     2    2
    11     2     1    1
    12     6     1    1
