@<TRIPOS>MOLECULE
/home/cewinharhar/GITHUB/reincatalyze/data/processed/docking_pred/2023-Apr-25-2140_maxeplen10_maxtrainstep200_exh16_gamma099_lrac3e-4_lrcr1e-3/9282b18981f6708324b0af4486d36de930a99903_ligand_2.pdbqt
 12 12 0 0 0
SMALL
GASTEIGER

@<TRIPOS>ATOM
      1  C          8.0950   -5.7690   11.6840 C.3     1  UNL1        0.1270
      2  C          7.5810   -4.4000   11.4200 C.2     1  UNL1        0.3030
      3  O          7.0730   -3.6600   12.3000 O.2     1  UNL1       -0.2520
      4  O          7.6590   -3.8910   10.1320 O.3     1  UNL1       -0.4810
      5  H          8.5970   -3.8290    9.7300 H       1  UNL1        0.2960
      6  C          8.5830   -6.3750   10.4020 C.3     1  UNL1        0.0470
      7  C          9.8830   -7.0340   10.5010 C.2     1  UNL1       -0.0470
      8  C         10.0580   -8.3940   10.4300 C.2     1  UNL1        0.0040
      9  C         11.0050   -6.2630   10.6770 C.2     1  UNL1        0.0040
     10  C         11.2890   -8.9980   10.5260 C.2     1  UNL1        0.0000
     11  C         12.2530   -6.8330   10.7780 C.2     1  UNL1        0.0000
     12  C         12.4110   -8.2160   10.7030 C.2     1  UNL1        0.0000
@<TRIPOS>BOND
     1     5     4    1
     2     4     2    1
     3     6     7    1
     4     6     1    1
     5     8     7    2
     6     8    10    1
     7     7     9    1
     8    10    12    2
     9     9    11    2
    10    12    11    1
    11     2     1    1
    12     2     3    2
