@<TRIPOS>MOLECULE
/home/cewinharhar/GITHUB/reincatalyze/data/processed/docking_pred/2023-Apr-25-2140_maxeplen10_maxtrainstep200_exh16_gamma099_lrac3e-4_lrcr1e-3/9282b18981f6708324b0af4486d36de930a99903_ligand_2.pdbqt
 12 12 0 0 0
SMALL
GASTEIGER

@<TRIPOS>ATOM
      1  C          5.4180    2.9270    0.0940 C.3     1  UNL1        0.1270
      2  C          6.1480    4.0190    0.7890 C.2     1  UNL1        0.3030
      3  O          6.9850    4.7720    0.2290 O.2     1  UNL1       -0.2520
      4  O          5.9030    4.2370    2.1370 O.3     1  UNL1       -0.4810
      5  H          5.0620    3.7960    2.5170 H       1  UNL1        0.2960
      6  C          4.7420    2.0530    1.1080 C.3     1  UNL1        0.0470
      7  C          5.5180    0.8820    1.5090 C.2     1  UNL1       -0.0470
      8  C          6.7640    0.9500    2.0810 C.2     1  UNL1        0.0040
      9  C          4.9840   -0.3670    1.3080 C.2     1  UNL1        0.0040
     10  C          7.4810   -0.1630    2.4530 C.2     1  UNL1        0.0000
     11  C          5.6740   -1.5020    1.6660 C.2     1  UNL1        0.0000
     12  C          6.9380   -1.4130    2.2470 C.2     1  UNL1        0.0000
@<TRIPOS>BOND
     1     1     2    1
     2     1     6    1
     3     3     2    2
     4     2     4    1
     5     6     7    1
     6     9     7    2
     7     9    11    1
     8     7     8    1
     9    11    12    2
    10     8    10    2
    11     4     5    1
    12    12    10    1
