@<TRIPOS>MOLECULE
/home/cewinharhar/GITHUB/reincatalyze/data/processed/docking_pred/2023-Apr-25-2140_maxeplen10_maxtrainstep200_exh16_gamma099_lrac3e-4_lrcr1e-3/9282b18981f6708324b0af4486d36de930a99903_ligand_2.pdbqt
 12 12 0 0 0
SMALL
GASTEIGER

@<TRIPOS>ATOM
      1  C          6.3630   -0.6000    2.7510 C.3     1  UNL1        0.1270
      2  C          7.1560   -1.5230    1.8980 C.2     1  UNL1        0.3030
      3  O          8.3170   -1.2730    1.4860 O.2     1  UNL1       -0.2520
      4  O          6.5980   -2.7370    1.5260 O.3     1  UNL1       -0.4810
      5  H          6.1150   -2.7510    0.6250 H       1  UNL1        0.2960
      6  C          5.2520   -0.0000    1.9400 C.3     1  UNL1        0.0470
      7  C          5.5610    1.3060    1.3640 C.2     1  UNL1       -0.0470
      8  C          6.5180    2.1540    1.8650 C.2     1  UNL1        0.0040
      9  C          4.8620    1.7260    0.2600 C.2     1  UNL1        0.0040
     10  C          6.7970    3.3810    1.3110 C.2     1  UNL1        0.0000
     11  C          5.1140    2.9480   -0.3200 C.2     1  UNL1        0.0000
     12  C          6.0910    3.7950    0.2020 C.2     1  UNL1        0.0000
@<TRIPOS>BOND
     1    11    12    2
     2    11     9    1
     3    12    10    1
     4     9     7    2
     5     5     4    1
     6    10     8    2
     7     7     8    1
     8     7     6    1
     9     3     2    2
    10     4     2    1
    11     2     1    1
    12     6     1    1
