@<TRIPOS>MOLECULE
/home/cewinharhar/GITHUB/reincatalyze/data/processed/docking_pred/2023-Apr-25-2140_maxeplen10_maxtrainstep200_exh16_gamma099_lrac3e-4_lrcr1e-3/93b19c8378935853b44d27bbf459025f9fc44a5e_ligand_2.pdbqt
 12 12 0 0 0
SMALL
GASTEIGER

@<TRIPOS>ATOM
      1  C          8.2320   -1.6370    1.1460 C.3     1  UNL1        0.1270
      2  C          8.5570   -2.8660    0.3760 C.2     1  UNL1        0.3030
      3  O          9.2280   -3.8240    0.8360 O.2     1  UNL1       -0.2520
      4  O          8.1010   -2.9800   -0.9280 O.3     1  UNL1       -0.4810
      5  H          7.7570   -3.9020   -1.2040 H       1  UNL1        0.2960
      6  C          6.7430   -1.5150    1.2850 C.3     1  UNL1        0.0470
      7  C          6.1920   -0.2530    0.7940 C.2     1  UNL1       -0.0470
      8  C          5.4300    0.5960    1.5580 C.2     1  UNL1        0.0040
      9  C          6.4420    0.1180   -0.5030 C.2     1  UNL1        0.0040
     10  C          4.9200    1.7800    1.0790 C.2     1  UNL1        0.0000
     11  C          5.9470    1.2950   -1.0150 C.2     1  UNL1        0.0000
     12  C          5.1750    2.1450   -0.2250 C.2     1  UNL1        0.0000
@<TRIPOS>BOND
     1     5     4    1
     2    11     9    1
     3    11    12    2
     4     4     2    1
     5     9     7    2
     6    12    10    1
     7     2     3    2
     8     2     1    1
     9     7     6    1
    10     7     8    1
    11    10     8    2
    12     1     6    1
