MODEL 1
REMARK VINA RESULT:      -7.4      0.000      0.000
REMARK SMILES O=C(O)CCc1ccccc1
REMARK SMILES IDX 4 1 2 2 1 3 3 4 5 6 6 7 7 8 11 9 8 10 10 11 9 12
REMARK H PARENT 3 5
REMARK Flexibility Score: inf
ROOT
ATOM      1  C   UNL     1       8.439  -0.558  -2.229  1.00  0.00     0.127 C 
ENDROOT
BRANCH   1   2
ATOM      2  C   UNL     1       8.498  -1.878  -2.909  1.00  0.00     0.303 C 
ATOM      3  O   UNL     1       9.558  -2.530  -3.085  1.00  0.00    -0.252 OA
BRANCH   2   4
ATOM      4  O   UNL     1       7.323  -2.439  -3.385  1.00  0.00    -0.481 OA
ATOM      5  H   UNL     1       7.386  -3.409  -3.703  1.00  0.00     0.296 HD
ENDBRANCH   2   4
ENDBRANCH   1   2
BRANCH   1   6
ATOM      6  C   UNL     1       7.012  -0.103  -2.144  1.00  0.00     0.047 C 
BRANCH   6   7
ATOM      7  C   UNL     1       6.492   0.004  -0.783  1.00  0.00    -0.047 A 
ATOM      8  C   UNL     1       6.597  -0.992   0.156  1.00  0.00     0.004 A 
ATOM      9  C   UNL     1       5.859   1.162  -0.405  1.00  0.00     0.004 A 
ATOM     10  C   UNL     1       6.102  -0.875   1.433  1.00  0.00     0.000 A 
ATOM     11  C   UNL     1       5.351   1.313   0.865  1.00  0.00     0.000 A 
ATOM     12  C   UNL     1       5.467   0.290   1.805  1.00  0.00     0.000 A 
ENDBRANCH   6   7
ENDBRANCH   1   6
TORSDOF 4
ENDMDL
MODEL 2
REMARK VINA RESULT:      -7.3      0.066      1.426
REMARK SMILES O=C(O)CCc1ccccc1
REMARK SMILES IDX 4 1 2 2 1 3 3 4 5 6 6 7 7 8 11 9 8 10 10 11 9 12
REMARK H PARENT 3 5
REMARK Flexibility Score: inf
ROOT
ATOM      1  C   UNL     1       8.442  -0.540  -2.234  1.00  0.00     0.127 C 
ENDROOT
BRANCH   1   2
ATOM      2  C   UNL     1       8.515  -1.853  -2.927  1.00  0.00     0.303 C 
ATOM      3  O   UNL     1       9.581  -2.498  -3.097  1.00  0.00    -0.252 OA
BRANCH   2   4
ATOM      4  O   UNL     1       7.348  -2.417  -3.420  1.00  0.00    -0.481 OA
ATOM      5  H   UNL     1       7.062  -2.110  -4.353  1.00  0.00     0.296 HD
ENDBRANCH   2   4
ENDBRANCH   1   2
BRANCH   1   6
ATOM      6  C   UNL     1       7.014  -0.084  -2.178  1.00  0.00     0.047 C 
BRANCH   6   7
ATOM      7  C   UNL     1       6.487   0.086  -0.826  1.00  0.00    -0.047 A 
ATOM      8  C   UNL     1       5.871   1.230  -0.384  1.00  0.00     0.004 A 
ATOM      9  C   UNL     1       6.608  -0.950   0.067  1.00  0.00     0.004 A 
ATOM     10  C   UNL     1       5.380   1.373   0.892  1.00  0.00     0.000 A 
ATOM     11  C   UNL     1       6.129  -0.841   1.352  1.00  0.00     0.000 A 
ATOM     12  C   UNL     1       5.506   0.329   1.783  1.00  0.00     0.000 A 
ENDBRANCH   6   7
ENDBRANCH   1   6
TORSDOF 4
ENDMDL
MODEL 3
REMARK VINA RESULT:      -6.7      3.332      5.027
REMARK SMILES O=C(O)CCc1ccccc1
REMARK SMILES IDX 4 1 2 2 1 3 3 4 5 6 6 7 7 8 11 9 8 10 10 11 9 12
REMARK H PARENT 3 5
REMARK Flexibility Score: inf
ROOT
ATOM      1  C   UNL     1       5.008   1.766   0.706  1.00  0.00     0.127 C 
ENDROOT
BRANCH   1   2
ATOM      2  C   UNL     1       4.590   1.021   1.922  1.00  0.00     0.303 C 
ATOM      3  O   UNL     1       5.297   0.150   2.489  1.00  0.00    -0.252 OA
BRANCH   2   4
ATOM      4  O   UNL     1       3.349   1.290   2.480  1.00  0.00    -0.481 OA
ATOM      5  H   UNL     1       2.804   0.476   2.774  1.00  0.00     0.296 HD
ENDBRANCH   2   4
ENDBRANCH   1   2
BRANCH   1   6
ATOM      6  C   UNL     1       6.505   1.855   0.665  1.00  0.00     0.047 C 
BRANCH   6   7
ATOM      7  C   UNL     1       7.129   1.051  -0.383  1.00  0.00    -0.047 A 
ATOM      8  C   UNL     1       6.452   0.133  -1.147  1.00  0.00     0.004 A 
ATOM      9  C   UNL     1       8.470   1.211  -0.631  1.00  0.00     0.004 A 
ATOM     10  C   UNL     1       7.054  -0.615  -2.130  1.00  0.00     0.000 A 
ATOM     11  C   UNL     1       9.106   0.478  -1.606  1.00  0.00     0.000 A 
ATOM     12  C   UNL     1       8.401  -0.449  -2.372  1.00  0.00     0.000 A 
ENDBRANCH   6   7
ENDBRANCH   1   6
TORSDOF 4
ENDMDL
MODEL 4
REMARK VINA RESULT:      -6.7      1.950      2.661
REMARK SMILES O=C(O)CCc1ccccc1
REMARK SMILES IDX 4 1 2 2 1 3 3 4 5 6 6 7 7 8 11 9 8 10 10 11 9 12
REMARK H PARENT 3 5
REMARK Flexibility Score: inf
ROOT
ATOM      1  C   UNL     1       8.272   0.202  -2.197  1.00  0.00     0.127 C 
ENDROOT
BRANCH   1   2
ATOM      2  C   UNL     1       9.385   0.345  -1.222  1.00  0.00     0.303 C 
ATOM      3  O   UNL     1       9.505  -0.359  -0.188  1.00  0.00    -0.252 OA
BRANCH   2   4
ATOM      4  O   UNL     1      10.359   1.305  -1.452  1.00  0.00    -0.481 OA
ATOM      5  H   UNL     1      10.190   2.223  -1.035  1.00  0.00     0.296 HD
ENDBRANCH   2   4
ENDBRANCH   1   2
BRANCH   1   6
ATOM      6  C   UNL     1       7.133  -0.530  -1.550  1.00  0.00     0.047 C 
BRANCH   6   7
ATOM      7  C   UNL     1       6.349   0.276  -0.617  1.00  0.00    -0.047 A 
ATOM      8  C   UNL     1       5.793   1.491  -0.936  1.00  0.00     0.004 A 
ATOM      9  C   UNL     1       6.148  -0.194   0.658  1.00  0.00     0.004 A 
ATOM     10  C   UNL     1       5.059   2.237  -0.045  1.00  0.00     0.000 A 
ATOM     11  C   UNL     1       5.419   0.527   1.575  1.00  0.00     0.000 A 
ATOM     12  C   UNL     1       4.862   1.758   1.233  1.00  0.00     0.000 A 
ENDBRANCH   6   7
ENDBRANCH   1   6
TORSDOF 4
ENDMDL
MODEL 5
REMARK VINA RESULT:      -6.5      1.901      2.897
REMARK SMILES O=C(O)CCc1ccccc1
REMARK SMILES IDX 4 1 2 2 1 3 3 4 5 6 6 7 7 8 11 9 8 10 10 11 9 12
REMARK H PARENT 3 5
REMARK Flexibility Score: inf
ROOT
ATOM      1  C   UNL     1       8.232  -1.637   1.146  1.00  0.00     0.127 C 
ENDROOT
BRANCH   1   2
ATOM      2  C   UNL     1       8.557  -2.866   0.376  1.00  0.00     0.303 C 
ATOM      3  O   UNL     1       9.228  -3.824   0.836  1.00  0.00    -0.252 OA
BRANCH   2   4
ATOM      4  O   UNL     1       8.101  -2.980  -0.928  1.00  0.00    -0.481 OA
ATOM      5  H   UNL     1       7.757  -3.902  -1.204  1.00  0.00     0.296 HD
ENDBRANCH   2   4
ENDBRANCH   1   2
BRANCH   1   6
ATOM      6  C   UNL     1       6.743  -1.515   1.285  1.00  0.00     0.047 C 
BRANCH   6   7
ATOM      7  C   UNL     1       6.192  -0.253   0.794  1.00  0.00    -0.047 A 
ATOM      8  C   UNL     1       5.430   0.596   1.558  1.00  0.00     0.004 A 
ATOM      9  C   UNL     1       6.442   0.118  -0.503  1.00  0.00     0.004 A 
ATOM     10  C   UNL     1       4.920   1.780   1.079  1.00  0.00     0.000 A 
ATOM     11  C   UNL     1       5.947   1.295  -1.015  1.00  0.00     0.000 A 
ATOM     12  C   UNL     1       5.175   2.145  -0.225  1.00  0.00     0.000 A 
ENDBRANCH   6   7
ENDBRANCH   1   6
TORSDOF 4
ENDMDL
