@<TRIPOS>MOLECULE
/home/cewinharhar/GITHUB/reincatalyze/data/processed/docking_pred/2023-Apr-25-2140_maxeplen10_maxtrainstep200_exh16_gamma099_lrac3e-4_lrcr1e-3/93b19c8378935853b44d27bbf459025f9fc44a5e_ligand_2.pdbqt
 12 12 0 0 0
SMALL
GASTEIGER

@<TRIPOS>ATOM
      1  C          8.4420   -0.5400   -2.2340 C.3     1  UNL1        0.1270
      2  C          8.5150   -1.8530   -2.9270 C.2     1  UNL1        0.3030
      3  O          9.5810   -2.4980   -3.0970 O.2     1  UNL1       -0.2520
      4  O          7.3480   -2.4170   -3.4200 O.3     1  UNL1       -0.4810
      5  H          7.0620   -2.1100   -4.3530 H       1  UNL1        0.2960
      6  C          7.0140   -0.0840   -2.1780 C.3     1  UNL1        0.0470
      7  C          6.4870    0.0860   -0.8260 C.2     1  UNL1       -0.0470
      8  C          5.8710    1.2300   -0.3840 C.2     1  UNL1        0.0040
      9  C          6.6080   -0.9500    0.0670 C.2     1  UNL1        0.0040
     10  C          5.3800    1.3730    0.8920 C.2     1  UNL1        0.0000
     11  C          6.1290   -0.8410    1.3520 C.2     1  UNL1        0.0000
     12  C          5.5060    0.3290    1.7830 C.2     1  UNL1        0.0000
@<TRIPOS>BOND
     1     5     4    1
     2     4     2    1
     3     3     2    2
     4     2     1    1
     5     1     6    1
     6     6     7    1
     7     7     8    2
     8     7     9    1
     9     8    10    1
    10     9    11    2
    11    10    12    2
    12    11    12    1
