@<TRIPOS>MOLECULE
/home/cewinharhar/GITHUB/reincatalyze/data/processed/docking_pred/2023-Apr-25-2140_maxeplen10_maxtrainstep200_exh16_gamma099_lrac3e-4_lrcr1e-3/93b19c8378935853b44d27bbf459025f9fc44a5e_ligand_2.pdbqt
 12 12 0 0 0
SMALL
GASTEIGER

@<TRIPOS>ATOM
      1  C          8.4390   -0.5580   -2.2290 C.3     1  UNL1        0.1270
      2  C          8.4980   -1.8780   -2.9090 C.2     1  UNL1        0.3030
      3  O          9.5580   -2.5300   -3.0850 O.2     1  UNL1       -0.2520
      4  O          7.3230   -2.4390   -3.3850 O.3     1  UNL1       -0.4810
      5  H          7.3860   -3.4090   -3.7030 H       1  UNL1        0.2960
      6  C          7.0120   -0.1030   -2.1440 C.3     1  UNL1        0.0470
      7  C          6.4920    0.0040   -0.7830 C.2     1  UNL1       -0.0470
      8  C          6.5970   -0.9920    0.1560 C.2     1  UNL1        0.0040
      9  C          5.8590    1.1620   -0.4050 C.2     1  UNL1        0.0040
     10  C          6.1020   -0.8750    1.4330 C.2     1  UNL1        0.0000
     11  C          5.3510    1.3130    0.8650 C.2     1  UNL1        0.0000
     12  C          5.4670    0.2900    1.8050 C.2     1  UNL1        0.0000
@<TRIPOS>BOND
     1     5     4    1
     2     4     2    1
     3     3     2    2
     4     2     1    1
     5     1     6    1
     6     6     7    1
     7     7     9    2
     8     7     8    1
     9     9    11    1
    10     8    10    2
    11    11    12    2
    12    10    12    1
