@<TRIPOS>MOLECULE
/home/cewinharhar/GITHUB/reincatalyze/data/processed/docking_pred/2023-Apr-25-2140_maxeplen10_maxtrainstep200_exh16_gamma099_lrac3e-4_lrcr1e-3/93b19c8378935853b44d27bbf459025f9fc44a5e_ligand_2.pdbqt
 12 12 0 0 0
SMALL
GASTEIGER

@<TRIPOS>ATOM
      1  C          5.0080    1.7660    0.7060 C.3     1  UNL1        0.1270
      2  C          4.5900    1.0210    1.9220 C.2     1  UNL1        0.3030
      3  O          5.2970    0.1500    2.4890 O.2     1  UNL1       -0.2520
      4  O          3.3490    1.2900    2.4800 O.3     1  UNL1       -0.4810
      5  H          2.8040    0.4760    2.7740 H       1  UNL1        0.2960
      6  C          6.5050    1.8550    0.6650 C.3     1  UNL1        0.0470
      7  C          7.1290    1.0510   -0.3830 C.2     1  UNL1       -0.0470
      8  C          6.4520    0.1330   -1.1470 C.2     1  UNL1        0.0040
      9  C          8.4700    1.2110   -0.6310 C.2     1  UNL1        0.0040
     10  C          7.0540   -0.6150   -2.1300 C.2     1  UNL1        0.0000
     11  C          9.1060    0.4780   -1.6060 C.2     1  UNL1        0.0000
     12  C          8.4010   -0.4490   -2.3720 C.2     1  UNL1        0.0000
@<TRIPOS>BOND
     1    12    10    2
     2    12    11    1
     3    10     8    1
     4    11     9    2
     5     8     7    2
     6     9     7    1
     7     7     6    1
     8     6     1    1
     9     1     2    1
    10     2     4    1
    11     2     3    2
    12     4     5    1
