@<TRIPOS>MOLECULE
/home/cewinharhar/GITHUB/reincatalyze/data/processed/docking_pred/2023-Apr-25-2140_maxeplen10_maxtrainstep200_exh16_gamma099_lrac3e-4_lrcr1e-3/93b19c8378935853b44d27bbf459025f9fc44a5e_ligand_2.pdbqt
 12 12 0 0 0
SMALL
GASTEIGER

@<TRIPOS>ATOM
      1  C          8.2720    0.2020   -2.1970 C.3     1  UNL1        0.1270
      2  C          9.3850    0.3450   -1.2220 C.2     1  UNL1        0.3030
      3  O          9.5050   -0.3590   -0.1880 O.2     1  UNL1       -0.2520
      4  O         10.3590    1.3050   -1.4520 O.3     1  UNL1       -0.4810
      5  H         10.1900    2.2230   -1.0350 H       1  UNL1        0.2960
      6  C          7.1330   -0.5300   -1.5500 C.3     1  UNL1        0.0470
      7  C          6.3490    0.2760   -0.6170 C.2     1  UNL1       -0.0470
      8  C          5.7930    1.4910   -0.9360 C.2     1  UNL1        0.0040
      9  C          6.1480   -0.1940    0.6580 C.2     1  UNL1        0.0040
     10  C          5.0590    2.2370   -0.0450 C.2     1  UNL1        0.0000
     11  C          5.4190    0.5270    1.5750 C.2     1  UNL1        0.0000
     12  C          4.8620    1.7580    1.2330 C.2     1  UNL1        0.0000
@<TRIPOS>BOND
     1     1     6    1
     2     1     2    1
     3     6     7    1
     4     4     2    1
     5     4     5    1
     6     2     3    2
     7     8     7    2
     8     8    10    1
     9     7     9    1
    10    10    12    2
    11     9    11    2
    12    12    11    1
