@<TRIPOS>MOLECULE
/home/cewinharhar/GITHUB/reincatalyze/data/processed/docking_pred/2023-Apr-25-2140_maxeplen10_maxtrainstep200_exh16_gamma099_lrac3e-4_lrcr1e-3/93f5b296c54773c487a3666b5d29638d3a74aef5_ligand_2.pdbqt
 12 12 0 0 0
SMALL
GASTEIGER

@<TRIPOS>ATOM
      1  C          4.9950    1.7970    0.6730 C.3     1  UNL1        0.1270
      2  C          4.5250    1.0990    1.8980 C.2     1  UNL1        0.3030
      3  O          5.1800    0.2040    2.4900 O.2     1  UNL1       -0.2520
      4  O          3.2930    1.4420    2.4350 O.3     1  UNL1       -0.4810
      5  H          2.4730    1.0800    1.9440 H       1  UNL1        0.2960
      6  C          6.4930    1.8780    0.6880 C.3     1  UNL1        0.0470
      7  C          7.1490    1.0980   -0.3590 C.2     1  UNL1       -0.0470
      8  C          8.4900    1.1780   -0.6450 C.2     1  UNL1        0.0040
      9  C          6.3950    0.2310   -1.1110 C.2     1  UNL1        0.0040
     10  C          9.0920    0.4370   -1.6340 C.2     1  UNL1        0.0000
     11  C          6.9650   -0.5250   -2.1090 C.2     1  UNL1        0.0000
     12  C          8.3280   -0.4310   -2.3840 C.2     1  UNL1        0.0000
@<TRIPOS>BOND
     1    12    11    2
     2    12    10    1
     3    11     9    1
     4    10     8    2
     5     9     7    2
     6     8     7    1
     7     7     6    1
     8     1     6    1
     9     1     2    1
    10     2     4    1
    11     2     3    2
    12     5     4    1
