@<TRIPOS>MOLECULE
/home/cewinharhar/GITHUB/reincatalyze/data/processed/docking_pred/2023-Apr-25-2140_maxeplen10_maxtrainstep200_exh16_gamma099_lrac3e-4_lrcr1e-3/93f5b296c54773c487a3666b5d29638d3a74aef5_ligand_2.pdbqt
 12 12 0 0 0
SMALL
GASTEIGER

@<TRIPOS>ATOM
      1  C          8.4550   -0.6280   -2.1430 C.3     1  UNL1        0.1270
      2  C          8.5150   -1.9020   -2.9050 C.2     1  UNL1        0.3030
      3  O          9.5750   -2.5460   -3.1130 O.2     1  UNL1       -0.2520
      4  O          7.3420   -2.4290   -3.4240 O.3     1  UNL1       -0.4810
      5  H          6.4790   -1.9470   -3.1590 H       1  UNL1        0.2960
      6  C          7.0420   -0.1250   -2.1190 C.3     1  UNL1        0.0470
      7  C          6.4830    0.0430   -0.7790 C.2     1  UNL1       -0.0470
      8  C          5.8180    1.1700   -0.3650 C.2     1  UNL1        0.0040
      9  C          6.6240   -0.9770    0.1290 C.2     1  UNL1        0.0040
     10  C          5.2980    1.3110    0.9000 C.2     1  UNL1        0.0000
     11  C          6.1170   -0.8690    1.4040 C.2     1  UNL1        0.0000
     12  C          5.4440    0.2840    1.8070 C.2     1  UNL1        0.0000
@<TRIPOS>BOND
     1     4     5    1
     2     4     2    1
     3     3     2    2
     4     2     1    1
     5     1     6    1
     6     6     7    1
     7     7     8    2
     8     7     9    1
     9     8    10    1
    10     9    11    2
    11    10    12    2
    12    11    12    1
