@<TRIPOS>MOLECULE
/home/cewinharhar/GITHUB/reincatalyze/data/processed/docking_pred/2023-Apr-25-2140_maxeplen10_maxtrainstep200_exh16_gamma099_lrac3e-4_lrcr1e-3/93f5b296c54773c487a3666b5d29638d3a74aef5_ligand_2.pdbqt
 12 12 0 0 0
SMALL
GASTEIGER

@<TRIPOS>ATOM
      1  C          8.2500    0.2580   -2.1580 C.3     1  UNL1        0.1270
      2  C          9.3820    0.3740   -1.2030 C.2     1  UNL1        0.3030
      3  O          9.5220   -0.3570   -0.1890 O.2     1  UNL1       -0.2520
      4  O         10.3530    1.3390   -1.4270 O.3     1  UNL1       -0.4810
      5  H         10.5470    1.9700   -0.6460 H       1  UNL1        0.2960
      6  C          7.1370   -0.5220   -1.5220 C.3     1  UNL1        0.0470
      7  C          6.3540    0.2310   -0.5450 C.2     1  UNL1       -0.0470
      8  C          5.7890    1.4570   -0.8000 C.2     1  UNL1        0.0040
      9  C          6.1630   -0.3030    0.7040 C.2     1  UNL1        0.0040
     10  C          5.0550    2.1520    0.1310 C.2     1  UNL1        0.0000
     11  C          5.4340    0.3650    1.6610 C.2     1  UNL1        0.0000
     12  C          4.8680    1.6090    1.3840 C.2     1  UNL1        0.0000
@<TRIPOS>BOND
     1     1     6    1
     2     1     2    1
     3     6     7    1
     4     4     2    1
     5     4     5    1
     6     2     3    2
     7     8     7    2
     8     8    10    1
     9     7     9    1
    10    10    12    2
    11     9    11    2
    12    12    11    1
