@<TRIPOS>MOLECULE
/home/cewinharhar/GITHUB/reincatalyze/data/processed/docking_pred/2023-Apr-25-2140_maxeplen10_maxtrainstep200_exh16_gamma099_lrac3e-4_lrcr1e-3/93f5b296c54773c487a3666b5d29638d3a74aef5_ligand_2.pdbqt
 12 12 0 0 0
SMALL
GASTEIGER

@<TRIPOS>ATOM
      1  C          8.1600   -1.4910    1.0640 C.3     1  UNL1        0.1270
      2  C          8.4560   -2.7430    0.3210 C.2     1  UNL1        0.3030
      3  O          9.0470   -3.7330    0.8230 O.2     1  UNL1       -0.2520
      4  O          8.0650   -2.8440   -1.0060 O.3     1  UNL1       -0.4810
      5  H          7.1310   -3.2280   -1.1700 H       1  UNL1        0.2960
      6  C          6.6750   -1.3480    1.2300 C.3     1  UNL1        0.0470
      7  C          6.1270   -0.0950    0.7180 C.2     1  UNL1       -0.0470
      8  C          6.3310    0.3620   -0.5610 C.2     1  UNL1        0.0040
      9  C          5.3630    0.6840    1.5510 C.2     1  UNL1        0.0040
     10  C          5.8080    1.5450   -1.0270 C.2     1  UNL1        0.0000
     11  C          4.8250    1.8740    1.1180 C.2     1  UNL1        0.0000
     12  C          5.0420    2.3210   -0.1850 C.2     1  UNL1        0.0000
@<TRIPOS>BOND
     1     5     4    1
     2    10     8    1
     3    10    12    2
     4     4     2    1
     5     8     7    2
     6    12    11    1
     7     2     3    2
     8     2     1    1
     9     7     6    1
    10     7     9    1
    11     1     6    1
    12    11     9    2
