@<TRIPOS>MOLECULE
/home/cewinharhar/GITHUB/reincatalyze/data/processed/docking_pred/2023-Apr-25-2140_maxeplen10_maxtrainstep200_exh16_gamma099_lrac3e-4_lrcr1e-3/93f5b296c54773c487a3666b5d29638d3a74aef5_ligand_2.pdbqt
 12 12 0 0 0
SMALL
GASTEIGER

@<TRIPOS>ATOM
      1  C          8.4390   -0.5400   -2.2390 C.3     1  UNL1        0.1270
      2  C          8.5120   -1.8570   -2.9230 C.2     1  UNL1        0.3030
      3  O          9.5800   -2.4970   -3.1010 O.2     1  UNL1       -0.2520
      4  O          7.3430   -2.4310   -3.3990 O.3     1  UNL1       -0.4810
      5  H          6.9540   -2.0150   -4.2490 H       1  UNL1        0.2960
      6  C          7.0080   -0.0970   -2.1580 C.3     1  UNL1        0.0470
      7  C          6.4880    0.0220   -0.7980 C.2     1  UNL1       -0.0470
      8  C          6.5890   -0.9680    0.1480 C.2     1  UNL1        0.0040
      9  C          5.8600    1.1860   -0.4290 C.2     1  UNL1        0.0040
     10  C          6.0940   -0.8390    1.4240 C.2     1  UNL1        0.0000
     11  C          5.3530    1.3490    0.8400 C.2     1  UNL1        0.0000
     12  C          5.4650    0.3330    1.7870 C.2     1  UNL1        0.0000
@<TRIPOS>BOND
     1     5     4    1
     2     4     2    1
     3     3     2    2
     4     2     1    1
     5     1     6    1
     6     6     7    1
     7     7     9    2
     8     7     8    1
     9     9    11    1
    10     8    10    2
    11    11    12    2
    12    10    12    1
