@<TRIPOS>MOLECULE
/home/cewinharhar/GITHUB/reincatalyze/data/processed/docking_pred/2023-Apr-25-2140_maxeplen10_maxtrainstep200_exh16_gamma099_lrac3e-4_lrcr1e-3/9545d038953ad0bd3b50a81295f717fe73892d7b_ligand_2.pdbqt
 12 12 0 0 0
SMALL
GASTEIGER

@<TRIPOS>ATOM
      1  C          8.5200    0.7420   -1.6270 C.3     1  UNL1        0.1270
      2  C          9.6450    0.2880   -0.7680 C.2     1  UNL1        0.3030
      3  O          9.5170   -0.5180    0.1880 O.2     1  UNL1       -0.2520
      4  O         10.9200    0.7720   -1.0230 O.3     1  UNL1       -0.4810
      5  H         11.6520    0.4690   -0.3760 H       1  UNL1        0.2960
      6  C          7.3250   -0.1330   -1.3870 C.3     1  UNL1        0.0470
      7  C          6.4350    0.3360   -0.3280 C.2     1  UNL1       -0.0470
      8  C          6.2090   -0.3510    0.8400 C.2     1  UNL1        0.0040
      9  C          5.7800    1.5300   -0.4940 C.2     1  UNL1        0.0040
     10  C          5.3680    0.1060    1.8270 C.2     1  UNL1        0.0000
     11  C          4.9300    2.0170    0.4730 C.2     1  UNL1        0.0000
     12  C          4.7130    1.3060    1.6520 C.2     1  UNL1        0.0000
@<TRIPOS>BOND
     1     1     6    1
     2     1     2    1
     3     6     7    1
     4     4     2    1
     5     4     5    1
     6     2     3    2
     7     9     7    2
     8     9    11    1
     9     7     8    1
    10    11    12    2
    11     8    10    2
    12    12    10    1
