@<TRIPOS>MOLECULE
/home/cewinharhar/GITHUB/reincatalyze/data/processed/docking_pred/2023-Apr-25-2140_maxeplen10_maxtrainstep200_exh16_gamma099_lrac3e-4_lrcr1e-3/9545d038953ad0bd3b50a81295f717fe73892d7b_ligand_2.pdbqt
 12 12 0 0 0
SMALL
GASTEIGER

@<TRIPOS>ATOM
      1  C          8.4220   -0.5700   -2.1860 C.3     1  UNL1        0.1270
      2  C          8.5000   -1.8720   -2.8980 C.2     1  UNL1        0.3030
      3  O          9.5700   -2.5050   -3.0860 O.2     1  UNL1       -0.2520
      4  O          7.3340   -2.4380   -3.3900 O.3     1  UNL1       -0.4810
      5  H          7.0820   -2.1860   -4.3480 H       1  UNL1        0.2960
      6  C          6.9950   -0.1100   -2.1400 C.3     1  UNL1        0.0470
      7  C          6.4600    0.0670   -0.7920 C.2     1  UNL1       -0.0470
      8  C          5.8370    1.2130   -0.3620 C.2     1  UNL1        0.0040
      9  C          6.5800   -0.9610    0.1090 C.2     1  UNL1        0.0040
     10  C          5.3390    1.3630    0.9110 C.2     1  UNL1        0.0000
     11  C          6.0940   -0.8450    1.3910 C.2     1  UNL1        0.0000
     12  C          5.4640    0.3260    1.8090 C.2     1  UNL1        0.0000
@<TRIPOS>BOND
     1     5     4    1
     2     4     2    1
     3     3     2    2
     4     2     1    1
     5     1     6    1
     6     6     7    1
     7     7     8    2
     8     7     9    1
     9     8    10    1
    10     9    11    2
    11    10    12    2
    12    11    12    1
