MODEL 1
REMARK VINA RESULT:      -7.4      0.000      0.000
REMARK SMILES O=C(O)CCc1ccccc1
REMARK SMILES IDX 4 1 2 2 1 3 3 4 5 6 6 7 7 8 11 9 8 10 10 11 9 12
REMARK H PARENT 3 5
REMARK Flexibility Score: inf
ROOT
ATOM      1  C   UNL     1       8.447  -0.595  -2.200  1.00  0.00     0.127 C 
ENDROOT
BRANCH   1   2
ATOM      2  C   UNL     1       8.511  -1.894  -2.919  1.00  0.00     0.303 C 
ATOM      3  O   UNL     1       9.572  -2.541  -3.104  1.00  0.00    -0.252 OA
BRANCH   2   4
ATOM      4  O   UNL     1       7.340  -2.440  -3.423  1.00  0.00    -0.481 OA
ATOM      5  H   UNL     1       7.405  -3.400  -3.768  1.00  0.00     0.296 HD
ENDBRANCH   2   4
ENDBRANCH   1   2
BRANCH   1   6
ATOM      6  C   UNL     1       7.022  -0.126  -2.142  1.00  0.00     0.047 C 
BRANCH   6   7
ATOM      7  C   UNL     1       6.489   0.019  -0.789  1.00  0.00    -0.047 A 
ATOM      8  C   UNL     1       6.579  -0.954   0.176  1.00  0.00     0.004 A 
ATOM      9  C   UNL     1       5.858   1.189  -0.448  1.00  0.00     0.004 A 
ATOM     10  C   UNL     1       6.071  -0.801   1.444  1.00  0.00     0.000 A 
ATOM     11  C   UNL     1       5.338   1.376   0.812  1.00  0.00     0.000 A 
ATOM     12  C   UNL     1       5.439   0.377   1.779  1.00  0.00     0.000 A 
ENDBRANCH   6   7
ENDBRANCH   1   6
TORSDOF 4
ENDMDL
MODEL 2
REMARK VINA RESULT:      -7.3      0.061      1.425
REMARK SMILES O=C(O)CCc1ccccc1
REMARK SMILES IDX 4 1 2 2 1 3 3 4 5 6 6 7 7 8 11 9 8 10 10 11 9 12
REMARK H PARENT 3 5
REMARK Flexibility Score: inf
ROOT
ATOM      1  C   UNL     1       8.422  -0.570  -2.186  1.00  0.00     0.127 C 
ENDROOT
BRANCH   1   2
ATOM      2  C   UNL     1       8.500  -1.872  -2.898  1.00  0.00     0.303 C 
ATOM      3  O   UNL     1       9.570  -2.505  -3.086  1.00  0.00    -0.252 OA
BRANCH   2   4
ATOM      4  O   UNL     1       7.334  -2.438  -3.390  1.00  0.00    -0.481 OA
ATOM      5  H   UNL     1       7.082  -2.186  -4.348  1.00  0.00     0.296 HD
ENDBRANCH   2   4
ENDBRANCH   1   2
BRANCH   1   6
ATOM      6  C   UNL     1       6.995  -0.110  -2.140  1.00  0.00     0.047 C 
BRANCH   6   7
ATOM      7  C   UNL     1       6.460   0.067  -0.792  1.00  0.00    -0.047 A 
ATOM      8  C   UNL     1       5.837   1.213  -0.362  1.00  0.00     0.004 A 
ATOM      9  C   UNL     1       6.580  -0.961   0.109  1.00  0.00     0.004 A 
ATOM     10  C   UNL     1       5.339   1.363   0.911  1.00  0.00     0.000 A 
ATOM     11  C   UNL     1       6.094  -0.845   1.391  1.00  0.00     0.000 A 
ATOM     12  C   UNL     1       5.464   0.326   1.809  1.00  0.00     0.000 A 
ENDBRANCH   6   7
ENDBRANCH   1   6
TORSDOF 4
ENDMDL
MODEL 3
REMARK VINA RESULT:      -6.7      3.349      5.057
REMARK SMILES O=C(O)CCc1ccccc1
REMARK SMILES IDX 4 1 2 2 1 3 3 4 5 6 6 7 7 8 11 9 8 10 10 11 9 12
REMARK H PARENT 3 5
REMARK Flexibility Score: inf
ROOT
ATOM      1  C   UNL     1       5.009   1.738   0.679  1.00  0.00     0.127 C 
ENDROOT
BRANCH   1   2
ATOM      2  C   UNL     1       4.594   1.029   1.917  1.00  0.00     0.303 C 
ATOM      3  O   UNL     1       5.296   0.164   2.499  1.00  0.00    -0.252 OA
BRANCH   2   4
ATOM      4  O   UNL     1       3.362   1.328   2.480  1.00  0.00    -0.481 OA
ATOM      5  H   UNL     1       3.318   1.306   3.501  1.00  0.00     0.296 HD
ENDBRANCH   2   4
ENDBRANCH   1   2
BRANCH   1   6
ATOM      6  C   UNL     1       6.503   1.879   0.661  1.00  0.00     0.047 C 
BRANCH   6   7
ATOM      7  C   UNL     1       7.171   1.096  -0.377  1.00  0.00    -0.047 A 
ATOM      8  C   UNL     1       8.514   1.179  -0.651  1.00  0.00     0.004 A 
ATOM      9  C   UNL     1       6.426   0.224  -1.131  1.00  0.00     0.004 A 
ATOM     10  C   UNL     1       9.126   0.435  -1.632  1.00  0.00     0.000 A 
ATOM     11  C   UNL     1       7.005  -0.535  -2.121  1.00  0.00     0.000 A 
ATOM     12  C   UNL     1       8.371  -0.438  -2.385  1.00  0.00     0.000 A 
ENDBRANCH   6   7
ENDBRANCH   1   6
TORSDOF 4
ENDMDL
MODEL 4
REMARK VINA RESULT:      -6.5      2.106      2.378
REMARK SMILES O=C(O)CCc1ccccc1
REMARK SMILES IDX 4 1 2 2 1 3 3 4 5 6 6 7 7 8 11 9 8 10 10 11 9 12
REMARK H PARENT 3 5
REMARK Flexibility Score: inf
ROOT
ATOM      1  C   UNL     1       8.520   0.742  -1.627  1.00  0.00     0.127 C 
ENDROOT
BRANCH   1   2
ATOM      2  C   UNL     1       9.645   0.288  -0.768  1.00  0.00     0.303 C 
ATOM      3  O   UNL     1       9.517  -0.518   0.188  1.00  0.00    -0.252 OA
BRANCH   2   4
ATOM      4  O   UNL     1      10.920   0.772  -1.023  1.00  0.00    -0.481 OA
ATOM      5  H   UNL     1      11.652   0.469  -0.376  1.00  0.00     0.296 HD
ENDBRANCH   2   4
ENDBRANCH   1   2
BRANCH   1   6
ATOM      6  C   UNL     1       7.325  -0.133  -1.387  1.00  0.00     0.047 C 
BRANCH   6   7
ATOM      7  C   UNL     1       6.435   0.336  -0.328  1.00  0.00    -0.047 A 
ATOM      8  C   UNL     1       6.209  -0.351   0.840  1.00  0.00     0.004 A 
ATOM      9  C   UNL     1       5.780   1.530  -0.494  1.00  0.00     0.004 A 
ATOM     10  C   UNL     1       5.368   0.106   1.827  1.00  0.00     0.000 A 
ATOM     11  C   UNL     1       4.930   2.017   0.473  1.00  0.00     0.000 A 
ATOM     12  C   UNL     1       4.713   1.306   1.652  1.00  0.00     0.000 A 
ENDBRANCH   6   7
ENDBRANCH   1   6
TORSDOF 4
ENDMDL
MODEL 5
REMARK VINA RESULT:      -6.5      3.689      4.974
REMARK SMILES O=C(O)CCc1ccccc1
REMARK SMILES IDX 4 1 2 2 1 3 3 4 5 6 6 7 7 8 11 9 8 10 10 11 9 12
REMARK H PARENT 3 5
REMARK Flexibility Score: inf
ROOT
ATOM      1  C   UNL     1       5.286   2.900   0.103  1.00  0.00     0.127 C 
ENDROOT
BRANCH   1   2
ATOM      2  C   UNL     1       6.185   3.764   0.912  1.00  0.00     0.303 C 
ATOM      3  O   UNL     1       6.349   3.639   2.152  1.00  0.00    -0.252 OA
BRANCH   2   4
ATOM      4  O   UNL     1       6.893   4.774   0.278  1.00  0.00    -0.481 OA
ATOM      5  H   UNL     1       6.614   5.730   0.509  1.00  0.00     0.296 HD
ENDBRANCH   2   4
ENDBRANCH   1   2
BRANCH   1   6
ATOM      6  C   UNL     1       5.185   1.547   0.744  1.00  0.00     0.047 C 
BRANCH   6   7
ATOM      7  C   UNL     1       6.029   0.524   0.133  1.00  0.00    -0.047 A 
ATOM      8  C   UNL     1       6.529  -0.561   0.811  1.00  0.00     0.004 A 
ATOM      9  C   UNL     1       6.352   0.639  -1.197  1.00  0.00     0.004 A 
ATOM     10  C   UNL     1       7.322  -1.514   0.220  1.00  0.00     0.000 A 
ATOM     11  C   UNL     1       7.145  -0.296  -1.820  1.00  0.00     0.000 A 
ATOM     12  C   UNL     1       7.642  -1.391  -1.115  1.00  0.00     0.000 A 
ENDBRANCH   6   7
ENDBRANCH   1   6
TORSDOF 4
ENDMDL
