@<TRIPOS>MOLECULE
/home/cewinharhar/GITHUB/reincatalyze/data/processed/docking_pred/2023-Apr-25-2140_maxeplen10_maxtrainstep200_exh16_gamma099_lrac3e-4_lrcr1e-3/9545d038953ad0bd3b50a81295f717fe73892d7b_ligand_2.pdbqt
 12 12 0 0 0
SMALL
GASTEIGER

@<TRIPOS>ATOM
      1  C          5.2860    2.9000    0.1030 C.3     1  UNL1        0.1270
      2  C          6.1850    3.7640    0.9120 C.2     1  UNL1        0.3030
      3  O          6.3490    3.6390    2.1520 O.2     1  UNL1       -0.2520
      4  O          6.8930    4.7740    0.2780 O.3     1  UNL1       -0.4810
      5  H          6.6140    5.7300    0.5090 H       1  UNL1        0.2960
      6  C          5.1850    1.5470    0.7440 C.3     1  UNL1        0.0470
      7  C          6.0290    0.5240    0.1330 C.2     1  UNL1       -0.0470
      8  C          6.5290   -0.5610    0.8110 C.2     1  UNL1        0.0040
      9  C          6.3520    0.6390   -1.1970 C.2     1  UNL1        0.0040
     10  C          7.3220   -1.5140    0.2200 C.2     1  UNL1        0.0000
     11  C          7.1450   -0.2960   -1.8200 C.2     1  UNL1        0.0000
     12  C          7.6420   -1.3910   -1.1150 C.2     1  UNL1        0.0000
@<TRIPOS>BOND
     1    11     9    1
     2    11    12    2
     3     9     7    2
     4    12    10    1
     5     1     6    1
     6     1     2    1
     7     7     6    1
     8     7     8    1
     9    10     8    2
    10     4     5    1
    11     4     2    1
    12     2     3    2
