@<TRIPOS>MOLECULE
/home/cewinharhar/GITHUB/reincatalyze/data/processed/docking_pred/2023-Apr-25-2140_maxeplen10_maxtrainstep200_exh16_gamma099_lrac3e-4_lrcr1e-3/9545d038953ad0bd3b50a81295f717fe73892d7b_ligand_2.pdbqt
 12 12 0 0 0
SMALL
GASTEIGER

@<TRIPOS>ATOM
      1  C          8.4470   -0.5950   -2.2000 C.3     1  UNL1        0.1270
      2  C          8.5110   -1.8940   -2.9190 C.2     1  UNL1        0.3030
      3  O          9.5720   -2.5410   -3.1040 O.2     1  UNL1       -0.2520
      4  O          7.3400   -2.4400   -3.4230 O.3     1  UNL1       -0.4810
      5  H          7.4050   -3.4000   -3.7680 H       1  UNL1        0.2960
      6  C          7.0220   -0.1260   -2.1420 C.3     1  UNL1        0.0470
      7  C          6.4890    0.0190   -0.7890 C.2     1  UNL1       -0.0470
      8  C          6.5790   -0.9540    0.1760 C.2     1  UNL1        0.0040
      9  C          5.8580    1.1890   -0.4480 C.2     1  UNL1        0.0040
     10  C          6.0710   -0.8010    1.4440 C.2     1  UNL1        0.0000
     11  C          5.3380    1.3760    0.8120 C.2     1  UNL1        0.0000
     12  C          5.4390    0.3770    1.7790 C.2     1  UNL1        0.0000
@<TRIPOS>BOND
     1     5     4    1
     2     4     2    1
     3     3     2    2
     4     2     1    1
     5     1     6    1
     6     6     7    1
     7     7     9    2
     8     7     8    1
     9     9    11    1
    10     8    10    2
    11    11    12    2
    12    10    12    1
