@<TRIPOS>MOLECULE
/home/cewinharhar/GITHUB/reincatalyze/data/processed/docking_pred/2023-Apr-25-2140_maxeplen10_maxtrainstep200_exh16_gamma099_lrac3e-4_lrcr1e-3/9545d038953ad0bd3b50a81295f717fe73892d7b_ligand_2.pdbqt
 12 12 0 0 0
SMALL
GASTEIGER

@<TRIPOS>ATOM
      1  C          5.0090    1.7380    0.6790 C.3     1  UNL1        0.1270
      2  C          4.5940    1.0290    1.9170 C.2     1  UNL1        0.3030
      3  O          5.2960    0.1640    2.4990 O.2     1  UNL1       -0.2520
      4  O          3.3620    1.3280    2.4800 O.3     1  UNL1       -0.4810
      5  H          3.3180    1.3060    3.5010 H       1  UNL1        0.2960
      6  C          6.5030    1.8790    0.6610 C.3     1  UNL1        0.0470
      7  C          7.1710    1.0960   -0.3770 C.2     1  UNL1       -0.0470
      8  C          8.5140    1.1790   -0.6510 C.2     1  UNL1        0.0040
      9  C          6.4260    0.2240   -1.1310 C.2     1  UNL1        0.0040
     10  C          9.1260    0.4350   -1.6320 C.2     1  UNL1        0.0000
     11  C          7.0050   -0.5350   -2.1210 C.2     1  UNL1        0.0000
     12  C          8.3710   -0.4380   -2.3850 C.2     1  UNL1        0.0000
@<TRIPOS>BOND
     1    12    11    2
     2    12    10    1
     3    11     9    1
     4    10     8    2
     5     9     7    2
     6     8     7    1
     7     7     6    1
     8     6     1    1
     9     1     2    1
    10     2     4    1
    11     2     3    2
    12     4     5    1
