@<TRIPOS>MOLECULE
/home/cewinharhar/GITHUB/reincatalyze/data/processed/docking_pred/2023-Apr-25-2140_maxeplen10_maxtrainstep200_exh16_gamma099_lrac3e-4_lrcr1e-3/955e59fc22a1e87e2ab10a68f3a5c98643a236a4_ligand_2.pdbqt
 12 12 0 0 0
SMALL
GASTEIGER

@<TRIPOS>ATOM
      1  C          8.0910   -0.8080   -2.0340 C.3     1  UNL1        0.1270
      2  C          8.3490   -1.9800   -2.9100 C.2     1  UNL1        0.3030
      3  O          9.4880   -2.4820   -3.0930 O.2     1  UNL1       -0.2520
      4  O          7.2830   -2.5700   -3.5730 O.3     1  UNL1       -0.4810
      5  H          7.5080   -3.3870   -4.1460 H       1  UNL1        0.2960
      6  C          7.4700   -1.2710   -0.7490 C.3     1  UNL1        0.0470
      7  C          6.6020   -0.2870   -0.1080 C.2     1  UNL1       -0.0470
      8  C          6.1340   -0.4020    1.1780 C.2     1  UNL1        0.0040
      9  C          6.2210    0.8230   -0.8200 C.2     1  UNL1        0.0040
     10  C          5.3170    0.5340    1.7650 C.2     1  UNL1        0.0000
     11  C          5.4030    1.7800   -0.2640 C.2     1  UNL1        0.0000
     12  C          4.9390    1.6460    1.0440 C.2     1  UNL1        0.0000
@<TRIPOS>BOND
     1     5     4    1
     2     4     2    1
     3     3     2    2
     4     2     1    1
     5     1     6    1
     6     9    11    1
     7     9     7    2
     8     6     7    1
     9    11    12    2
    10     7     8    1
    11    12    10    1
    12     8    10    2
