@<TRIPOS>MOLECULE
/home/cewinharhar/GITHUB/reincatalyze/data/processed/docking_pred/2023-Apr-25-2140_maxeplen10_maxtrainstep200_exh16_gamma099_lrac3e-4_lrcr1e-3/955e59fc22a1e87e2ab10a68f3a5c98643a236a4_ligand_2.pdbqt
 12 12 0 0 0
SMALL
GASTEIGER

@<TRIPOS>ATOM
      1  C          8.4590   -0.5390   -2.2420 C.3     1  UNL1        0.1270
      2  C          8.5200   -1.8620   -2.9160 C.2     1  UNL1        0.3030
      3  O          9.5820   -2.5140   -3.0850 O.2     1  UNL1       -0.2520
      4  O          7.3470   -2.4270   -3.3920 O.3     1  UNL1       -0.4810
      5  H          7.4320   -3.3600   -3.8000 H       1  UNL1        0.2960
      6  C          7.0320   -0.0820   -2.1670 C.3     1  UNL1        0.0470
      7  C          6.5050    0.0330   -0.8090 C.2     1  UNL1       -0.0470
      8  C          6.5950   -0.9620    0.1330 C.2     1  UNL1        0.0040
      9  C          5.8800    1.1980   -0.4370 C.2     1  UNL1        0.0040
     10  C          6.0940   -0.8370    1.4060 C.2     1  UNL1        0.0000
     11  C          5.3660    1.3570    0.8290 C.2     1  UNL1        0.0000
     12  C          5.4680    0.3350    1.7720 C.2     1  UNL1        0.0000
@<TRIPOS>BOND
     1     5     4    1
     2     4     2    1
     3     3     2    2
     4     2     1    1
     5     1     6    1
     6     6     7    1
     7     7     9    2
     8     7     8    1
     9     9    11    1
    10     8    10    2
    11    11    12    2
    12    10    12    1
