@<TRIPOS>MOLECULE
/home/cewinharhar/GITHUB/reincatalyze/data/processed/docking_pred/2023-Apr-25-2140_maxeplen10_maxtrainstep200_exh16_gamma099_lrac3e-4_lrcr1e-3/955e59fc22a1e87e2ab10a68f3a5c98643a236a4_ligand_2.pdbqt
 12 12 0 0 0
SMALL
GASTEIGER

@<TRIPOS>ATOM
      1  C          8.2380    0.2600   -2.1150 C.3     1  UNL1        0.1270
      2  C          9.3910    0.3580   -1.1830 C.2     1  UNL1        0.3030
      3  O          9.5290   -0.3610   -0.1600 O.2     1  UNL1       -0.2520
      4  O         10.3850    1.2900   -1.4400 O.3     1  UNL1       -0.4810
      5  H         10.3520    2.1460   -0.8820 H       1  UNL1        0.2960
      6  C          7.1570   -0.5690   -1.4870 C.3     1  UNL1        0.0470
      7  C          6.3790    0.1270   -0.4640 C.2     1  UNL1       -0.0470
      8  C          5.7980    1.3570   -0.6510 C.2     1  UNL1        0.0040
      9  C          6.2110   -0.4700    0.7600 C.2     1  UNL1        0.0040
     10  C          5.0690    1.9970    0.3220 C.2     1  UNL1        0.0000
     11  C          5.4880    0.1430    1.7580 C.2     1  UNL1        0.0000
     12  C          4.9050    1.3910    1.5490 C.2     1  UNL1        0.0000
@<TRIPOS>BOND
     1     1     6    1
     2     1     2    1
     3     6     7    1
     4     4     2    1
     5     4     5    1
     6     2     3    2
     7     8     7    2
     8     8    10    1
     9     7     9    1
    10    10    12    2
    11     9    11    2
    12    12    11    1
