@<TRIPOS>MOLECULE
/home/cewinharhar/GITHUB/reincatalyze/data/processed/docking_pred/2023-Apr-25-2140_maxeplen10_maxtrainstep200_exh16_gamma099_lrac3e-4_lrcr1e-3/955e59fc22a1e87e2ab10a68f3a5c98643a236a4_ligand_2.pdbqt
 12 12 0 0 0
SMALL
GASTEIGER

@<TRIPOS>ATOM
      1  C          8.4510   -0.5960   -2.1810 C.3     1  UNL1        0.1270
      2  C          8.5030   -1.8860   -2.9160 C.2     1  UNL1        0.3030
      3  O          9.5590   -2.5400   -3.1120 O.2     1  UNL1       -0.2520
      4  O          7.3260   -2.4170   -3.4230 O.3     1  UNL1       -0.4810
      5  H          7.4120   -2.9480   -4.2930 H       1  UNL1        0.2960
      6  C          7.0360   -0.0990   -2.1430 C.3     1  UNL1        0.0470
      7  C          6.4880    0.0610   -0.7980 C.2     1  UNL1       -0.0470
      8  C          5.8340    1.1890   -0.3680 C.2     1  UNL1        0.0040
      9  C          6.6290   -0.9680    0.1010 C.2     1  UNL1        0.0040
     10  C          5.3240    1.3220    0.9020 C.2     1  UNL1        0.0000
     11  C          6.1320   -0.8680    1.3800 C.2     1  UNL1        0.0000
     12  C          5.4690    0.2850    1.7980 C.2     1  UNL1        0.0000
@<TRIPOS>BOND
     1     5     4    1
     2     4     2    1
     3     3     2    2
     4     2     1    1
     5     1     6    1
     6     6     7    1
     7     7     8    2
     8     7     9    1
     9     8    10    1
    10     9    11    2
    11    10    12    2
    12    11    12    1
