@<TRIPOS>MOLECULE
/home/cewinharhar/GITHUB/reincatalyze/data/processed/docking_pred/2023-Apr-25-2140_maxeplen10_maxtrainstep200_exh16_gamma099_lrac3e-4_lrcr1e-3/955e59fc22a1e87e2ab10a68f3a5c98643a236a4_ligand_2.pdbqt
 12 12 0 0 0
SMALL
GASTEIGER

@<TRIPOS>ATOM
      1  C          5.0130    1.7690    0.6640 C.3     1  UNL1        0.1270
      2  C          4.6050    1.0550    1.9020 C.2     1  UNL1        0.3030
      3  O          5.3160    0.1950    2.4810 O.2     1  UNL1       -0.2520
      4  O          3.3720    1.3420    2.4660 O.3     1  UNL1       -0.4810
      5  H          2.6540    1.6860    1.8240 H       1  UNL1        0.2960
      6  C          6.5100    1.8660    0.6130 C.3     1  UNL1        0.0470
      7  C          7.1340    1.0380   -0.4170 C.2     1  UNL1       -0.0470
      8  C          6.4580    0.0980   -1.1550 C.2     1  UNL1        0.0040
      9  C          8.4730    1.1960   -0.6720 C.2     1  UNL1        0.0040
     10  C          7.0610   -0.6730   -2.1200 C.2     1  UNL1        0.0000
     11  C          9.1090    0.4410   -1.6300 C.2     1  UNL1        0.0000
     12  C          8.4060   -0.5080   -2.3700 C.2     1  UNL1        0.0000
@<TRIPOS>BOND
     1    12    10    2
     2    12    11    1
     3    10     8    1
     4    11     9    2
     5     8     7    2
     6     9     7    1
     7     7     6    1
     8     6     1    1
     9     1     2    1
    10     5     4    1
    11     2     4    1
    12     2     3    2
