MODEL 1
REMARK VINA RESULT:      -7.3      0.000      0.000
REMARK SMILES O=C(O)CCc1ccccc1
REMARK SMILES IDX 4 1 2 2 1 3 3 4 5 6 6 7 7 8 11 9 8 10 10 11 9 12
REMARK H PARENT 3 5
REMARK Flexibility Score: inf
ROOT
ATOM      1  C   UNL     1       8.451  -0.596  -2.181  1.00  0.00     0.127 C 
ENDROOT
BRANCH   1   2
ATOM      2  C   UNL     1       8.503  -1.886  -2.916  1.00  0.00     0.303 C 
ATOM      3  O   UNL     1       9.559  -2.540  -3.112  1.00  0.00    -0.252 OA
BRANCH   2   4
ATOM      4  O   UNL     1       7.326  -2.417  -3.423  1.00  0.00    -0.481 OA
ATOM      5  H   UNL     1       7.412  -2.948  -4.293  1.00  0.00     0.296 HD
ENDBRANCH   2   4
ENDBRANCH   1   2
BRANCH   1   6
ATOM      6  C   UNL     1       7.036  -0.099  -2.143  1.00  0.00     0.047 C 
BRANCH   6   7
ATOM      7  C   UNL     1       6.488   0.061  -0.798  1.00  0.00    -0.047 A 
ATOM      8  C   UNL     1       5.834   1.189  -0.368  1.00  0.00     0.004 A 
ATOM      9  C   UNL     1       6.629  -0.968   0.101  1.00  0.00     0.004 A 
ATOM     10  C   UNL     1       5.324   1.322   0.902  1.00  0.00     0.000 A 
ATOM     11  C   UNL     1       6.132  -0.868   1.380  1.00  0.00     0.000 A 
ATOM     12  C   UNL     1       5.469   0.285   1.798  1.00  0.00     0.000 A 
ENDBRANCH   6   7
ENDBRANCH   1   6
TORSDOF 4
ENDMDL
MODEL 2
REMARK VINA RESULT:      -7.3      0.058      1.426
REMARK SMILES O=C(O)CCc1ccccc1
REMARK SMILES IDX 4 1 2 2 1 3 3 4 5 6 6 7 7 8 11 9 8 10 10 11 9 12
REMARK H PARENT 3 5
REMARK Flexibility Score: inf
ROOT
ATOM      1  C   UNL     1       8.459  -0.539  -2.242  1.00  0.00     0.127 C 
ENDROOT
BRANCH   1   2
ATOM      2  C   UNL     1       8.520  -1.862  -2.916  1.00  0.00     0.303 C 
ATOM      3  O   UNL     1       9.582  -2.514  -3.085  1.00  0.00    -0.252 OA
BRANCH   2   4
ATOM      4  O   UNL     1       7.347  -2.427  -3.392  1.00  0.00    -0.481 OA
ATOM      5  H   UNL     1       7.432  -3.360  -3.800  1.00  0.00     0.296 HD
ENDBRANCH   2   4
ENDBRANCH   1   2
BRANCH   1   6
ATOM      6  C   UNL     1       7.032  -0.082  -2.167  1.00  0.00     0.047 C 
BRANCH   6   7
ATOM      7  C   UNL     1       6.505   0.033  -0.809  1.00  0.00    -0.047 A 
ATOM      8  C   UNL     1       6.595  -0.962   0.133  1.00  0.00     0.004 A 
ATOM      9  C   UNL     1       5.880   1.198  -0.437  1.00  0.00     0.004 A 
ATOM     10  C   UNL     1       6.094  -0.837   1.406  1.00  0.00     0.000 A 
ATOM     11  C   UNL     1       5.366   1.357   0.829  1.00  0.00     0.000 A 
ATOM     12  C   UNL     1       5.468   0.335   1.772  1.00  0.00     0.000 A 
ENDBRANCH   6   7
ENDBRANCH   1   6
TORSDOF 4
ENDMDL
MODEL 3
REMARK VINA RESULT:      -7.2      0.613      1.594
REMARK SMILES O=C(O)CCc1ccccc1
REMARK SMILES IDX 4 1 2 2 1 3 3 4 5 6 6 7 7 8 11 9 8 10 10 11 9 12
REMARK H PARENT 3 5
REMARK Flexibility Score: inf
ROOT
ATOM      1  C   UNL     1       8.091  -0.808  -2.034  1.00  0.00     0.127 C 
ENDROOT
BRANCH   1   2
ATOM      2  C   UNL     1       8.349  -1.980  -2.910  1.00  0.00     0.303 C 
ATOM      3  O   UNL     1       9.488  -2.482  -3.093  1.00  0.00    -0.252 OA
BRANCH   2   4
ATOM      4  O   UNL     1       7.283  -2.570  -3.573  1.00  0.00    -0.481 OA
ATOM      5  H   UNL     1       7.508  -3.387  -4.146  1.00  0.00     0.296 HD
ENDBRANCH   2   4
ENDBRANCH   1   2
BRANCH   1   6
ATOM      6  C   UNL     1       7.470  -1.271  -0.749  1.00  0.00     0.047 C 
BRANCH   6   7
ATOM      7  C   UNL     1       6.602  -0.287  -0.108  1.00  0.00    -0.047 A 
ATOM      8  C   UNL     1       6.134  -0.402   1.178  1.00  0.00     0.004 A 
ATOM      9  C   UNL     1       6.221   0.823  -0.820  1.00  0.00     0.004 A 
ATOM     10  C   UNL     1       5.317   0.534   1.765  1.00  0.00     0.000 A 
ATOM     11  C   UNL     1       5.403   1.780  -0.264  1.00  0.00     0.000 A 
ATOM     12  C   UNL     1       4.939   1.646   1.044  1.00  0.00     0.000 A 
ENDBRANCH   6   7
ENDBRANCH   1   6
TORSDOF 4
ENDMDL
MODEL 4
REMARK VINA RESULT:      -6.7      3.340      5.048
REMARK SMILES O=C(O)CCc1ccccc1
REMARK SMILES IDX 4 1 2 2 1 3 3 4 5 6 6 7 7 8 11 9 8 10 10 11 9 12
REMARK H PARENT 3 5
REMARK Flexibility Score: inf
ROOT
ATOM      1  C   UNL     1       5.013   1.769   0.664  1.00  0.00     0.127 C 
ENDROOT
BRANCH   1   2
ATOM      2  C   UNL     1       4.605   1.055   1.902  1.00  0.00     0.303 C 
ATOM      3  O   UNL     1       5.316   0.195   2.481  1.00  0.00    -0.252 OA
BRANCH   2   4
ATOM      4  O   UNL     1       3.372   1.342   2.466  1.00  0.00    -0.481 OA
ATOM      5  H   UNL     1       2.654   1.686   1.824  1.00  0.00     0.296 HD
ENDBRANCH   2   4
ENDBRANCH   1   2
BRANCH   1   6
ATOM      6  C   UNL     1       6.510   1.866   0.613  1.00  0.00     0.047 C 
BRANCH   6   7
ATOM      7  C   UNL     1       7.134   1.038  -0.417  1.00  0.00    -0.047 A 
ATOM      8  C   UNL     1       6.458   0.098  -1.155  1.00  0.00     0.004 A 
ATOM      9  C   UNL     1       8.473   1.196  -0.672  1.00  0.00     0.004 A 
ATOM     10  C   UNL     1       7.061  -0.673  -2.120  1.00  0.00     0.000 A 
ATOM     11  C   UNL     1       9.109   0.441  -1.630  1.00  0.00     0.000 A 
ATOM     12  C   UNL     1       8.406  -0.508  -2.370  1.00  0.00     0.000 A 
ENDBRANCH   6   7
ENDBRANCH   1   6
TORSDOF 4
ENDMDL
MODEL 5
REMARK VINA RESULT:      -6.6      1.959      2.254
REMARK SMILES O=C(O)CCc1ccccc1
REMARK SMILES IDX 4 1 2 2 1 3 3 4 5 6 6 7 7 8 11 9 8 10 10 11 9 12
REMARK H PARENT 3 5
REMARK Flexibility Score: inf
ROOT
ATOM      1  C   UNL     1       8.238   0.260  -2.115  1.00  0.00     0.127 C 
ENDROOT
BRANCH   1   2
ATOM      2  C   UNL     1       9.391   0.358  -1.183  1.00  0.00     0.303 C 
ATOM      3  O   UNL     1       9.529  -0.361  -0.160  1.00  0.00    -0.252 OA
BRANCH   2   4
ATOM      4  O   UNL     1      10.385   1.290  -1.440  1.00  0.00    -0.481 OA
ATOM      5  H   UNL     1      10.352   2.146  -0.882  1.00  0.00     0.296 HD
ENDBRANCH   2   4
ENDBRANCH   1   2
BRANCH   1   6
ATOM      6  C   UNL     1       7.157  -0.569  -1.487  1.00  0.00     0.047 C 
BRANCH   6   7
ATOM      7  C   UNL     1       6.379   0.127  -0.464  1.00  0.00    -0.047 A 
ATOM      8  C   UNL     1       5.798   1.357  -0.651  1.00  0.00     0.004 A 
ATOM      9  C   UNL     1       6.211  -0.470   0.760  1.00  0.00     0.004 A 
ATOM     10  C   UNL     1       5.069   1.997   0.322  1.00  0.00     0.000 A 
ATOM     11  C   UNL     1       5.488   0.143   1.758  1.00  0.00     0.000 A 
ATOM     12  C   UNL     1       4.905   1.391   1.549  1.00  0.00     0.000 A 
ENDBRANCH   6   7
ENDBRANCH   1   6
TORSDOF 4
ENDMDL
