@<TRIPOS>MOLECULE
/home/cewinharhar/GITHUB/reincatalyze/data/processed/docking_pred/2023-Apr-25-2140_maxeplen10_maxtrainstep200_exh16_gamma099_lrac3e-4_lrcr1e-3/96aa1335557473cc7235c71144735280de1f686e_ligand_2.pdbqt
 12 12 0 0 0
SMALL
GASTEIGER

@<TRIPOS>ATOM
      1  C          5.4610    2.7540   -0.0130 C.3     1  UNL1        0.1270
      2  C          6.2160    3.7860    0.7440 C.2     1  UNL1        0.3030
      3  O          6.8530    4.7250    0.2040 O.2     1  UNL1       -0.2520
      4  O          6.2270    3.7280    2.1290 O.3     1  UNL1       -0.4810
      5  H          6.3060    4.6240    2.6160 H       1  UNL1        0.2960
      6  C          5.9180    1.3890    0.4130 C.3     1  UNL1        0.0470
      7  C          6.8820    0.7660   -0.4900 C.2     1  UNL1       -0.0470
      8  C          8.1710    1.2090   -0.6570 C.2     1  UNL1        0.0040
      9  C          6.4920   -0.3280   -1.2220 C.2     1  UNL1        0.0040
     10  C          9.0650    0.6100   -1.5120 C.2     1  UNL1        0.0000
     11  C          7.3610   -0.9520   -2.0880 C.2     1  UNL1        0.0000
     12  C          8.6660   -0.4870   -2.2430 C.2     1  UNL1        0.0000
@<TRIPOS>BOND
     1    12    11    2
     2    12    10    1
     3    11     9    1
     4    10     8    2
     5     9     7    2
     6     8     7    1
     7     7     6    1
     8     1     6    1
     9     1     2    1
    10     3     2    2
    11     2     4    1
    12     4     5    1
