MODEL 1
REMARK VINA RESULT:      -7.2      0.000      0.000
REMARK SMILES O=C(O)CCc1ccccc1
REMARK SMILES IDX 4 1 2 2 1 3 3 4 5 6 6 7 7 8 11 9 8 10 10 11 9 12
REMARK H PARENT 3 5
REMARK Flexibility Score: inf
ROOT
ATOM      1  C   UNL     1       8.582  -0.611  -2.249  1.00  0.00     0.127 C 
ENDROOT
BRANCH   1   2
ATOM      2  C   UNL     1       8.586  -1.917  -2.957  1.00  0.00     0.303 C 
ATOM      3  O   UNL     1       9.619  -2.605  -3.155  1.00  0.00    -0.252 OA
BRANCH   2   4
ATOM      4  O   UNL     1       7.387  -2.424  -3.435  1.00  0.00    -0.481 OA
ATOM      5  H   UNL     1       6.747  -2.801  -2.732  1.00  0.00     0.296 HD
ENDBRANCH   2   4
ENDBRANCH   1   2
BRANCH   1   6
ATOM      6  C   UNL     1       7.178  -0.086  -2.176  1.00  0.00     0.047 C 
BRANCH   6   7
ATOM      7  C   UNL     1       6.738   0.274  -0.830  1.00  0.00    -0.047 A 
ATOM      8  C   UNL     1       5.751   1.193  -0.569  1.00  0.00     0.004 A 
ATOM      9  C   UNL     1       7.335  -0.334   0.247  1.00  0.00     0.004 A 
ATOM     10  C   UNL     1       5.348   1.519   0.704  1.00  0.00     0.000 A 
ATOM     11  C   UNL     1       6.957  -0.030   1.535  1.00  0.00     0.000 A 
ATOM     12  C   UNL     1       5.953   0.905   1.780  1.00  0.00     0.000 A 
ENDBRANCH   6   7
ENDBRANCH   1   6
TORSDOF 4
ENDMDL
MODEL 2
REMARK VINA RESULT:      -7.2      0.116      1.428
REMARK SMILES O=C(O)CCc1ccccc1
REMARK SMILES IDX 4 1 2 2 1 3 3 4 5 6 6 7 7 8 11 9 8 10 10 11 9 12
REMARK H PARENT 3 5
REMARK Flexibility Score: inf
ROOT
ATOM      1  C   UNL     1       8.646  -0.567  -2.256  1.00  0.00     0.127 C 
ENDROOT
BRANCH   1   2
ATOM      2  C   UNL     1       8.679  -1.866  -2.977  1.00  0.00     0.303 C 
ATOM      3  O   UNL     1       9.734  -2.500  -3.231  1.00  0.00    -0.252 OA
BRANCH   2   4
ATOM      4  O   UNL     1       7.484  -2.428  -3.402  1.00  0.00    -0.481 OA
ATOM      5  H   UNL     1       7.506  -3.430  -3.602  1.00  0.00     0.296 HD
ENDBRANCH   2   4
ENDBRANCH   1   2
BRANCH   1   6
ATOM      6  C   UNL     1       7.231  -0.073  -2.181  1.00  0.00     0.047 C 
BRANCH   6   7
ATOM      7  C   UNL     1       6.783   0.274  -0.834  1.00  0.00    -0.047 A 
ATOM      8  C   UNL     1       7.305  -0.276   0.310  1.00  0.00     0.004 A 
ATOM      9  C   UNL     1       5.782   1.202  -0.688  1.00  0.00     0.004 A 
ATOM     10  C   UNL     1       6.872   0.063   1.570  1.00  0.00     0.000 A 
ATOM     11  C   UNL     1       5.323   1.564   0.557  1.00  0.00     0.000 A 
ATOM     12  C   UNL     1       5.866   0.995   1.708  1.00  0.00     0.000 A 
ENDBRANCH   6   7
ENDBRANCH   1   6
TORSDOF 4
ENDMDL
MODEL 3
REMARK VINA RESULT:      -6.9      3.332      5.078
REMARK SMILES O=C(O)CCc1ccccc1
REMARK SMILES IDX 4 1 2 2 1 3 3 4 5 6 6 7 7 8 11 9 8 10 10 11 9 12
REMARK H PARENT 3 5
REMARK Flexibility Score: inf
ROOT
ATOM      1  C   UNL     1       5.014   1.846   0.693  1.00  0.00     0.127 C 
ENDROOT
BRANCH   1   2
ATOM      2  C   UNL     1       4.534   1.146   1.913  1.00  0.00     0.303 C 
ATOM      3  O   UNL     1       3.410   1.347   2.440  1.00  0.00    -0.252 OA
BRANCH   2   4
ATOM      4  O   UNL     1       5.360   0.212   2.520  1.00  0.00    -0.481 OA
ATOM      5  H   UNL     1       5.122  -0.769   2.358  1.00  0.00     0.296 HD
ENDBRANCH   2   4
ENDBRANCH   1   2
BRANCH   1   6
ATOM      6  C   UNL     1       6.515   1.859   0.683  1.00  0.00     0.047 C 
BRANCH   6   7
ATOM      7  C   UNL     1       7.119   1.046  -0.370  1.00  0.00    -0.047 A 
ATOM      8  C   UNL     1       6.433   0.105  -1.097  1.00  0.00     0.004 A 
ATOM      9  C   UNL     1       8.449   1.220  -0.660  1.00  0.00     0.004 A 
ATOM     10  C   UNL     1       7.017  -0.652  -2.085  1.00  0.00     0.000 A 
ATOM     11  C   UNL     1       9.067   0.480  -1.641  1.00  0.00     0.000 A 
ATOM     12  C   UNL     1       8.354  -0.471  -2.370  1.00  0.00     0.000 A 
ENDBRANCH   6   7
ENDBRANCH   1   6
TORSDOF 4
ENDMDL
MODEL 4
REMARK VINA RESULT:      -6.6      1.102      1.583
REMARK SMILES O=C(O)CCc1ccccc1
REMARK SMILES IDX 4 1 2 2 1 3 3 4 5 6 6 7 7 8 11 9 8 10 10 11 9 12
REMARK H PARENT 3 5
REMARK Flexibility Score: inf
ROOT
ATOM      1  C   UNL     1       7.328  -1.471  -2.016  1.00  0.00     0.127 C 
ENDROOT
BRANCH   1   2
ATOM      2  C   UNL     1       8.742  -1.378  -2.464  1.00  0.00     0.303 C 
ATOM      3  O   UNL     1       9.522  -0.449  -2.135  1.00  0.00    -0.252 OA
BRANCH   2   4
ATOM      4  O   UNL     1       9.249  -2.367  -3.293  1.00  0.00    -0.481 OA
ATOM      5  H   UNL     1       8.574  -2.827  -3.908  1.00  0.00     0.296 HD
ENDBRANCH   2   4
ENDBRANCH   1   2
BRANCH   1   6
ATOM      6  C   UNL     1       7.259  -1.263  -0.532  1.00  0.00     0.047 C 
BRANCH   6   7
ATOM      7  C   UNL     1       6.650   0.003  -0.127  1.00  0.00    -0.047 A 
ATOM      8  C   UNL     1       5.977   0.836  -0.986  1.00  0.00     0.004 A 
ATOM      9  C   UNL     1       6.750   0.396   1.184  1.00  0.00     0.004 A 
ATOM     10  C   UNL     1       5.410   2.023  -0.589  1.00  0.00     0.000 A 
ATOM     11  C   UNL     1       6.195   1.579   1.616  1.00  0.00     0.000 A 
ATOM     12  C   UNL     1       5.515   2.411   0.730  1.00  0.00     0.000 A 
ENDBRANCH   6   7
ENDBRANCH   1   6
TORSDOF 4
ENDMDL
MODEL 5
REMARK VINA RESULT:      -6.6      3.704      5.218
REMARK SMILES O=C(O)CCc1ccccc1
REMARK SMILES IDX 4 1 2 2 1 3 3 4 5 6 6 7 7 8 11 9 8 10 10 11 9 12
REMARK H PARENT 3 5
REMARK Flexibility Score: inf
ROOT
ATOM      1  C   UNL     1       5.461   2.754  -0.013  1.00  0.00     0.127 C 
ENDROOT
BRANCH   1   2
ATOM      2  C   UNL     1       6.216   3.786   0.744  1.00  0.00     0.303 C 
ATOM      3  O   UNL     1       6.853   4.725   0.204  1.00  0.00    -0.252 OA
BRANCH   2   4
ATOM      4  O   UNL     1       6.227   3.728   2.129  1.00  0.00    -0.481 OA
ATOM      5  H   UNL     1       6.306   4.624   2.616  1.00  0.00     0.296 HD
ENDBRANCH   2   4
ENDBRANCH   1   2
BRANCH   1   6
ATOM      6  C   UNL     1       5.918   1.389   0.413  1.00  0.00     0.047 C 
BRANCH   6   7
ATOM      7  C   UNL     1       6.882   0.766  -0.490  1.00  0.00    -0.047 A 
ATOM      8  C   UNL     1       8.171   1.209  -0.657  1.00  0.00     0.004 A 
ATOM      9  C   UNL     1       6.492  -0.328  -1.222  1.00  0.00     0.004 A 
ATOM     10  C   UNL     1       9.065   0.610  -1.512  1.00  0.00     0.000 A 
ATOM     11  C   UNL     1       7.361  -0.952  -2.088  1.00  0.00     0.000 A 
ATOM     12  C   UNL     1       8.666  -0.487  -2.243  1.00  0.00     0.000 A 
ENDBRANCH   6   7
ENDBRANCH   1   6
TORSDOF 4
ENDMDL
