@<TRIPOS>MOLECULE
/home/cewinharhar/GITHUB/reincatalyze/data/processed/docking_pred/2023-Apr-25-2140_maxeplen10_maxtrainstep200_exh16_gamma099_lrac3e-4_lrcr1e-3/96aa1335557473cc7235c71144735280de1f686e_ligand_2.pdbqt
 12 12 0 0 0
SMALL
GASTEIGER

@<TRIPOS>ATOM
      1  C          5.0140    1.8460    0.6930 C.3     1  UNL1        0.1270
      2  C          4.5340    1.1460    1.9130 C.2     1  UNL1        0.3030
      3  O          3.4100    1.3470    2.4400 O.2     1  UNL1       -0.2520
      4  O          5.3600    0.2120    2.5200 O.3     1  UNL1       -0.4810
      5  H          5.1220   -0.7690    2.3580 H       1  UNL1        0.2960
      6  C          6.5150    1.8590    0.6830 C.3     1  UNL1        0.0470
      7  C          7.1190    1.0460   -0.3700 C.2     1  UNL1       -0.0470
      8  C          6.4330    0.1050   -1.0970 C.2     1  UNL1        0.0040
      9  C          8.4490    1.2200   -0.6600 C.2     1  UNL1        0.0040
     10  C          7.0170   -0.6520   -2.0850 C.2     1  UNL1        0.0000
     11  C          9.0670    0.4800   -1.6410 C.2     1  UNL1        0.0000
     12  C          8.3540   -0.4710   -2.3700 C.2     1  UNL1        0.0000
@<TRIPOS>BOND
     1    12    10    2
     2    12    11    1
     3    10     8    1
     4    11     9    2
     5     8     7    2
     6     9     7    1
     7     7     6    1
     8     6     1    1
     9     1     2    1
    10     2     3    2
    11     2     4    1
    12     5     4    1
