@<TRIPOS>MOLECULE
/home/cewinharhar/GITHUB/reincatalyze/data/processed/docking_pred/2023-Apr-25-2140_maxeplen10_maxtrainstep200_exh16_gamma099_lrac3e-4_lrcr1e-3/96aa1335557473cc7235c71144735280de1f686e_ligand_2.pdbqt
 12 12 0 0 0
SMALL
GASTEIGER

@<TRIPOS>ATOM
      1  C          7.3280   -1.4710   -2.0160 C.3     1  UNL1        0.1270
      2  C          8.7420   -1.3780   -2.4640 C.2     1  UNL1        0.3030
      3  O          9.5220   -0.4490   -2.1350 O.2     1  UNL1       -0.2520
      4  O          9.2490   -2.3670   -3.2930 O.3     1  UNL1       -0.4810
      5  H          8.5740   -2.8270   -3.9080 H       1  UNL1        0.2960
      6  C          7.2590   -1.2630   -0.5320 C.3     1  UNL1        0.0470
      7  C          6.6500    0.0030   -0.1270 C.2     1  UNL1       -0.0470
      8  C          5.9770    0.8360   -0.9860 C.2     1  UNL1        0.0040
      9  C          6.7500    0.3960    1.1840 C.2     1  UNL1        0.0040
     10  C          5.4100    2.0230   -0.5890 C.2     1  UNL1        0.0000
     11  C          6.1950    1.5790    1.6160 C.2     1  UNL1        0.0000
     12  C          5.5150    2.4110    0.7300 C.2     1  UNL1        0.0000
@<TRIPOS>BOND
     1     5     4    1
     2     4     2    1
     3     2     3    2
     4     2     1    1
     5     1     6    1
     6     8    10    1
     7     8     7    2
     8    10    12    2
     9     6     7    1
    10     7     9    1
    11    12    11    1
    12     9    11    2
