@<TRIPOS>MOLECULE
/home/cewinharhar/GITHUB/reincatalyze/data/processed/docking_pred/2023-Apr-25-2140_maxeplen10_maxtrainstep200_exh16_gamma099_lrac3e-4_lrcr1e-3/96aa1335557473cc7235c71144735280de1f686e_ligand_2.pdbqt
 12 12 0 0 0
SMALL
GASTEIGER

@<TRIPOS>ATOM
      1  C          8.6460   -0.5670   -2.2560 C.3     1  UNL1        0.1270
      2  C          8.6790   -1.8660   -2.9770 C.2     1  UNL1        0.3030
      3  O          9.7340   -2.5000   -3.2310 O.2     1  UNL1       -0.2520
      4  O          7.4840   -2.4280   -3.4020 O.3     1  UNL1       -0.4810
      5  H          7.5060   -3.4300   -3.6020 H       1  UNL1        0.2960
      6  C          7.2310   -0.0730   -2.1810 C.3     1  UNL1        0.0470
      7  C          6.7830    0.2740   -0.8340 C.2     1  UNL1       -0.0470
      8  C          7.3050   -0.2760    0.3100 C.2     1  UNL1        0.0040
      9  C          5.7820    1.2020   -0.6880 C.2     1  UNL1        0.0040
     10  C          6.8720    0.0630    1.5700 C.2     1  UNL1        0.0000
     11  C          5.3230    1.5640    0.5570 C.2     1  UNL1        0.0000
     12  C          5.8660    0.9950    1.7080 C.2     1  UNL1        0.0000
@<TRIPOS>BOND
     1     5     4    1
     2     4     2    1
     3     3     2    2
     4     2     1    1
     5     1     6    1
     6     6     7    1
     7     7     9    2
     8     7     8    1
     9     9    11    1
    10     8    10    2
    11    11    12    2
    12    10    12    1
