@<TRIPOS>MOLECULE
/home/cewinharhar/GITHUB/reincatalyze/data/processed/docking_pred/2023-Apr-25-2140_maxeplen10_maxtrainstep200_exh16_gamma099_lrac3e-4_lrcr1e-3/96aa1335557473cc7235c71144735280de1f686e_ligand_2.pdbqt
 12 12 0 0 0
SMALL
GASTEIGER

@<TRIPOS>ATOM
      1  C          8.5820   -0.6110   -2.2490 C.3     1  UNL1        0.1270
      2  C          8.5860   -1.9170   -2.9570 C.2     1  UNL1        0.3030
      3  O          9.6190   -2.6050   -3.1550 O.2     1  UNL1       -0.2520
      4  O          7.3870   -2.4240   -3.4350 O.3     1  UNL1       -0.4810
      5  H          6.7470   -2.8010   -2.7320 H       1  UNL1        0.2960
      6  C          7.1780   -0.0860   -2.1760 C.3     1  UNL1        0.0470
      7  C          6.7380    0.2740   -0.8300 C.2     1  UNL1       -0.0470
      8  C          5.7510    1.1930   -0.5690 C.2     1  UNL1        0.0040
      9  C          7.3350   -0.3340    0.2470 C.2     1  UNL1        0.0040
     10  C          5.3480    1.5190    0.7040 C.2     1  UNL1        0.0000
     11  C          6.9570   -0.0300    1.5350 C.2     1  UNL1        0.0000
     12  C          5.9530    0.9050    1.7800 C.2     1  UNL1        0.0000
@<TRIPOS>BOND
     1     4     2    1
     2     4     5    1
     3     3     2    2
     4     2     1    1
     5     1     6    1
     6     6     7    1
     7     7     8    2
     8     7     9    1
     9     8    10    1
    10     9    11    2
    11    10    12    2
    12    11    12    1
