@<TRIPOS>MOLECULE
/home/cewinharhar/GITHUB/reincatalyze/data/processed/docking_pred/2023-Apr-25-2140_maxeplen10_maxtrainstep200_exh16_gamma099_lrac3e-4_lrcr1e-3/98ce2146f260201d1ebb2f82702d5d512d51d1e1_ligand_2.pdbqt
 12 12 0 0 0
SMALL
GASTEIGER

@<TRIPOS>ATOM
      1  C          8.4560   -0.5080   -2.2950 C.3     1  UNL1        0.1270
      2  C          8.5190   -1.8370   -2.9590 C.2     1  UNL1        0.3030
      3  O          9.5830   -2.4820   -3.1360 O.2     1  UNL1       -0.2520
      4  O          7.3440   -2.4140   -3.4160 O.3     1  UNL1       -0.4810
      5  H          6.8450   -1.8990   -4.1450 H       1  UNL1        0.2960
      6  C          7.0280   -0.0540   -2.2220 C.3     1  UNL1        0.0470
      7  C          6.4980    0.0570   -0.8650 C.2     1  UNL1       -0.0470
      8  C          6.5780   -0.9450    0.0700 C.2     1  UNL1        0.0040
      9  C          5.8800    1.2230   -0.4880 C.2     1  UNL1        0.0040
     10  C          6.0740   -0.8240    1.3430 C.2     1  UNL1        0.0000
     11  C          5.3640    1.3780    0.7770 C.2     1  UNL1        0.0000
     12  C          5.4550    0.3500    1.7140 C.2     1  UNL1        0.0000
@<TRIPOS>BOND
     1     5     4    1
     2     4     2    1
     3     3     2    2
     4     2     1    1
     5     1     6    1
     6     6     7    1
     7     7     9    2
     8     7     8    1
     9     9    11    1
    10     8    10    2
    11    11    12    2
    12    10    12    1
