MODEL 1
REMARK VINA RESULT:      -7.4      0.000      0.000
REMARK SMILES O=C(O)CCc1ccccc1
REMARK SMILES IDX 4 1 2 2 1 3 3 4 5 6 6 7 7 8 11 9 8 10 10 11 9 12
REMARK H PARENT 3 5
REMARK Flexibility Score: inf
ROOT
ATOM      1  C   UNL     1       8.444  -0.582  -2.209  1.00  0.00     0.127 C 
ENDROOT
BRANCH   1   2
ATOM      2  C   UNL     1       8.515  -1.888  -2.915  1.00  0.00     0.303 C 
ATOM      3  O   UNL     1       9.582  -2.528  -3.099  1.00  0.00    -0.252 OA
BRANCH   2   4
ATOM      4  O   UNL     1       7.346  -2.451  -3.405  1.00  0.00    -0.481 OA
ATOM      5  H   UNL     1       6.490  -2.221  -2.895  1.00  0.00     0.296 HD
ENDBRANCH   2   4
ENDBRANCH   1   2
BRANCH   1   6
ATOM      6  C   UNL     1       7.018  -0.117  -2.163  1.00  0.00     0.047 C 
BRANCH   6   7
ATOM      7  C   UNL     1       6.483   0.059  -0.815  1.00  0.00    -0.047 A 
ATOM      8  C   UNL     1       5.854   1.201  -0.385  1.00  0.00     0.004 A 
ATOM      9  C   UNL     1       6.609  -0.969   0.087  1.00  0.00     0.004 A 
ATOM     10  C   UNL     1       5.357   1.350   0.888  1.00  0.00     0.000 A 
ATOM     11  C   UNL     1       6.124  -0.854   1.369  1.00  0.00     0.000 A 
ATOM     12  C   UNL     1       5.488   0.313   1.787  1.00  0.00     0.000 A 
ENDBRANCH   6   7
ENDBRANCH   1   6
TORSDOF 4
ENDMDL
MODEL 2
REMARK VINA RESULT:      -7.3      0.080      1.427
REMARK SMILES O=C(O)CCc1ccccc1
REMARK SMILES IDX 4 1 2 2 1 3 3 4 5 6 6 7 7 8 11 9 8 10 10 11 9 12
REMARK H PARENT 3 5
REMARK Flexibility Score: inf
ROOT
ATOM      1  C   UNL     1       8.456  -0.508  -2.295  1.00  0.00     0.127 C 
ENDROOT
BRANCH   1   2
ATOM      2  C   UNL     1       8.519  -1.837  -2.959  1.00  0.00     0.303 C 
ATOM      3  O   UNL     1       9.583  -2.482  -3.136  1.00  0.00    -0.252 OA
BRANCH   2   4
ATOM      4  O   UNL     1       7.344  -2.414  -3.416  1.00  0.00    -0.481 OA
ATOM      5  H   UNL     1       6.845  -1.899  -4.145  1.00  0.00     0.296 HD
ENDBRANCH   2   4
ENDBRANCH   1   2
BRANCH   1   6
ATOM      6  C   UNL     1       7.028  -0.054  -2.222  1.00  0.00     0.047 C 
BRANCH   6   7
ATOM      7  C   UNL     1       6.498   0.057  -0.865  1.00  0.00    -0.047 A 
ATOM      8  C   UNL     1       6.578  -0.945   0.070  1.00  0.00     0.004 A 
ATOM      9  C   UNL     1       5.880   1.223  -0.488  1.00  0.00     0.004 A 
ATOM     10  C   UNL     1       6.074  -0.824   1.343  1.00  0.00     0.000 A 
ATOM     11  C   UNL     1       5.364   1.378   0.777  1.00  0.00     0.000 A 
ATOM     12  C   UNL     1       5.455   0.350   1.714  1.00  0.00     0.000 A 
ENDBRANCH   6   7
ENDBRANCH   1   6
TORSDOF 4
ENDMDL
MODEL 3
REMARK VINA RESULT:      -6.8      0.986      1.918
REMARK SMILES O=C(O)CCc1ccccc1
REMARK SMILES IDX 4 1 2 2 1 3 3 4 5 6 6 7 7 8 11 9 8 10 10 11 9 12
REMARK H PARENT 3 5
REMARK Flexibility Score: inf
ROOT
ATOM      1  C   UNL     1       7.413  -1.677  -1.902  1.00  0.00     0.127 C 
ENDROOT
BRANCH   1   2
ATOM      2  C   UNL     1       8.780  -1.502  -2.456  1.00  0.00     0.303 C 
ATOM      3  O   UNL     1       9.525  -0.525  -2.191  1.00  0.00    -0.252 OA
BRANCH   2   4
ATOM      4  O   UNL     1       9.282  -2.465  -3.319  1.00  0.00    -0.481 OA
ATOM      5  H   UNL     1      10.095  -2.190  -3.874  1.00  0.00     0.296 HD
ENDBRANCH   2   4
ENDBRANCH   1   2
BRANCH   1   6
ATOM      6  C   UNL     1       7.447  -1.477  -0.415  1.00  0.00     0.047 C 
BRANCH   6   7
ATOM      7  C   UNL     1       6.586  -0.401   0.069  1.00  0.00    -0.047 A 
ATOM      8  C   UNL     1       6.020  -0.380   1.320  1.00  0.00     0.004 A 
ATOM      9  C   UNL     1       6.317   0.657  -0.762  1.00  0.00     0.004 A 
ATOM     10  C   UNL     1       5.212   0.641   1.760  1.00  0.00     0.000 A 
ATOM     11  C   UNL     1       5.511   1.696  -0.355  1.00  0.00     0.000 A 
ATOM     12  C   UNL     1       4.946   1.700   0.919  1.00  0.00     0.000 A 
ENDBRANCH   6   7
ENDBRANCH   1   6
TORSDOF 4
ENDMDL
MODEL 4
REMARK VINA RESULT:      -6.7      3.309      5.029
REMARK SMILES O=C(O)CCc1ccccc1
REMARK SMILES IDX 4 1 2 2 1 3 3 4 5 6 6 7 7 8 11 9 8 10 10 11 9 12
REMARK H PARENT 3 5
REMARK Flexibility Score: inf
ROOT
ATOM      1  C   UNL     1       5.027   1.713   0.721  1.00  0.00     0.127 C 
ENDROOT
BRANCH   1   2
ATOM      2  C   UNL     1       4.610   0.932   1.915  1.00  0.00     0.303 C 
ATOM      3  O   UNL     1       5.287  -0.004   2.411  1.00  0.00    -0.252 OA
BRANCH   2   4
ATOM      4  O   UNL     1       3.407   1.241   2.531  1.00  0.00    -0.481 OA
ATOM      5  H   UNL     1       3.446   1.392   3.541  1.00  0.00     0.296 HD
ENDBRANCH   2   4
ENDBRANCH   1   2
BRANCH   1   6
ATOM      6  C   UNL     1       6.525   1.793   0.674  1.00  0.00     0.047 C 
BRANCH   6   7
ATOM      7  C   UNL     1       7.139   1.004  -0.391  1.00  0.00    -0.047 A 
ATOM      8  C   UNL     1       6.453   0.101  -1.166  1.00  0.00     0.004 A 
ATOM      9  C   UNL     1       8.479   1.162  -0.645  1.00  0.00     0.004 A 
ATOM     10  C   UNL     1       7.046  -0.633  -2.165  1.00  0.00     0.000 A 
ATOM     11  C   UNL     1       9.105   0.443  -1.636  1.00  0.00     0.000 A 
ATOM     12  C   UNL     1       8.392  -0.469  -2.413  1.00  0.00     0.000 A 
ENDBRANCH   6   7
ENDBRANCH   1   6
TORSDOF 4
ENDMDL
MODEL 5
REMARK VINA RESULT:      -6.6      1.978      2.343
REMARK SMILES O=C(O)CCc1ccccc1
REMARK SMILES IDX 4 1 2 2 1 3 3 4 5 6 6 7 7 8 11 9 8 10 10 11 9 12
REMARK H PARENT 3 5
REMARK Flexibility Score: inf
ROOT
ATOM      1  C   UNL     1       8.355   0.149  -2.178  1.00  0.00     0.127 C 
ENDROOT
BRANCH   1   2
ATOM      2  C   UNL     1       9.427   0.349  -1.169  1.00  0.00     0.303 C 
ATOM      3  O   UNL     1       9.530  -0.323  -0.112  1.00  0.00    -0.252 OA
BRANCH   2   4
ATOM      4  O   UNL     1      10.381   1.331  -1.390  1.00  0.00    -0.481 OA
ATOM      5  H   UNL     1      10.390   2.106  -0.723  1.00  0.00     0.296 HD
ENDBRANCH   2   4
ENDBRANCH   1   2
BRANCH   1   6
ATOM      6  C   UNL     1       7.198  -0.566  -1.543  1.00  0.00     0.047 C 
BRANCH   6   7
ATOM      7  C   UNL     1       6.397   0.261  -0.644  1.00  0.00    -0.047 A 
ATOM      8  C   UNL     1       5.851   1.469  -1.000  1.00  0.00     0.004 A 
ATOM      9  C   UNL     1       6.170  -0.182   0.636  1.00  0.00     0.004 A 
ATOM     10  C   UNL     1       5.099   2.235  -0.140  1.00  0.00     0.000 A 
ATOM     11  C   UNL     1       5.423   0.559   1.523  1.00  0.00     0.000 A 
ATOM     12  C   UNL     1       4.875   1.783   1.143  1.00  0.00     0.000 A 
ENDBRANCH   6   7
ENDBRANCH   1   6
TORSDOF 4
ENDMDL
