@<TRIPOS>MOLECULE
/home/cewinharhar/GITHUB/reincatalyze/data/processed/docking_pred/2023-Apr-25-2140_maxeplen10_maxtrainstep200_exh16_gamma099_lrac3e-4_lrcr1e-3/98ce2146f260201d1ebb2f82702d5d512d51d1e1_ligand_2.pdbqt
 12 12 0 0 0
SMALL
GASTEIGER

@<TRIPOS>ATOM
      1  C          5.0270    1.7130    0.7210 C.3     1  UNL1        0.1270
      2  C          4.6100    0.9320    1.9150 C.2     1  UNL1        0.3030
      3  O          5.2870   -0.0040    2.4110 O.2     1  UNL1       -0.2520
      4  O          3.4070    1.2410    2.5310 O.3     1  UNL1       -0.4810
      5  H          3.4460    1.3920    3.5410 H       1  UNL1        0.2960
      6  C          6.5250    1.7930    0.6740 C.3     1  UNL1        0.0470
      7  C          7.1390    1.0040   -0.3910 C.2     1  UNL1       -0.0470
      8  C          6.4530    0.1010   -1.1660 C.2     1  UNL1        0.0040
      9  C          8.4790    1.1620   -0.6450 C.2     1  UNL1        0.0040
     10  C          7.0460   -0.6330   -2.1650 C.2     1  UNL1        0.0000
     11  C          9.1050    0.4430   -1.6360 C.2     1  UNL1        0.0000
     12  C          8.3920   -0.4690   -2.4130 C.2     1  UNL1        0.0000
@<TRIPOS>BOND
     1    12    10    2
     2    12    11    1
     3    10     8    1
     4    11     9    2
     5     8     7    2
     6     9     7    1
     7     7     6    1
     8     6     1    1
     9     1     2    1
    10     2     3    2
    11     2     4    1
    12     4     5    1
