@<TRIPOS>MOLECULE
/home/cewinharhar/GITHUB/reincatalyze/data/processed/docking_pred/2023-Apr-25-2140_maxeplen10_maxtrainstep200_exh16_gamma099_lrac3e-4_lrcr1e-3/98ce2146f260201d1ebb2f82702d5d512d51d1e1_ligand_2.pdbqt
 12 12 0 0 0
SMALL
GASTEIGER

@<TRIPOS>ATOM
      1  C          8.3550    0.1490   -2.1780 C.3     1  UNL1        0.1270
      2  C          9.4270    0.3490   -1.1690 C.2     1  UNL1        0.3030
      3  O          9.5300   -0.3230   -0.1120 O.2     1  UNL1       -0.2520
      4  O         10.3810    1.3310   -1.3900 O.3     1  UNL1       -0.4810
      5  H         10.3900    2.1060   -0.7230 H       1  UNL1        0.2960
      6  C          7.1980   -0.5660   -1.5430 C.3     1  UNL1        0.0470
      7  C          6.3970    0.2610   -0.6440 C.2     1  UNL1       -0.0470
      8  C          5.8510    1.4690   -1.0000 C.2     1  UNL1        0.0040
      9  C          6.1700   -0.1820    0.6360 C.2     1  UNL1        0.0040
     10  C          5.0990    2.2350   -0.1400 C.2     1  UNL1        0.0000
     11  C          5.4230    0.5590    1.5230 C.2     1  UNL1        0.0000
     12  C          4.8750    1.7830    1.1430 C.2     1  UNL1        0.0000
@<TRIPOS>BOND
     1     1     6    1
     2     1     2    1
     3     6     7    1
     4     4     2    1
     5     4     5    1
     6     2     3    2
     7     8     7    2
     8     8    10    1
     9     7     9    1
    10    10    12    2
    11     9    11    2
    12    12    11    1
