@<TRIPOS>MOLECULE
/home/cewinharhar/GITHUB/reincatalyze/data/processed/docking_pred/2023-Apr-25-2140_maxeplen10_maxtrainstep200_exh16_gamma099_lrac3e-4_lrcr1e-3/98ce2146f260201d1ebb2f82702d5d512d51d1e1_ligand_2.pdbqt
 12 12 0 0 0
SMALL
GASTEIGER

@<TRIPOS>ATOM
      1  C          7.4130   -1.6770   -1.9020 C.3     1  UNL1        0.1270
      2  C          8.7800   -1.5020   -2.4560 C.2     1  UNL1        0.3030
      3  O          9.5250   -0.5250   -2.1910 O.2     1  UNL1       -0.2520
      4  O          9.2820   -2.4650   -3.3190 O.3     1  UNL1       -0.4810
      5  H         10.0950   -2.1900   -3.8740 H       1  UNL1        0.2960
      6  C          7.4470   -1.4770   -0.4150 C.3     1  UNL1        0.0470
      7  C          6.5860   -0.4010    0.0690 C.2     1  UNL1       -0.0470
      8  C          6.0200   -0.3800    1.3200 C.2     1  UNL1        0.0040
      9  C          6.3170    0.6570   -0.7620 C.2     1  UNL1        0.0040
     10  C          5.2120    0.6410    1.7600 C.2     1  UNL1        0.0000
     11  C          5.5110    1.6960   -0.3550 C.2     1  UNL1        0.0000
     12  C          4.9460    1.7000    0.9190 C.2     1  UNL1        0.0000
@<TRIPOS>BOND
     1     5     4    1
     2     4     2    1
     3     2     3    2
     4     2     1    1
     5     1     6    1
     6     9    11    1
     7     9     7    2
     8     6     7    1
     9    11    12    2
    10     7     8    1
    11    12    10    1
    12     8    10    2
