@<TRIPOS>MOLECULE
/home/cewinharhar/GITHUB/reincatalyze/data/processed/docking_pred/2023-Apr-25-2140_maxeplen10_maxtrainstep200_exh16_gamma099_lrac3e-4_lrcr1e-3/98ce2146f260201d1ebb2f82702d5d512d51d1e1_ligand_2.pdbqt
 12 12 0 0 0
SMALL
GASTEIGER

@<TRIPOS>ATOM
      1  C          8.4440   -0.5820   -2.2090 C.3     1  UNL1        0.1270
      2  C          8.5150   -1.8880   -2.9150 C.2     1  UNL1        0.3030
      3  O          9.5820   -2.5280   -3.0990 O.2     1  UNL1       -0.2520
      4  O          7.3460   -2.4510   -3.4050 O.3     1  UNL1       -0.4810
      5  H          6.4900   -2.2210   -2.8950 H       1  UNL1        0.2960
      6  C          7.0180   -0.1170   -2.1630 C.3     1  UNL1        0.0470
      7  C          6.4830    0.0590   -0.8150 C.2     1  UNL1       -0.0470
      8  C          5.8540    1.2010   -0.3850 C.2     1  UNL1        0.0040
      9  C          6.6090   -0.9690    0.0870 C.2     1  UNL1        0.0040
     10  C          5.3570    1.3500    0.8880 C.2     1  UNL1        0.0000
     11  C          6.1240   -0.8540    1.3690 C.2     1  UNL1        0.0000
     12  C          5.4880    0.3130    1.7870 C.2     1  UNL1        0.0000
@<TRIPOS>BOND
     1     4     2    1
     2     4     5    1
     3     3     2    2
     4     2     1    1
     5     1     6    1
     6     6     7    1
     7     7     8    2
     8     7     9    1
     9     8    10    1
    10     9    11    2
    11    10    12    2
    12    11    12    1
