@<TRIPOS>MOLECULE
/home/cewinharhar/GITHUB/reincatalyze/data/processed/docking_pred/2023-Apr-25-2140_maxeplen10_maxtrainstep200_exh16_gamma099_lrac3e-4_lrcr1e-3/9cf679a9c5542d052f5b9fd38195e755841f8057_ligand_2.pdbqt
 12 12 0 0 0
SMALL
GASTEIGER

@<TRIPOS>ATOM
      1  C          8.4300   -0.5490   -2.2370 C.3     1  UNL1        0.1270
      2  C          8.5160   -1.8610   -2.9280 C.2     1  UNL1        0.3030
      3  O          9.5890   -2.4900   -3.1070 O.2     1  UNL1       -0.2520
      4  O          7.3530   -2.4430   -3.4100 O.3     1  UNL1       -0.4810
      5  H          6.9010   -3.1210   -2.7920 H       1  UNL1        0.2960
      6  C          6.9970   -0.1060   -2.1820 C.3     1  UNL1        0.0470
      7  C          6.4710    0.0710   -0.8300 C.2     1  UNL1       -0.0470
      8  C          5.8340    1.2100   -0.4010 C.2     1  UNL1        0.0040
      9  C          6.6140   -0.9510    0.0750 C.2     1  UNL1        0.0040
     10  C          5.3450    1.3600    0.8750 C.2     1  UNL1        0.0000
     11  C          6.1370   -0.8340    1.3610 C.2     1  UNL1        0.0000
     12  C          5.4930    0.3290    1.7780 C.2     1  UNL1        0.0000
@<TRIPOS>BOND
     1     4     2    1
     2     4     5    1
     3     3     2    2
     4     2     1    1
     5     1     6    1
     6     6     7    1
     7     7     8    2
     8     7     9    1
     9     8    10    1
    10     9    11    2
    11    10    12    2
    12    11    12    1
