@<TRIPOS>MOLECULE
/home/cewinharhar/GITHUB/reincatalyze/data/processed/docking_pred/2023-Apr-25-2140_maxeplen10_maxtrainstep200_exh16_gamma099_lrac3e-4_lrcr1e-3/9cf679a9c5542d052f5b9fd38195e755841f8057_ligand_2.pdbqt
 12 12 0 0 0
SMALL
GASTEIGER

@<TRIPOS>ATOM
      1  C          8.3470   -0.9320   -1.8290 C.3     1  UNL1        0.1270
      2  C          8.3160   -2.0110   -2.8500 C.2     1  UNL1        0.3030
      3  O          7.2610   -2.4530   -3.3720 O.2     1  UNL1       -0.2520
      4  O          9.5120   -2.5770   -3.2640 O.3     1  UNL1       -0.4810
      5  H         10.2420   -2.6530   -2.5520 H       1  UNL1        0.2960
      6  C          7.5380   -1.3500   -0.6360 C.3     1  UNL1        0.0470
      7  C          6.6540   -0.3120   -0.1110 C.2     1  UNL1       -0.0470
      8  C          6.2760    0.8010   -0.8220 C.2     1  UNL1        0.0040
      9  C          6.1650   -0.4410    1.1650 C.2     1  UNL1        0.0040
     10  C          5.4430    1.7680   -0.3130 C.2     1  UNL1        0.0000
     11  C          5.3290    0.5080    1.7060 C.2     1  UNL1        0.0000
     12  C          4.9560    1.6310    0.9690 C.2     1  UNL1        0.0000
@<TRIPOS>BOND
     1     3     2    2
     2     4     2    1
     3     4     5    1
     4     2     1    1
     5     1     6    1
     6     8    10    1
     7     8     7    2
     8     6     7    1
     9    10    12    2
    10     7     9    1
    11    12    11    1
    12     9    11    2
