@<TRIPOS>MOLECULE
/home/cewinharhar/GITHUB/reincatalyze/data/processed/docking_pred/2023-Apr-25-2140_maxeplen10_maxtrainstep200_exh16_gamma099_lrac3e-4_lrcr1e-3/9cf679a9c5542d052f5b9fd38195e755841f8057_ligand_2.pdbqt
 12 12 0 0 0
SMALL
GASTEIGER

@<TRIPOS>ATOM
      1  C          4.9970    1.8110    0.7000 C.3     1  UNL1        0.1270
      2  C          4.5060    1.1010    1.9090 C.2     1  UNL1        0.3030
      3  O          5.1420    0.1860    2.4920 O.2     1  UNL1       -0.2520
      4  O          3.2750    1.4540    2.4410 O.3     1  UNL1       -0.4810
      5  H          3.1890    1.3850    3.4570 H       1  UNL1        0.2960
      6  C          6.4970    1.8660    0.7270 C.3     1  UNL1        0.0470
      7  C          7.1480    1.1020   -0.3340 C.2     1  UNL1       -0.0470
      8  C          8.4830    1.2050   -0.6410 C.2     1  UNL1        0.0040
      9  C          6.3960    0.2270   -1.0770 C.2     1  UNL1        0.0040
     10  C          9.0800    0.4780   -1.6430 C.2     1  UNL1        0.0000
     11  C          6.9610   -0.5160   -2.0890 C.2     1  UNL1        0.0000
     12  C          8.3180   -0.3980   -2.3850 C.2     1  UNL1        0.0000
@<TRIPOS>BOND
     1    12    11    2
     2    12    10    1
     3    11     9    1
     4    10     8    2
     5     9     7    2
     6     8     7    1
     7     7     6    1
     8     1     6    1
     9     1     2    1
    10     2     4    1
    11     2     3    2
    12     4     5    1
