MODEL 1
REMARK VINA RESULT:      -7.3      0.000      0.000
REMARK SMILES O=C(O)CCc1ccccc1
REMARK SMILES IDX 4 1 2 2 1 3 3 4 5 6 6 7 7 8 11 9 8 10 10 11 9 12
REMARK H PARENT 3 5
REMARK Flexibility Score: inf
ROOT
ATOM      1  C   UNL     1       8.449  -0.573  -2.227  1.00  0.00     0.127 C 
ENDROOT
BRANCH   1   2
ATOM      2  C   UNL     1       8.516  -1.900  -2.892  1.00  0.00     0.303 C 
ATOM      3  O   UNL     1       9.573  -2.570  -3.014  1.00  0.00    -0.252 OA
BRANCH   2   4
ATOM      4  O   UNL     1       7.355  -2.448  -3.414  1.00  0.00    -0.481 OA
ATOM      5  H   UNL     1       6.632  -2.698  -2.735  1.00  0.00     0.296 HD
ENDBRANCH   2   4
ENDBRANCH   1   2
BRANCH   1   6
ATOM      6  C   UNL     1       7.020  -0.117  -2.165  1.00  0.00     0.047 C 
BRANCH   6   7
ATOM      7  C   UNL     1       6.491   0.031  -0.812  1.00  0.00    -0.047 A 
ATOM      8  C   UNL     1       6.580  -0.941   0.154  1.00  0.00     0.004 A 
ATOM      9  C   UNL     1       5.866   1.204  -0.470  1.00  0.00     0.004 A 
ATOM     10  C   UNL     1       6.076  -0.785   1.424  1.00  0.00     0.000 A 
ATOM     11  C   UNL     1       5.350   1.394   0.791  1.00  0.00     0.000 A 
ATOM     12  C   UNL     1       5.449   0.396   1.759  1.00  0.00     0.000 A 
ENDBRANCH   6   7
ENDBRANCH   1   6
TORSDOF 4
ENDMDL
MODEL 2
REMARK VINA RESULT:      -7.3      0.074      1.426
REMARK SMILES O=C(O)CCc1ccccc1
REMARK SMILES IDX 4 1 2 2 1 3 3 4 5 6 6 7 7 8 11 9 8 10 10 11 9 12
REMARK H PARENT 3 5
REMARK Flexibility Score: inf
ROOT
ATOM      1  C   UNL     1       8.430  -0.549  -2.237  1.00  0.00     0.127 C 
ENDROOT
BRANCH   1   2
ATOM      2  C   UNL     1       8.516  -1.861  -2.928  1.00  0.00     0.303 C 
ATOM      3  O   UNL     1       9.589  -2.490  -3.107  1.00  0.00    -0.252 OA
BRANCH   2   4
ATOM      4  O   UNL     1       7.353  -2.443  -3.410  1.00  0.00    -0.481 OA
ATOM      5  H   UNL     1       6.901  -3.121  -2.792  1.00  0.00     0.296 HD
ENDBRANCH   2   4
ENDBRANCH   1   2
BRANCH   1   6
ATOM      6  C   UNL     1       6.997  -0.106  -2.182  1.00  0.00     0.047 C 
BRANCH   6   7
ATOM      7  C   UNL     1       6.471   0.071  -0.830  1.00  0.00    -0.047 A 
ATOM      8  C   UNL     1       5.834   1.210  -0.401  1.00  0.00     0.004 A 
ATOM      9  C   UNL     1       6.614  -0.951   0.075  1.00  0.00     0.004 A 
ATOM     10  C   UNL     1       5.345   1.360   0.875  1.00  0.00     0.000 A 
ATOM     11  C   UNL     1       6.137  -0.834   1.361  1.00  0.00     0.000 A 
ATOM     12  C   UNL     1       5.493   0.329   1.778  1.00  0.00     0.000 A 
ENDBRANCH   6   7
ENDBRANCH   1   6
TORSDOF 4
ENDMDL
MODEL 3
REMARK VINA RESULT:      -7.0      0.674      1.878
REMARK SMILES O=C(O)CCc1ccccc1
REMARK SMILES IDX 4 1 2 2 1 3 3 4 5 6 6 7 7 8 11 9 8 10 10 11 9 12
REMARK H PARENT 3 5
REMARK Flexibility Score: inf
ROOT
ATOM      1  C   UNL     1       8.347  -0.932  -1.829  1.00  0.00     0.127 C 
ENDROOT
BRANCH   1   2
ATOM      2  C   UNL     1       8.316  -2.011  -2.850  1.00  0.00     0.303 C 
ATOM      3  O   UNL     1       7.261  -2.453  -3.372  1.00  0.00    -0.252 OA
BRANCH   2   4
ATOM      4  O   UNL     1       9.512  -2.577  -3.264  1.00  0.00    -0.481 OA
ATOM      5  H   UNL     1      10.242  -2.653  -2.552  1.00  0.00     0.296 HD
ENDBRANCH   2   4
ENDBRANCH   1   2
BRANCH   1   6
ATOM      6  C   UNL     1       7.538  -1.350  -0.636  1.00  0.00     0.047 C 
BRANCH   6   7
ATOM      7  C   UNL     1       6.654  -0.312  -0.111  1.00  0.00    -0.047 A 
ATOM      8  C   UNL     1       6.276   0.801  -0.822  1.00  0.00     0.004 A 
ATOM      9  C   UNL     1       6.165  -0.441   1.165  1.00  0.00     0.004 A 
ATOM     10  C   UNL     1       5.443   1.768  -0.313  1.00  0.00     0.000 A 
ATOM     11  C   UNL     1       5.329   0.508   1.706  1.00  0.00     0.000 A 
ATOM     12  C   UNL     1       4.956   1.631   0.969  1.00  0.00     0.000 A 
ENDBRANCH   6   7
ENDBRANCH   1   6
TORSDOF 4
ENDMDL
MODEL 4
REMARK VINA RESULT:      -6.7      3.376      5.076
REMARK SMILES O=C(O)CCc1ccccc1
REMARK SMILES IDX 4 1 2 2 1 3 3 4 5 6 6 7 7 8 11 9 8 10 10 11 9 12
REMARK H PARENT 3 5
REMARK Flexibility Score: inf
ROOT
ATOM      1  C   UNL     1       4.997   1.811   0.700  1.00  0.00     0.127 C 
ENDROOT
BRANCH   1   2
ATOM      2  C   UNL     1       4.506   1.101   1.909  1.00  0.00     0.303 C 
ATOM      3  O   UNL     1       5.142   0.186   2.492  1.00  0.00    -0.252 OA
BRANCH   2   4
ATOM      4  O   UNL     1       3.275   1.454   2.441  1.00  0.00    -0.481 OA
ATOM      5  H   UNL     1       3.189   1.385   3.457  1.00  0.00     0.296 HD
ENDBRANCH   2   4
ENDBRANCH   1   2
BRANCH   1   6
ATOM      6  C   UNL     1       6.497   1.866   0.727  1.00  0.00     0.047 C 
BRANCH   6   7
ATOM      7  C   UNL     1       7.148   1.102  -0.334  1.00  0.00    -0.047 A 
ATOM      8  C   UNL     1       8.483   1.205  -0.641  1.00  0.00     0.004 A 
ATOM      9  C   UNL     1       6.396   0.227  -1.077  1.00  0.00     0.004 A 
ATOM     10  C   UNL     1       9.080   0.478  -1.643  1.00  0.00     0.000 A 
ATOM     11  C   UNL     1       6.961  -0.516  -2.089  1.00  0.00     0.000 A 
ATOM     12  C   UNL     1       8.318  -0.398  -2.385  1.00  0.00     0.000 A 
ENDBRANCH   6   7
ENDBRANCH   1   6
TORSDOF 4
ENDMDL
MODEL 5
REMARK VINA RESULT:      -6.6      1.938      2.635
REMARK SMILES O=C(O)CCc1ccccc1
REMARK SMILES IDX 4 1 2 2 1 3 3 4 5 6 6 7 7 8 11 9 8 10 10 11 9 12
REMARK H PARENT 3 5
REMARK Flexibility Score: inf
ROOT
ATOM      1  C   UNL     1       8.244   0.174  -2.158  1.00  0.00     0.127 C 
ENDROOT
BRANCH   1   2
ATOM      2  C   UNL     1       9.362   0.342  -1.194  1.00  0.00     0.303 C 
ATOM      3  O   UNL     1       9.517  -0.368  -0.169  1.00  0.00    -0.252 OA
BRANCH   2   4
ATOM      4  O   UNL     1      10.301   1.337  -1.423  1.00  0.00    -0.481 OA
ATOM      5  H   UNL     1      10.151   1.912  -2.256  1.00  0.00     0.296 HD
ENDBRANCH   2   4
ENDBRANCH   1   2
BRANCH   1   6
ATOM      6  C   UNL     1       7.123  -0.574  -1.497  1.00  0.00     0.047 C 
BRANCH   6   7
ATOM      7  C   UNL     1       6.345   0.219  -0.549  1.00  0.00    -0.047 A 
ATOM      8  C   UNL     1       5.791   1.440  -0.848  1.00  0.00     0.004 A 
ATOM      9  C   UNL     1       6.146  -0.270   0.718  1.00  0.00     0.004 A 
ATOM     10  C   UNL     1       5.060   2.173   0.057  1.00  0.00     0.000 A 
ATOM     11  C   UNL     1       5.421   0.438   1.649  1.00  0.00     0.000 A 
ATOM     12  C   UNL     1       4.866   1.675   1.327  1.00  0.00     0.000 A 
ENDBRANCH   6   7
ENDBRANCH   1   6
TORSDOF 4
ENDMDL
