@<TRIPOS>MOLECULE
/home/cewinharhar/GITHUB/reincatalyze/data/processed/docking_pred/2023-Apr-25-2140_maxeplen10_maxtrainstep200_exh16_gamma099_lrac3e-4_lrcr1e-3/9cf679a9c5542d052f5b9fd38195e755841f8057_ligand_2.pdbqt
 12 12 0 0 0
SMALL
GASTEIGER

@<TRIPOS>ATOM
      1  C          8.4490   -0.5730   -2.2270 C.3     1  UNL1        0.1270
      2  C          8.5160   -1.9000   -2.8920 C.2     1  UNL1        0.3030
      3  O          9.5730   -2.5700   -3.0140 O.2     1  UNL1       -0.2520
      4  O          7.3550   -2.4480   -3.4140 O.3     1  UNL1       -0.4810
      5  H          6.6320   -2.6980   -2.7350 H       1  UNL1        0.2960
      6  C          7.0200   -0.1170   -2.1650 C.3     1  UNL1        0.0470
      7  C          6.4910    0.0310   -0.8120 C.2     1  UNL1       -0.0470
      8  C          6.5800   -0.9410    0.1540 C.2     1  UNL1        0.0040
      9  C          5.8660    1.2040   -0.4700 C.2     1  UNL1        0.0040
     10  C          6.0760   -0.7850    1.4240 C.2     1  UNL1        0.0000
     11  C          5.3500    1.3940    0.7910 C.2     1  UNL1        0.0000
     12  C          5.4490    0.3960    1.7590 C.2     1  UNL1        0.0000
@<TRIPOS>BOND
     1     4     2    1
     2     4     5    1
     3     3     2    2
     4     2     1    1
     5     1     6    1
     6     6     7    1
     7     7     9    2
     8     7     8    1
     9     9    11    1
    10     8    10    2
    11    11    12    2
    12    10    12    1
