@<TRIPOS>MOLECULE
/home/cewinharhar/GITHUB/reincatalyze/data/processed/docking_pred/2023-Apr-25-2140_maxeplen10_maxtrainstep200_exh16_gamma099_lrac3e-4_lrcr1e-3/9cf679a9c5542d052f5b9fd38195e755841f8057_ligand_2.pdbqt
 12 12 0 0 0
SMALL
GASTEIGER

@<TRIPOS>ATOM
      1  C          8.2440    0.1740   -2.1580 C.3     1  UNL1        0.1270
      2  C          9.3620    0.3420   -1.1940 C.2     1  UNL1        0.3030
      3  O          9.5170   -0.3680   -0.1690 O.2     1  UNL1       -0.2520
      4  O         10.3010    1.3370   -1.4230 O.3     1  UNL1       -0.4810
      5  H         10.1510    1.9120   -2.2560 H       1  UNL1        0.2960
      6  C          7.1230   -0.5740   -1.4970 C.3     1  UNL1        0.0470
      7  C          6.3450    0.2190   -0.5490 C.2     1  UNL1       -0.0470
      8  C          5.7910    1.4400   -0.8480 C.2     1  UNL1        0.0040
      9  C          6.1460   -0.2700    0.7180 C.2     1  UNL1        0.0040
     10  C          5.0600    2.1730    0.0570 C.2     1  UNL1        0.0000
     11  C          5.4210    0.4380    1.6490 C.2     1  UNL1        0.0000
     12  C          4.8660    1.6750    1.3270 C.2     1  UNL1        0.0000
@<TRIPOS>BOND
     1     5     4    1
     2     1     6    1
     3     1     2    1
     4     6     7    1
     5     4     2    1
     6     2     3    2
     7     8     7    2
     8     8    10    1
     9     7     9    1
    10    10    12    2
    11     9    11    2
    12    12    11    1
