@<TRIPOS>MOLECULE
/home/cewinharhar/GITHUB/reincatalyze/data/processed/docking_pred/2023-Apr-25-2140_maxeplen10_maxtrainstep200_exh16_gamma099_lrac3e-4_lrcr1e-3/a1c3c4a97d6bd518e48ffa0772dda1f342f6565e_ligand_2.pdbqt
 12 12 0 0 0
SMALL
GASTEIGER

@<TRIPOS>ATOM
      1  C          8.4820   -0.6260   -2.1380 C.3     1  UNL1        0.1270
      2  C          8.5290   -1.8990   -2.9050 C.2     1  UNL1        0.3030
      3  O          9.5820   -2.5540   -3.1100 O.2     1  UNL1       -0.2520
      4  O          7.3520   -2.4090   -3.4310 O.3     1  UNL1       -0.4810
      5  H          6.6370   -2.6790   -2.7510 H       1  UNL1        0.2960
      6  C          7.0830   -0.0820   -2.1600 C.3     1  UNL1        0.0470
      7  C          6.4970    0.1300   -0.8390 C.2     1  UNL1       -0.0470
      8  C          5.8130    1.2640   -0.4790 C.2     1  UNL1        0.0040
      9  C          6.6300   -0.8540    0.1100 C.2     1  UNL1        0.0040
     10  C          5.2670    1.4470    0.7690 C.2     1  UNL1        0.0000
     11  C          6.0980   -0.7040    1.3700 C.2     1  UNL1        0.0000
     12  C          5.4050    0.4560    1.7160 C.2     1  UNL1        0.0000
@<TRIPOS>BOND
     1     4     2    1
     2     4     5    1
     3     3     2    2
     4     2     1    1
     5     6     1    1
     6     6     7    1
     7     7     8    2
     8     7     9    1
     9     8    10    1
    10     9    11    2
    11    10    12    2
    12    11    12    1
