@<TRIPOS>MOLECULE
/home/cewinharhar/GITHUB/reincatalyze/data/processed/docking_pred/2023-Apr-25-2140_maxeplen10_maxtrainstep200_exh16_gamma099_lrac3e-4_lrcr1e-3/a1c3c4a97d6bd518e48ffa0772dda1f342f6565e_ligand_2.pdbqt
 12 12 0 0 0
SMALL
GASTEIGER

@<TRIPOS>ATOM
      1  C          5.0390    1.7680    0.7210 C.3     1  UNL1        0.1270
      2  C          4.5910    1.0310    1.9310 C.2     1  UNL1        0.3030
      3  O          5.2690    0.1380    2.5000 O.2     1  UNL1       -0.2520
      4  O          3.3530    1.3330    2.4800 O.3     1  UNL1       -0.4810
      5  H          3.3660    1.9010    3.3300 H       1  UNL1        0.2960
      6  C          6.5390    1.8080    0.6880 C.3     1  UNL1        0.0470
      7  C          7.1410    1.0070   -0.3750 C.2     1  UNL1       -0.0470
      8  C          6.4600    0.0560   -1.0950 C.2     1  UNL1        0.0040
      9  C          8.4640    1.2050   -0.6840 C.2     1  UNL1        0.0040
     10  C          7.0430   -0.6890   -2.0920 C.2     1  UNL1        0.0000
     11  C          9.0790    0.4760   -1.6760 C.2     1  UNL1        0.0000
     12  C          8.3710   -0.4850   -2.3960 C.2     1  UNL1        0.0000
@<TRIPOS>BOND
     1    12    10    2
     2    12    11    1
     3    10     8    1
     4    11     9    2
     5     8     7    2
     6     9     7    1
     7     7     6    1
     8     6     1    1
     9     1     2    1
    10     2     4    1
    11     2     3    2
    12     4     5    1
