@<TRIPOS>MOLECULE
/home/cewinharhar/GITHUB/reincatalyze/data/processed/docking_pred/2023-Apr-25-2140_maxeplen10_maxtrainstep200_exh16_gamma099_lrac3e-4_lrcr1e-3/a1c3c4a97d6bd518e48ffa0772dda1f342f6565e_ligand_2.pdbqt
 12 12 0 0 0
SMALL
GASTEIGER

@<TRIPOS>ATOM
      1  C          8.4790   -0.5830   -2.1930 C.3     1  UNL1        0.1270
      2  C          8.5270   -1.8830   -2.9120 C.2     1  UNL1        0.3030
      3  O          9.5810   -2.5410   -3.1010 O.2     1  UNL1       -0.2520
      4  O          7.3490   -2.4180   -3.4110 O.3     1  UNL1       -0.4810
      5  H          6.6710   -1.7450   -3.7780 H       1  UNL1        0.2960
      6  C          7.0630   -0.0860   -2.1540 C.3     1  UNL1        0.0470
      7  C          6.5090    0.0530   -0.8090 C.2     1  UNL1       -0.0470
      8  C          6.6020   -0.9160    0.1600 C.2     1  UNL1        0.0040
      9  C          5.8550    1.2130   -0.4800 C.2     1  UNL1        0.0040
     10  C          6.0750   -0.7680    1.4210 C.2     1  UNL1        0.0000
     11  C          5.3140    1.3950    0.7730 C.2     1  UNL1        0.0000
     12  C          5.4190    0.4000    1.7440 C.2     1  UNL1        0.0000
@<TRIPOS>BOND
     1     5     4    1
     2     4     2    1
     3     3     2    2
     4     2     1    1
     5     1     6    1
     6     6     7    1
     7     7     9    2
     8     7     8    1
     9     9    11    1
    10     8    10    2
    11    11    12    2
    12    10    12    1
