@<TRIPOS>MOLECULE
/home/cewinharhar/GITHUB/reincatalyze/data/processed/docking_pred/2023-Apr-25-2140_maxeplen10_maxtrainstep200_exh16_gamma099_lrac3e-4_lrcr1e-3/a1c3c4a97d6bd518e48ffa0772dda1f342f6565e_ligand_2.pdbqt
 12 12 0 0 0
SMALL
GASTEIGER

@<TRIPOS>ATOM
      1  C          8.3520   -1.5430    0.9720 C.3     1  UNL1        0.1270
      2  C          8.5760   -2.8320    0.2660 C.2     1  UNL1        0.3030
      3  O          9.1580   -3.8210    0.7800 O.2     1  UNL1       -0.2520
      4  O          8.1220   -2.9720   -1.0370 O.3     1  UNL1       -0.4810
      5  H          7.1070   -2.9910   -1.1580 H       1  UNL1        0.2960
      6  C          6.8940   -1.3970    1.2930 C.3     1  UNL1        0.0470
      7  C          6.2790   -0.1790    0.7710 C.2     1  UNL1       -0.0470
      8  C          6.4610    0.2800   -0.5100 C.2     1  UNL1        0.0040
      9  C          5.4710    0.5620    1.5980 C.2     1  UNL1        0.0040
     10  C          5.8750    1.4290   -0.9850 C.2     1  UNL1        0.0000
     11  C          4.8700    1.7180    1.1560 C.2     1  UNL1        0.0000
     12  C          5.0650    2.1680   -0.1490 C.2     1  UNL1        0.0000
@<TRIPOS>BOND
     1     5     4    1
     2     4     2    1
     3    10     8    1
     4    10    12    2
     5     8     7    2
     6    12    11    1
     7     2     3    2
     8     2     1    1
     9     7     6    1
    10     7     9    1
    11     1     6    1
    12    11     9    2
