@<TRIPOS>MOLECULE
/home/cewinharhar/GITHUB/reincatalyze/data/processed/docking_pred/2023-Apr-25-2140_maxeplen10_maxtrainstep200_exh16_gamma099_lrac3e-4_lrcr1e-3/a1c3c4a97d6bd518e48ffa0772dda1f342f6565e_ligand_2.pdbqt
 12 12 0 0 0
SMALL
GASTEIGER

@<TRIPOS>ATOM
      1  C          8.5240    0.6750   -1.6940 C.3     1  UNL1        0.1270
      2  C          9.6520    0.2830   -0.8100 C.2     1  UNL1        0.3030
      3  O          9.5360   -0.4920    0.1730 O.2     1  UNL1       -0.2520
      4  O         10.9160    0.7930   -1.0690 O.3     1  UNL1       -0.4810
      5  H         11.4640    0.2960   -1.7740 H       1  UNL1        0.2960
      6  C          7.3310   -0.1830   -1.3910 C.3     1  UNL1        0.0470
      7  C          6.4340    0.3670   -0.3780 C.2     1  UNL1       -0.0470
      8  C          5.7740    1.5630   -0.5090 C.2     1  UNL1        0.0040
      9  C          6.2300   -0.3420    0.7800 C.2     1  UNL1        0.0040
     10  C          4.9330    2.0660    0.4550 C.2     1  UNL1        0.0000
     11  C          5.3960    0.1320    1.7670 C.2     1  UNL1        0.0000
     12  C          4.7330    1.3490    1.6150 C.2     1  UNL1        0.0000
@<TRIPOS>BOND
     1     5     4    1
     2     1     6    1
     3     1     2    1
     4     6     7    1
     5     4     2    1
     6     2     3    2
     7     8     7    2
     8     8    10    1
     9     7     9    1
    10    10    12    2
    11     9    11    2
    12    12    11    1
