@<TRIPOS>MOLECULE
/home/cewinharhar/GITHUB/reincatalyze/data/processed/docking_pred/2023-Apr-25-2140_maxeplen10_maxtrainstep200_exh16_gamma099_lrac3e-4_lrcr1e-3/a450f47ca4f24610d4ad642e19216dd37a68a7e2_ligand_2.pdbqt
 12 12 0 0 0
SMALL
GASTEIGER

@<TRIPOS>ATOM
      1  C          4.9840    1.7870    0.6890 C.3     1  UNL1        0.1270
      2  C          4.4960    1.0930    1.9090 C.2     1  UNL1        0.3030
      3  O          5.1310    0.1810    2.4980 O.2     1  UNL1       -0.2520
      4  O          3.2710    1.4600    2.4460 O.3     1  UNL1       -0.4810
      5  H          3.2510    2.3480    2.9520 H       1  UNL1        0.2960
      6  C          6.4820    1.8580    0.7200 C.3     1  UNL1        0.0470
      7  C          7.1440    1.0960   -0.3370 C.2     1  UNL1       -0.0470
      8  C          8.4780    1.2110   -0.6420 C.2     1  UNL1        0.0040
      9  C          6.4020    0.2100   -1.0790 C.2     1  UNL1        0.0040
     10  C          9.0850    0.4870   -1.6400 C.2     1  UNL1        0.0000
     11  C          6.9770   -0.5300   -2.0860 C.2     1  UNL1        0.0000
     12  C          8.3330   -0.4000   -2.3800 C.2     1  UNL1        0.0000
@<TRIPOS>BOND
     1    12    11    2
     2    12    10    1
     3    11     9    1
     4    10     8    2
     5     9     7    2
     6     8     7    1
     7     7     6    1
     8     1     6    1
     9     1     2    1
    10     2     4    1
    11     2     3    2
    12     4     5    1
