@<TRIPOS>MOLECULE
/home/cewinharhar/GITHUB/reincatalyze/data/processed/docking_pred/2023-Apr-25-2140_maxeplen10_maxtrainstep200_exh16_gamma099_lrac3e-4_lrcr1e-3/a450f47ca4f24610d4ad642e19216dd37a68a7e2_ligand_2.pdbqt
 12 12 0 0 0
SMALL
GASTEIGER

@<TRIPOS>ATOM
      1  C          8.4270   -0.5590   -2.2360 C.3     1  UNL1        0.1270
      2  C          8.5050   -1.8750   -2.9220 C.2     1  UNL1        0.3030
      3  O          9.5750   -2.5130   -3.0940 O.2     1  UNL1       -0.2520
      4  O          7.3400   -2.4490   -3.4070 O.3     1  UNL1       -0.4810
      5  H          6.4700   -1.9660   -3.1700 H       1  UNL1        0.2960
      6  C          6.9980   -0.1060   -2.1860 C.3     1  UNL1        0.0470
      7  C          6.4700    0.0780   -0.8360 C.2     1  UNL1       -0.0470
      8  C          5.8330    1.2190   -0.4140 C.2     1  UNL1        0.0040
      9  C          6.6110   -0.9400    0.0740 C.2     1  UNL1        0.0040
     10  C          5.3420    1.3750    0.8610 C.2     1  UNL1        0.0000
     11  C          6.1320   -0.8170    1.3580 C.2     1  UNL1        0.0000
     12  C          5.4880    0.3490    1.7690 C.2     1  UNL1        0.0000
@<TRIPOS>BOND
     1     4     5    1
     2     4     2    1
     3     3     2    2
     4     2     1    1
     5     1     6    1
     6     6     7    1
     7     7     8    2
     8     7     9    1
     9     8    10    1
    10     9    11    2
    11    10    12    2
    12    11    12    1
