@<TRIPOS>MOLECULE
/home/cewinharhar/GITHUB/reincatalyze/data/processed/docking_pred/2023-Apr-25-2140_maxeplen10_maxtrainstep200_exh16_gamma099_lrac3e-4_lrcr1e-3/a450f47ca4f24610d4ad642e19216dd37a68a7e2_ligand_2.pdbqt
 12 12 0 0 0
SMALL
GASTEIGER

@<TRIPOS>ATOM
      1  C          8.4610   -0.5850   -2.2040 C.3     1  UNL1        0.1270
      2  C          8.5140   -1.8890   -2.9150 C.2     1  UNL1        0.3030
      3  O          9.5720   -2.5400   -3.1080 O.2     1  UNL1       -0.2520
      4  O          7.3360   -2.4360   -3.4010 O.3     1  UNL1       -0.4810
      5  H          7.3950   -3.3990   -3.7410 H       1  UNL1        0.2960
      6  C          7.0380   -0.1150   -2.1270 C.3     1  UNL1        0.0470
      7  C          6.5120   -0.0010   -0.7690 C.2     1  UNL1       -0.0470
      8  C          6.6110   -0.9940    0.1750 C.2     1  UNL1        0.0040
      9  C          5.8800    1.1600   -0.3990 C.2     1  UNL1        0.0040
     10  C          6.1100   -0.8690    1.4490 C.2     1  UNL1        0.0000
     11  C          5.3660    1.3180    0.8680 C.2     1  UNL1        0.0000
     12  C          5.4770    0.3000    1.8130 C.2     1  UNL1        0.0000
@<TRIPOS>BOND
     1     5     4    1
     2     4     2    1
     3     3     2    2
     4     2     1    1
     5     1     6    1
     6     6     7    1
     7     7     9    2
     8     7     8    1
     9     9    11    1
    10     8    10    2
    11    11    12    2
    12    10    12    1
