MODEL 1
REMARK VINA RESULT:      -7.4      0.000      0.000
REMARK SMILES O=C(O)CCc1ccccc1
REMARK SMILES IDX 4 1 2 2 1 3 3 4 5 6 6 7 7 8 11 9 8 10 10 11 9 12
REMARK H PARENT 3 5
REMARK Flexibility Score: inf
ROOT
ATOM      1  C   UNL     1       8.461  -0.585  -2.204  1.00  0.00     0.127 C 
ENDROOT
BRANCH   1   2
ATOM      2  C   UNL     1       8.514  -1.889  -2.915  1.00  0.00     0.303 C 
ATOM      3  O   UNL     1       9.572  -2.540  -3.108  1.00  0.00    -0.252 OA
BRANCH   2   4
ATOM      4  O   UNL     1       7.336  -2.436  -3.401  1.00  0.00    -0.481 OA
ATOM      5  H   UNL     1       7.395  -3.399  -3.741  1.00  0.00     0.296 HD
ENDBRANCH   2   4
ENDBRANCH   1   2
BRANCH   1   6
ATOM      6  C   UNL     1       7.038  -0.115  -2.127  1.00  0.00     0.047 C 
BRANCH   6   7
ATOM      7  C   UNL     1       6.512  -0.001  -0.769  1.00  0.00    -0.047 A 
ATOM      8  C   UNL     1       6.611  -0.994   0.175  1.00  0.00     0.004 A 
ATOM      9  C   UNL     1       5.880   1.160  -0.399  1.00  0.00     0.004 A 
ATOM     10  C   UNL     1       6.110  -0.869   1.449  1.00  0.00     0.000 A 
ATOM     11  C   UNL     1       5.366   1.318   0.868  1.00  0.00     0.000 A 
ATOM     12  C   UNL     1       5.477   0.300   1.813  1.00  0.00     0.000 A 
ENDBRANCH   6   7
ENDBRANCH   1   6
TORSDOF 4
ENDMDL
MODEL 2
REMARK VINA RESULT:      -7.3      0.074      1.427
REMARK SMILES O=C(O)CCc1ccccc1
REMARK SMILES IDX 4 1 2 2 1 3 3 4 5 6 6 7 7 8 11 9 8 10 10 11 9 12
REMARK H PARENT 3 5
REMARK Flexibility Score: inf
ROOT
ATOM      1  C   UNL     1       8.427  -0.559  -2.236  1.00  0.00     0.127 C 
ENDROOT
BRANCH   1   2
ATOM      2  C   UNL     1       8.505  -1.875  -2.922  1.00  0.00     0.303 C 
ATOM      3  O   UNL     1       9.575  -2.513  -3.094  1.00  0.00    -0.252 OA
BRANCH   2   4
ATOM      4  O   UNL     1       7.340  -2.449  -3.407  1.00  0.00    -0.481 OA
ATOM      5  H   UNL     1       6.470  -1.966  -3.170  1.00  0.00     0.296 HD
ENDBRANCH   2   4
ENDBRANCH   1   2
BRANCH   1   6
ATOM      6  C   UNL     1       6.998  -0.106  -2.186  1.00  0.00     0.047 C 
BRANCH   6   7
ATOM      7  C   UNL     1       6.470   0.078  -0.836  1.00  0.00    -0.047 A 
ATOM      8  C   UNL     1       5.833   1.219  -0.414  1.00  0.00     0.004 A 
ATOM      9  C   UNL     1       6.611  -0.940   0.074  1.00  0.00     0.004 A 
ATOM     10  C   UNL     1       5.342   1.375   0.861  1.00  0.00     0.000 A 
ATOM     11  C   UNL     1       6.132  -0.817   1.358  1.00  0.00     0.000 A 
ATOM     12  C   UNL     1       5.488   0.349   1.769  1.00  0.00     0.000 A 
ENDBRANCH   6   7
ENDBRANCH   1   6
TORSDOF 4
ENDMDL
MODEL 3
REMARK VINA RESULT:      -6.8      3.373      5.088
REMARK SMILES O=C(O)CCc1ccccc1
REMARK SMILES IDX 4 1 2 2 1 3 3 4 5 6 6 7 7 8 11 9 8 10 10 11 9 12
REMARK H PARENT 3 5
REMARK Flexibility Score: inf
ROOT
ATOM      1  C   UNL     1       4.984   1.787   0.689  1.00  0.00     0.127 C 
ENDROOT
BRANCH   1   2
ATOM      2  C   UNL     1       4.496   1.093   1.909  1.00  0.00     0.303 C 
ATOM      3  O   UNL     1       5.131   0.181   2.498  1.00  0.00    -0.252 OA
BRANCH   2   4
ATOM      4  O   UNL     1       3.271   1.460   2.446  1.00  0.00    -0.481 OA
ATOM      5  H   UNL     1       3.251   2.348   2.952  1.00  0.00     0.296 HD
ENDBRANCH   2   4
ENDBRANCH   1   2
BRANCH   1   6
ATOM      6  C   UNL     1       6.482   1.858   0.720  1.00  0.00     0.047 C 
BRANCH   6   7
ATOM      7  C   UNL     1       7.144   1.096  -0.337  1.00  0.00    -0.047 A 
ATOM      8  C   UNL     1       8.478   1.211  -0.642  1.00  0.00     0.004 A 
ATOM      9  C   UNL     1       6.402   0.210  -1.079  1.00  0.00     0.004 A 
ATOM     10  C   UNL     1       9.085   0.487  -1.640  1.00  0.00     0.000 A 
ATOM     11  C   UNL     1       6.977  -0.530  -2.086  1.00  0.00     0.000 A 
ATOM     12  C   UNL     1       8.333  -0.400  -2.380  1.00  0.00     0.000 A 
ENDBRANCH   6   7
ENDBRANCH   1   6
TORSDOF 4
ENDMDL
MODEL 4
REMARK VINA RESULT:      -6.7      1.950      2.660
REMARK SMILES O=C(O)CCc1ccccc1
REMARK SMILES IDX 4 1 2 2 1 3 3 4 5 6 6 7 7 8 11 9 8 10 10 11 9 12
REMARK H PARENT 3 5
REMARK Flexibility Score: inf
ROOT
ATOM      1  C   UNL     1       8.268   0.234  -2.205  1.00  0.00     0.127 C 
ENDROOT
BRANCH   1   2
ATOM      2  C   UNL     1       9.387   0.356  -1.236  1.00  0.00     0.303 C 
ATOM      3  O   UNL     1       9.508  -0.362  -0.210  1.00  0.00    -0.252 OA
BRANCH   2   4
ATOM      4  O   UNL     1      10.367   1.311  -1.459  1.00  0.00    -0.481 OA
ATOM      5  H   UNL     1      10.217   2.220  -1.014  1.00  0.00     0.296 HD
ENDBRANCH   2   4
ENDBRANCH   1   2
BRANCH   1   6
ATOM      6  C   UNL     1       7.134  -0.514  -1.568  1.00  0.00     0.047 C 
BRANCH   6   7
ATOM      7  C   UNL     1       6.351   0.272  -0.617  1.00  0.00    -0.047 A 
ATOM      8  C   UNL     1       5.784   1.487  -0.914  1.00  0.00     0.004 A 
ATOM      9  C   UNL     1       6.162  -0.219   0.651  1.00  0.00     0.004 A 
ATOM     10  C   UNL     1       5.050   2.213  -0.006  1.00  0.00     0.000 A 
ATOM     11  C   UNL     1       5.434   0.481   1.584  1.00  0.00     0.000 A 
ATOM     12  C   UNL     1       4.866   1.713   1.265  1.00  0.00     0.000 A 
ENDBRANCH   6   7
ENDBRANCH   1   6
TORSDOF 4
ENDMDL
MODEL 5
REMARK VINA RESULT:      -6.6      3.821      4.939
REMARK SMILES O=C(O)CCc1ccccc1
REMARK SMILES IDX 4 1 2 2 1 3 3 4 5 6 6 7 7 8 11 9 8 10 10 11 9 12
REMARK H PARENT 3 5
REMARK Flexibility Score: inf
ROOT
ATOM      1  C   UNL     1       5.468   2.776   0.047  1.00  0.00     0.127 C 
ENDROOT
BRANCH   1   2
ATOM      2  C   UNL     1       6.188   3.799   0.848  1.00  0.00     0.303 C 
ATOM      3  O   UNL     1       6.178   3.842   2.104  1.00  0.00    -0.252 OA
BRANCH   2   4
ATOM      4  O   UNL     1       6.922   4.774   0.187  1.00  0.00    -0.481 OA
ATOM      5  H   UNL     1       6.913   5.705   0.610  1.00  0.00     0.296 HD
ENDBRANCH   2   4
ENDBRANCH   1   2
BRANCH   1   6
ATOM      6  C   UNL     1       4.980   1.684   0.954  1.00  0.00     0.047 C 
BRANCH   6   7
ATOM      7  C   UNL     1       5.821   0.490   0.968  1.00  0.00    -0.047 A 
ATOM      8  C   UNL     1       5.823  -0.431   1.987  1.00  0.00     0.004 A 
ATOM      9  C   UNL     1       6.665   0.261  -0.090  1.00  0.00     0.004 A 
ATOM     10  C   UNL     1       6.621  -1.550   1.984  1.00  0.00     0.000 A 
ATOM     11  C   UNL     1       7.478  -0.848  -0.125  1.00  0.00     0.000 A 
ATOM     12  C   UNL     1       7.466  -1.773   0.918  1.00  0.00     0.000 A 
ENDBRANCH   6   7
ENDBRANCH   1   6
TORSDOF 4
ENDMDL
