@<TRIPOS>MOLECULE
/home/cewinharhar/GITHUB/reincatalyze/data/processed/docking_pred/2023-Apr-25-2140_maxeplen10_maxtrainstep200_exh16_gamma099_lrac3e-4_lrcr1e-3/a450f47ca4f24610d4ad642e19216dd37a68a7e2_ligand_2.pdbqt
 12 12 0 0 0
SMALL
GASTEIGER

@<TRIPOS>ATOM
      1  C          5.4680    2.7760    0.0470 C.3     1  UNL1        0.1270
      2  C          6.1880    3.7990    0.8480 C.2     1  UNL1        0.3030
      3  O          6.1780    3.8420    2.1040 O.2     1  UNL1       -0.2520
      4  O          6.9220    4.7740    0.1870 O.3     1  UNL1       -0.4810
      5  H          6.9130    5.7050    0.6100 H       1  UNL1        0.2960
      6  C          4.9800    1.6840    0.9540 C.3     1  UNL1        0.0470
      7  C          5.8210    0.4900    0.9680 C.2     1  UNL1       -0.0470
      8  C          5.8230   -0.4310    1.9870 C.2     1  UNL1        0.0040
      9  C          6.6650    0.2610   -0.0900 C.2     1  UNL1        0.0040
     10  C          6.6210   -1.5500    1.9840 C.2     1  UNL1        0.0000
     11  C          7.4780   -0.8480   -0.1250 C.2     1  UNL1        0.0000
     12  C          7.4660   -1.7730    0.9180 C.2     1  UNL1        0.0000
@<TRIPOS>BOND
     1    11     9    1
     2    11    12    2
     3     9     7    2
     4     1     2    1
     5     1     6    1
     6     4     5    1
     7     4     2    1
     8     2     3    2
     9    12    10    1
    10     6     7    1
    11     7     8    1
    12    10     8    2
