@<TRIPOS>MOLECULE
/home/cewinharhar/GITHUB/reincatalyze/data/processed/docking_pred/2023-Apr-25-2140_maxeplen10_maxtrainstep200_exh16_gamma099_lrac3e-4_lrcr1e-3/a450f47ca4f24610d4ad642e19216dd37a68a7e2_ligand_2.pdbqt
 12 12 0 0 0
SMALL
GASTEIGER

@<TRIPOS>ATOM
      1  C          8.2680    0.2340   -2.2050 C.3     1  UNL1        0.1270
      2  C          9.3870    0.3560   -1.2360 C.2     1  UNL1        0.3030
      3  O          9.5080   -0.3620   -0.2100 O.2     1  UNL1       -0.2520
      4  O         10.3670    1.3110   -1.4590 O.3     1  UNL1       -0.4810
      5  H         10.2170    2.2200   -1.0140 H       1  UNL1        0.2960
      6  C          7.1340   -0.5140   -1.5680 C.3     1  UNL1        0.0470
      7  C          6.3510    0.2720   -0.6170 C.2     1  UNL1       -0.0470
      8  C          5.7840    1.4870   -0.9140 C.2     1  UNL1        0.0040
      9  C          6.1620   -0.2190    0.6510 C.2     1  UNL1        0.0040
     10  C          5.0500    2.2130   -0.0060 C.2     1  UNL1        0.0000
     11  C          5.4340    0.4810    1.5840 C.2     1  UNL1        0.0000
     12  C          4.8660    1.7130    1.2650 C.2     1  UNL1        0.0000
@<TRIPOS>BOND
     1     1     6    1
     2     1     2    1
     3     6     7    1
     4     4     2    1
     5     4     5    1
     6     2     3    2
     7     8     7    2
     8     8    10    1
     9     7     9    1
    10    10    12    2
    11     9    11    2
    12    12    11    1
