@<TRIPOS>MOLECULE
/home/cewinharhar/GITHUB/reincatalyze/data/processed/docking_pred/2023-Apr-25-2140_maxeplen10_maxtrainstep200_exh16_gamma099_lrac3e-4_lrcr1e-3/a5b16c92fd7591d551db5a31bdb9c28d24e6a5b8_ligand_2.pdbqt
 12 12 0 0 0
SMALL
GASTEIGER

@<TRIPOS>ATOM
      1  C          5.0040    1.7680    0.7340 C.3     1  UNL1        0.1270
      2  C          4.5830    1.0220    1.9480 C.2     1  UNL1        0.3030
      3  O          5.2830    0.1400    2.5080 O.2     1  UNL1       -0.2520
      4  O          3.3470    1.3020    2.5120 O.3     1  UNL1       -0.4810
      5  H          2.9190    2.1890    2.2370 H       1  UNL1        0.2960
      6  C          6.5000    1.8860    0.7150 C.3     1  UNL1        0.0470
      7  C          7.1520    1.1150   -0.3420 C.2     1  UNL1       -0.0470
      8  C          8.4950    1.1840   -0.6200 C.2     1  UNL1        0.0040
      9  C          6.3920    0.2690   -1.1100 C.2     1  UNL1        0.0040
     10  C          9.0930    0.4520   -1.6180 C.2     1  UNL1        0.0000
     11  C          6.9570   -0.4780   -2.1180 C.2     1  UNL1        0.0000
     12  C          8.3230   -0.3950   -2.3850 C.2     1  UNL1        0.0000
@<TRIPOS>BOND
     1    12    11    2
     2    12    10    1
     3    11     9    1
     4    10     8    2
     5     9     7    2
     6     8     7    1
     7     7     6    1
     8     6     1    1
     9     1     2    1
    10     2     3    2
    11     2     4    1
    12     5     4    1
