MODEL 1
REMARK VINA RESULT:      -7.4      0.000      0.000
REMARK SMILES O=C(O)CCc1ccccc1
REMARK SMILES IDX 4 1 2 2 1 3 3 4 5 6 6 7 7 8 11 9 8 10 10 11 9 12
REMARK H PARENT 3 5
REMARK Flexibility Score: inf
ROOT
ATOM      1  C   UNL     1       8.493  -0.562  -2.244  1.00  0.00     0.127 C 
ENDROOT
BRANCH   1   2
ATOM      2  C   UNL     1       8.539  -1.880  -2.929  1.00  0.00     0.303 C 
ATOM      3  O   UNL     1       9.590  -2.553  -3.084  1.00  0.00    -0.252 OA
BRANCH   2   4
ATOM      4  O   UNL     1       7.364  -2.416  -3.433  1.00  0.00    -0.481 OA
ATOM      5  H   UNL     1       7.388  -3.412  -3.665  1.00  0.00     0.296 HD
ENDBRANCH   2   4
ENDBRANCH   1   2
BRANCH   1   6
ATOM      6  C   UNL     1       7.071  -0.088  -2.170  1.00  0.00     0.047 C 
BRANCH   6   7
ATOM      7  C   UNL     1       6.535   0.007  -0.815  1.00  0.00    -0.047 A 
ATOM      8  C   UNL     1       6.632  -0.996   0.118  1.00  0.00     0.004 A 
ATOM      9  C   UNL     1       5.893   1.160  -0.435  1.00  0.00     0.004 A 
ATOM     10  C   UNL     1       6.122  -0.890   1.390  1.00  0.00     0.000 A 
ATOM     11  C   UNL     1       5.370   1.300   0.829  1.00  0.00     0.000 A 
ATOM     12  C   UNL     1       5.479   0.270   1.763  1.00  0.00     0.000 A 
ENDBRANCH   6   7
ENDBRANCH   1   6
TORSDOF 4
ENDMDL
MODEL 2
REMARK VINA RESULT:      -7.4      0.134      1.432
REMARK SMILES O=C(O)CCc1ccccc1
REMARK SMILES IDX 4 1 2 2 1 3 3 4 5 6 6 7 7 8 11 9 8 10 10 11 9 12
REMARK H PARENT 3 5
REMARK Flexibility Score: inf
ROOT
ATOM      1  C   UNL     1       8.444  -0.560  -2.209  1.00  0.00     0.127 C 
ENDROOT
BRANCH   1   2
ATOM      2  C   UNL     1       8.523  -1.867  -2.912  1.00  0.00     0.303 C 
ATOM      3  O   UNL     1       9.592  -2.505  -3.087  1.00  0.00    -0.252 OA
BRANCH   2   4
ATOM      4  O   UNL     1       7.359  -2.433  -3.409  1.00  0.00    -0.481 OA
ATOM      5  H   UNL     1       6.710  -2.808  -2.714  1.00  0.00     0.296 HD
ENDBRANCH   2   4
ENDBRANCH   1   2
BRANCH   1   6
ATOM      6  C   UNL     1       7.021  -0.084  -2.199  1.00  0.00     0.047 C 
BRANCH   6   7
ATOM      7  C   UNL     1       6.467   0.134  -0.865  1.00  0.00    -0.047 A 
ATOM      8  C   UNL     1       5.832   1.289  -0.480  1.00  0.00     0.004 A 
ATOM      9  C   UNL     1       6.580  -0.865   0.070  1.00  0.00     0.004 A 
ATOM     10  C   UNL     1       5.316   1.477   0.780  1.00  0.00     0.000 A 
ATOM     11  C   UNL     1       6.076  -0.710   1.341  1.00  0.00     0.000 A 
ATOM     12  C   UNL     1       5.434   0.470   1.714  1.00  0.00     0.000 A 
ENDBRANCH   6   7
ENDBRANCH   1   6
TORSDOF 4
ENDMDL
MODEL 3
REMARK VINA RESULT:      -7.0      0.677      1.032
REMARK SMILES O=C(O)CCc1ccccc1
REMARK SMILES IDX 4 1 2 2 1 3 3 4 5 6 6 7 7 8 11 9 8 10 10 11 9 12
REMARK H PARENT 3 5
REMARK Flexibility Score: inf
ROOT
ATOM      1  C   UNL     1       8.187  -0.695  -2.181  1.00  0.00     0.127 C 
ENDROOT
BRANCH   1   2
ATOM      2  C   UNL     1       8.359  -1.956  -2.949  1.00  0.00     0.303 C 
ATOM      3  O   UNL     1       9.458  -2.554  -3.078  1.00  0.00    -0.252 OA
BRANCH   2   4
ATOM      4  O   UNL     1       7.254  -2.522  -3.566  1.00  0.00    -0.481 OA
ATOM      5  H   UNL     1       7.045  -2.186  -4.509  1.00  0.00     0.296 HD
ENDBRANCH   2   4
ENDBRANCH   1   2
BRANCH   1   6
ATOM      6  C   UNL     1       7.971  -1.019  -0.732  1.00  0.00     0.047 C 
BRANCH   6   7
ATOM      7  C   UNL     1       6.947  -0.208  -0.078  1.00  0.00    -0.047 A 
ATOM      8  C   UNL     1       6.451  -0.468   1.176  1.00  0.00     0.004 A 
ATOM      9  C   UNL     1       6.440   0.881  -0.743  1.00  0.00     0.004 A 
ATOM     10  C   UNL     1       5.487   0.306   1.777  1.00  0.00     0.000 A 
ATOM     11  C   UNL     1       5.474   1.677  -0.172  1.00  0.00     0.000 A 
ATOM     12  C   UNL     1       4.983   1.398   1.102  1.00  0.00     0.000 A 
ENDBRANCH   6   7
ENDBRANCH   1   6
TORSDOF 4
ENDMDL
MODEL 4
REMARK VINA RESULT:      -6.9      1.052      1.961
REMARK SMILES O=C(O)CCc1ccccc1
REMARK SMILES IDX 4 1 2 2 1 3 3 4 5 6 6 7 7 8 11 9 8 10 10 11 9 12
REMARK H PARENT 3 5
REMARK Flexibility Score: inf
ROOT
ATOM      1  C   UNL     1       7.297  -1.466  -1.998  1.00  0.00     0.127 C 
ENDROOT
BRANCH   1   2
ATOM      2  C   UNL     1       8.710  -1.365  -2.450  1.00  0.00     0.303 C 
ATOM      3  O   UNL     1       9.502  -0.464  -2.076  1.00  0.00    -0.252 OA
BRANCH   2   4
ATOM      4  O   UNL     1       9.200  -2.312  -3.336  1.00  0.00    -0.481 OA
ATOM      5  H   UNL     1       9.520  -3.190  -2.922  1.00  0.00     0.296 HD
ENDBRANCH   2   4
ENDBRANCH   1   2
BRANCH   1   6
ATOM      6  C   UNL     1       7.241  -1.343  -0.504  1.00  0.00     0.047 C 
BRANCH   6   7
ATOM      7  C   UNL     1       6.434  -0.225  -0.020  1.00  0.00    -0.047 A 
ATOM      8  C   UNL     1       6.150   0.892  -0.766  1.00  0.00     0.004 A 
ATOM      9  C   UNL     1       5.924  -0.279   1.254  1.00  0.00     0.004 A 
ATOM     10  C   UNL     1       5.389   1.935  -0.295  1.00  0.00     0.000 A 
ATOM     11  C   UNL     1       5.159   0.747   1.758  1.00  0.00     0.000 A 
ATOM     12  C   UNL     1       4.880   1.873   0.985  1.00  0.00     0.000 A 
ENDBRANCH   6   7
ENDBRANCH   1   6
TORSDOF 4
ENDMDL
MODEL 5
REMARK VINA RESULT:      -6.8      3.357      5.055
REMARK SMILES O=C(O)CCc1ccccc1
REMARK SMILES IDX 4 1 2 2 1 3 3 4 5 6 6 7 7 8 11 9 8 10 10 11 9 12
REMARK H PARENT 3 5
REMARK Flexibility Score: inf
ROOT
ATOM      1  C   UNL     1       5.004   1.768   0.734  1.00  0.00     0.127 C 
ENDROOT
BRANCH   1   2
ATOM      2  C   UNL     1       4.583   1.022   1.948  1.00  0.00     0.303 C 
ATOM      3  O   UNL     1       5.283   0.140   2.508  1.00  0.00    -0.252 OA
BRANCH   2   4
ATOM      4  O   UNL     1       3.347   1.302   2.512  1.00  0.00    -0.481 OA
ATOM      5  H   UNL     1       2.919   2.189   2.237  1.00  0.00     0.296 HD
ENDBRANCH   2   4
ENDBRANCH   1   2
BRANCH   1   6
ATOM      6  C   UNL     1       6.500   1.886   0.715  1.00  0.00     0.047 C 
BRANCH   6   7
ATOM      7  C   UNL     1       7.152   1.115  -0.342  1.00  0.00    -0.047 A 
ATOM      8  C   UNL     1       8.495   1.184  -0.620  1.00  0.00     0.004 A 
ATOM      9  C   UNL     1       6.392   0.269  -1.110  1.00  0.00     0.004 A 
ATOM     10  C   UNL     1       9.093   0.452  -1.618  1.00  0.00     0.000 A 
ATOM     11  C   UNL     1       6.957  -0.478  -2.118  1.00  0.00     0.000 A 
ATOM     12  C   UNL     1       8.323  -0.395  -2.385  1.00  0.00     0.000 A 
ENDBRANCH   6   7
ENDBRANCH   1   6
TORSDOF 4
ENDMDL
