@<TRIPOS>MOLECULE
/home/cewinharhar/GITHUB/reincatalyze/data/processed/docking_pred/2023-Apr-25-2140_maxeplen10_maxtrainstep200_exh16_gamma099_lrac3e-4_lrcr1e-3/a5b16c92fd7591d551db5a31bdb9c28d24e6a5b8_ligand_2.pdbqt
 12 12 0 0 0
SMALL
GASTEIGER

@<TRIPOS>ATOM
      1  C          7.2970   -1.4660   -1.9980 C.3     1  UNL1        0.1270
      2  C          8.7100   -1.3650   -2.4500 C.2     1  UNL1        0.3030
      3  O          9.5020   -0.4640   -2.0760 O.2     1  UNL1       -0.2520
      4  O          9.2000   -2.3120   -3.3360 O.3     1  UNL1       -0.4810
      5  H          9.5200   -3.1900   -2.9220 H       1  UNL1        0.2960
      6  C          7.2410   -1.3430   -0.5040 C.3     1  UNL1        0.0470
      7  C          6.4340   -0.2250   -0.0200 C.2     1  UNL1       -0.0470
      8  C          6.1500    0.8920   -0.7660 C.2     1  UNL1        0.0040
      9  C          5.9240   -0.2790    1.2540 C.2     1  UNL1        0.0040
     10  C          5.3890    1.9350   -0.2950 C.2     1  UNL1        0.0000
     11  C          5.1590    0.7470    1.7580 C.2     1  UNL1        0.0000
     12  C          4.8800    1.8730    0.9850 C.2     1  UNL1        0.0000
@<TRIPOS>BOND
     1     4     5    1
     2     4     2    1
     3     2     3    2
     4     2     1    1
     5     1     6    1
     6     8    10    1
     7     8     7    2
     8     6     7    1
     9    10    12    2
    10     7     9    1
    11    12    11    1
    12     9    11    2
