@<TRIPOS>MOLECULE
/home/cewinharhar/GITHUB/reincatalyze/data/processed/docking_pred/2023-Apr-25-2140_maxeplen10_maxtrainstep200_exh16_gamma099_lrac3e-4_lrcr1e-3/a5b16c92fd7591d551db5a31bdb9c28d24e6a5b8_ligand_2.pdbqt
 12 12 0 0 0
SMALL
GASTEIGER

@<TRIPOS>ATOM
      1  C          8.1870   -0.6950   -2.1810 C.3     1  UNL1        0.1270
      2  C          8.3590   -1.9560   -2.9490 C.2     1  UNL1        0.3030
      3  O          9.4580   -2.5540   -3.0780 O.2     1  UNL1       -0.2520
      4  O          7.2540   -2.5220   -3.5660 O.3     1  UNL1       -0.4810
      5  H          7.0450   -2.1860   -4.5090 H       1  UNL1        0.2960
      6  C          7.9710   -1.0190   -0.7320 C.3     1  UNL1        0.0470
      7  C          6.9470   -0.2080   -0.0780 C.2     1  UNL1       -0.0470
      8  C          6.4510   -0.4680    1.1760 C.2     1  UNL1        0.0040
      9  C          6.4400    0.8810   -0.7430 C.2     1  UNL1        0.0040
     10  C          5.4870    0.3060    1.7770 C.2     1  UNL1        0.0000
     11  C          5.4740    1.6770   -0.1720 C.2     1  UNL1        0.0000
     12  C          4.9830    1.3980    1.1020 C.2     1  UNL1        0.0000
@<TRIPOS>BOND
     1     5     4    1
     2     4     2    1
     3     3     2    2
     4     2     1    1
     5     1     6    1
     6     9    11    1
     7     9     7    2
     8     6     7    1
     9    11    12    2
    10     7     8    1
    11    12    10    1
    12     8    10    2
