@<TRIPOS>MOLECULE
/home/cewinharhar/GITHUB/reincatalyze/data/processed/docking_pred/2023-Apr-25-2140_maxeplen10_maxtrainstep200_exh16_gamma099_lrac3e-4_lrcr1e-3/a5b16c92fd7591d551db5a31bdb9c28d24e6a5b8_ligand_2.pdbqt
 12 12 0 0 0
SMALL
GASTEIGER

@<TRIPOS>ATOM
      1  C          8.4930   -0.5620   -2.2440 C.3     1  UNL1        0.1270
      2  C          8.5390   -1.8800   -2.9290 C.2     1  UNL1        0.3030
      3  O          9.5900   -2.5530   -3.0840 O.2     1  UNL1       -0.2520
      4  O          7.3640   -2.4160   -3.4330 O.3     1  UNL1       -0.4810
      5  H          7.3880   -3.4120   -3.6650 H       1  UNL1        0.2960
      6  C          7.0710   -0.0880   -2.1700 C.3     1  UNL1        0.0470
      7  C          6.5350    0.0070   -0.8150 C.2     1  UNL1       -0.0470
      8  C          6.6320   -0.9960    0.1180 C.2     1  UNL1        0.0040
      9  C          5.8930    1.1600   -0.4350 C.2     1  UNL1        0.0040
     10  C          6.1220   -0.8900    1.3900 C.2     1  UNL1        0.0000
     11  C          5.3700    1.3000    0.8290 C.2     1  UNL1        0.0000
     12  C          5.4790    0.2700    1.7630 C.2     1  UNL1        0.0000
@<TRIPOS>BOND
     1     5     4    1
     2     4     2    1
     3     3     2    2
     4     2     1    1
     5     1     6    1
     6     6     7    1
     7     7     9    2
     8     7     8    1
     9     9    11    1
    10     8    10    2
    11    11    12    2
    12    10    12    1
