@<TRIPOS>MOLECULE
/home/cewinharhar/GITHUB/reincatalyze/data/processed/docking_pred/2023-Apr-25-2140_maxeplen10_maxtrainstep200_exh16_gamma099_lrac3e-4_lrcr1e-3/a614218f6e6a1b7d791f470f20b1a009abdeaae3_ligand_2.pdbqt
 12 12 0 0 0
SMALL
GASTEIGER

@<TRIPOS>ATOM
      1  C          7.2320   -1.1780   -2.0060 C.3     1  UNL1        0.1270
      2  C          8.6730   -1.2080   -2.3690 C.2     1  UNL1        0.3030
      3  O          9.1990   -2.1040   -3.0760 O.2     1  UNL1       -0.2520
      4  O          9.5010   -0.1960   -1.9080 O.3     1  UNL1       -0.4810
      5  H          9.5050   -0.0450   -0.8970 H       1  UNL1        0.2960
      6  C          6.7890    0.2460   -1.8390 C.3     1  UNL1        0.0470
      7  C          6.1810    0.5410   -0.5440 C.2     1  UNL1       -0.0470
      8  C          6.2410   -0.3020    0.5380 C.2     1  UNL1        0.0040
      9  C          5.5070    1.7260   -0.3830 C.2     1  UNL1        0.0040
     10  C          5.6630   -0.0090    1.7510 C.2     1  UNL1        0.0000
     11  C          4.9160    2.0510    0.8160 C.2     1  UNL1        0.0000
     12  C          4.9880    1.1830    1.9040 C.2     1  UNL1        0.0000
@<TRIPOS>BOND
     1     3     2    2
     2     2     1    1
     3     2     4    1
     4     1     6    1
     5     4     5    1
     6     6     7    1
     7     7     9    2
     8     7     8    1
     9     9    11    1
    10     8    10    2
    11    11    12    2
    12    10    12    1
