@<TRIPOS>MOLECULE
/home/cewinharhar/GITHUB/reincatalyze/data/processed/docking_pred/2023-Apr-25-2140_maxeplen10_maxtrainstep200_exh16_gamma099_lrac3e-4_lrcr1e-3/a614218f6e6a1b7d791f470f20b1a009abdeaae3_ligand_2.pdbqt
 12 12 0 0 0
SMALL
GASTEIGER

@<TRIPOS>ATOM
      1  C          8.2130   -1.1200    0.2480 C.3     1  UNL1        0.1270
      2  C          8.0390   -2.4900    0.7960 C.2     1  UNL1        0.3030
      3  O          8.8910   -3.4070    0.6750 O.2     1  UNL1       -0.2520
      4  O          6.8740   -2.7940    1.4850 O.3     1  UNL1       -0.4810
      5  H          6.0030   -2.4770    1.0540 H       1  UNL1        0.2960
      6  C          7.0200   -0.7610   -0.5880 C.3     1  UNL1        0.0470
      7  C          6.2000    0.3170   -0.0400 C.2     1  UNL1       -0.0470
      8  C          5.7450    0.3480    1.2550 C.2     1  UNL1        0.0040
      9  C          5.8560    1.3670   -0.8550 C.2     1  UNL1        0.0040
     10  C          4.9740    1.3700    1.7540 C.2     1  UNL1        0.0000
     11  C          5.0850    2.4060   -0.3880 C.2     1  UNL1        0.0000
     12  C          4.6320    2.4210    0.9300 C.2     1  UNL1        0.0000
@<TRIPOS>BOND
     1     9    11    1
     2     9     7    2
     3     6     7    1
     4     6     1    1
     5    11    12    2
     6     7     8    1
     7     1     2    1
     8     3     2    2
     9     2     4    1
    10    12    10    1
    11     5     4    1
    12     8    10    2
