@<TRIPOS>MOLECULE
/home/cewinharhar/GITHUB/reincatalyze/data/processed/docking_pred/2023-Apr-25-2140_maxeplen10_maxtrainstep200_exh16_gamma099_lrac3e-4_lrcr1e-3/a614218f6e6a1b7d791f470f20b1a009abdeaae3_ligand_2.pdbqt
 12 12 0 0 0
SMALL
GASTEIGER

@<TRIPOS>ATOM
      1  C          8.1040    0.2820   -2.0080 C.3     1  UNL1        0.1270
      2  C          9.3000    0.3430   -1.1290 C.2     1  UNL1        0.3030
      3  O          9.4800   -0.4080   -0.1370 O.2     1  UNL1       -0.2520
      4  O         10.2880    1.2770   -1.4050 O.3     1  UNL1       -0.4810
      5  H         11.2490    0.9830   -1.2130 H       1  UNL1        0.2960
      6  C          7.0380   -0.5390   -1.3450 C.3     1  UNL1        0.0470
      7  C          6.2860    0.1680   -0.3110 C.2     1  UNL1       -0.0470
      8  C          5.7260    1.4090   -0.4880 C.2     1  UNL1        0.0040
      9  C          6.1220   -0.4290    0.9140 C.2     1  UNL1        0.0040
     10  C          5.0220    2.0610    0.4960 C.2     1  UNL1        0.0000
     11  C          5.4240    0.1950    1.9220 C.2     1  UNL1        0.0000
     12  C          4.8620    1.4550    1.7240 C.2     1  UNL1        0.0000
@<TRIPOS>BOND
     1     1     6    1
     2     1     2    1
     3     4     5    1
     4     4     2    1
     5     6     7    1
     6     2     3    2
     7     8     7    2
     8     8    10    1
     9     7     9    1
    10    10    12    2
    11     9    11    2
    12    12    11    1
