@<TRIPOS>MOLECULE
/home/cewinharhar/GITHUB/reincatalyze/data/processed/docking_pred/2023-Apr-25-2140_maxeplen10_maxtrainstep200_exh16_gamma099_lrac3e-4_lrcr1e-3/a614218f6e6a1b7d791f470f20b1a009abdeaae3_ligand_2.pdbqt
 12 12 0 0 0
SMALL
GASTEIGER

@<TRIPOS>ATOM
      1  C          7.2500   -1.1700   -1.9170 C.3     1  UNL1        0.1270
      2  C          8.6800   -1.1950   -2.3190 C.2     1  UNL1        0.3030
      3  O          9.1890   -2.0860   -3.0450 O.2     1  UNL1       -0.2520
      4  O          9.5180   -0.1820   -1.8770 O.3     1  UNL1       -0.4810
      5  H          9.4600    0.7020   -2.3870 H       1  UNL1        0.2960
      6  C          6.7800    0.2520   -1.8280 C.3     1  UNL1        0.0470
      7  C          6.1510    0.6020   -0.5570 C.2     1  UNL1       -0.0470
      8  C          5.4650    1.7720   -0.3400 C.2     1  UNL1        0.0040
      9  C          6.2430   -0.2780    0.4930 C.2     1  UNL1        0.0040
     10  C          4.8790    2.0860    0.8630 C.2     1  UNL1        0.0000
     11  C          5.6700    0.0040    1.7110 C.2     1  UNL1        0.0000
     12  C          4.9760    1.1960    1.9120 C.2     1  UNL1        0.0000
@<TRIPOS>BOND
     1     3     2    2
     2     5     4    1
     3     2     1    1
     4     2     4    1
     5     1     6    1
     6     6     7    1
     7     7     8    2
     8     7     9    1
     9     8    10    1
    10     9    11    2
    11    10    12    2
    12    11    12    1
