MODEL 1
REMARK VINA RESULT:      -6.9      0.000      0.000
REMARK SMILES O=C(O)CCc1ccccc1
REMARK SMILES IDX 4 1 2 2 1 3 3 4 5 6 6 7 7 8 11 9 8 10 10 11 9 12
REMARK H PARENT 3 5
REMARK Flexibility Score: inf
ROOT
ATOM      1  C   UNL     1       7.232  -1.178  -2.006  1.00  0.00     0.127 C 
ENDROOT
BRANCH   1   2
ATOM      2  C   UNL     1       8.673  -1.208  -2.369  1.00  0.00     0.303 C 
ATOM      3  O   UNL     1       9.199  -2.104  -3.076  1.00  0.00    -0.252 OA
BRANCH   2   4
ATOM      4  O   UNL     1       9.501  -0.196  -1.908  1.00  0.00    -0.481 OA
ATOM      5  H   UNL     1       9.505  -0.045  -0.897  1.00  0.00     0.296 HD
ENDBRANCH   2   4
ENDBRANCH   1   2
BRANCH   1   6
ATOM      6  C   UNL     1       6.789   0.246  -1.839  1.00  0.00     0.047 C 
BRANCH   6   7
ATOM      7  C   UNL     1       6.181   0.541  -0.544  1.00  0.00    -0.047 A 
ATOM      8  C   UNL     1       6.241  -0.302   0.538  1.00  0.00     0.004 A 
ATOM      9  C   UNL     1       5.507   1.726  -0.383  1.00  0.00     0.004 A 
ATOM     10  C   UNL     1       5.663  -0.009   1.751  1.00  0.00     0.000 A 
ATOM     11  C   UNL     1       4.916   2.051   0.816  1.00  0.00     0.000 A 
ATOM     12  C   UNL     1       4.988   1.183   1.904  1.00  0.00     0.000 A 
ENDBRANCH   6   7
ENDBRANCH   1   6
TORSDOF 4
ENDMDL
MODEL 2
REMARK VINA RESULT:      -6.9      0.056      1.426
REMARK SMILES O=C(O)CCc1ccccc1
REMARK SMILES IDX 4 1 2 2 1 3 3 4 5 6 6 7 7 8 11 9 8 10 10 11 9 12
REMARK H PARENT 3 5
REMARK Flexibility Score: inf
ROOT
ATOM      1  C   UNL     1       7.250  -1.170  -1.917  1.00  0.00     0.127 C 
ENDROOT
BRANCH   1   2
ATOM      2  C   UNL     1       8.680  -1.195  -2.319  1.00  0.00     0.303 C 
ATOM      3  O   UNL     1       9.189  -2.086  -3.045  1.00  0.00    -0.252 OA
BRANCH   2   4
ATOM      4  O   UNL     1       9.518  -0.182  -1.877  1.00  0.00    -0.481 OA
ATOM      5  H   UNL     1       9.460   0.702  -2.387  1.00  0.00     0.296 HD
ENDBRANCH   2   4
ENDBRANCH   1   2
BRANCH   1   6
ATOM      6  C   UNL     1       6.780   0.252  -1.828  1.00  0.00     0.047 C 
BRANCH   6   7
ATOM      7  C   UNL     1       6.151   0.602  -0.557  1.00  0.00    -0.047 A 
ATOM      8  C   UNL     1       5.465   1.772  -0.340  1.00  0.00     0.004 A 
ATOM      9  C   UNL     1       6.243  -0.278   0.493  1.00  0.00     0.004 A 
ATOM     10  C   UNL     1       4.879   2.086   0.863  1.00  0.00     0.000 A 
ATOM     11  C   UNL     1       5.670   0.004   1.711  1.00  0.00     0.000 A 
ATOM     12  C   UNL     1       4.976   1.196   1.912  1.00  0.00     0.000 A 
ENDBRANCH   6   7
ENDBRANCH   1   6
TORSDOF 4
ENDMDL
MODEL 3
REMARK VINA RESULT:      -6.9      3.157      4.955
REMARK SMILES O=C(O)CCc1ccccc1
REMARK SMILES IDX 4 1 2 2 1 3 3 4 5 6 6 7 7 8 11 9 8 10 10 11 9 12
REMARK H PARENT 3 5
REMARK Flexibility Score: inf
ROOT
ATOM      1  C   UNL     1       5.065   1.811   0.708  1.00  0.00     0.127 C 
ENDROOT
BRANCH   1   2
ATOM      2  C   UNL     1       4.668   1.122   1.963  1.00  0.00     0.303 C 
ATOM      3  O   UNL     1       5.315   0.175   2.478  1.00  0.00    -0.252 OA
BRANCH   2   4
ATOM      4  O   UNL     1       3.519   1.535   2.620  1.00  0.00    -0.481 OA
ATOM      5  H   UNL     1       3.608   2.377   3.194  1.00  0.00     0.296 HD
ENDBRANCH   2   4
ENDBRANCH   1   2
BRANCH   1   6
ATOM      6  C   UNL     1       6.562   1.883   0.629  1.00  0.00     0.047 C 
BRANCH   6   7
ATOM      7  C   UNL     1       7.154   1.043  -0.409  1.00  0.00    -0.047 A 
ATOM      8  C   UNL     1       6.450   0.110  -1.130  1.00  0.00     0.004 A 
ATOM      9  C   UNL     1       8.490   1.182  -0.692  1.00  0.00     0.004 A 
ATOM     10  C   UNL     1       7.023  -0.672  -2.104  1.00  0.00     0.000 A 
ATOM     11  C   UNL     1       9.096   0.414  -1.660  1.00  0.00     0.000 A 
ATOM     12  C   UNL     1       8.365  -0.527  -2.382  1.00  0.00     0.000 A 
ENDBRANCH   6   7
ENDBRANCH   1   6
TORSDOF 4
ENDMDL
MODEL 4
REMARK VINA RESULT:      -6.8      1.349      2.029
REMARK SMILES O=C(O)CCc1ccccc1
REMARK SMILES IDX 4 1 2 2 1 3 3 4 5 6 6 7 7 8 11 9 8 10 10 11 9 12
REMARK H PARENT 3 5
REMARK Flexibility Score: inf
ROOT
ATOM      1  C   UNL     1       8.104   0.282  -2.008  1.00  0.00     0.127 C 
ENDROOT
BRANCH   1   2
ATOM      2  C   UNL     1       9.300   0.343  -1.129  1.00  0.00     0.303 C 
ATOM      3  O   UNL     1       9.480  -0.408  -0.137  1.00  0.00    -0.252 OA
BRANCH   2   4
ATOM      4  O   UNL     1      10.288   1.277  -1.405  1.00  0.00    -0.481 OA
ATOM      5  H   UNL     1      11.249   0.983  -1.213  1.00  0.00     0.296 HD
ENDBRANCH   2   4
ENDBRANCH   1   2
BRANCH   1   6
ATOM      6  C   UNL     1       7.038  -0.539  -1.345  1.00  0.00     0.047 C 
BRANCH   6   7
ATOM      7  C   UNL     1       6.286   0.168  -0.311  1.00  0.00    -0.047 A 
ATOM      8  C   UNL     1       5.726   1.409  -0.488  1.00  0.00     0.004 A 
ATOM      9  C   UNL     1       6.122  -0.429   0.914  1.00  0.00     0.004 A 
ATOM     10  C   UNL     1       5.022   2.061   0.496  1.00  0.00     0.000 A 
ATOM     11  C   UNL     1       5.424   0.195   1.922  1.00  0.00     0.000 A 
ATOM     12  C   UNL     1       4.862   1.455   1.724  1.00  0.00     0.000 A 
ENDBRANCH   6   7
ENDBRANCH   1   6
TORSDOF 4
ENDMDL
MODEL 5
REMARK VINA RESULT:      -6.6      2.295      2.528
REMARK SMILES O=C(O)CCc1ccccc1
REMARK SMILES IDX 4 1 2 2 1 3 3 4 5 6 6 7 7 8 11 9 8 10 10 11 9 12
REMARK H PARENT 3 5
REMARK Flexibility Score: inf
ROOT
ATOM      1  C   UNL     1       8.213  -1.120   0.248  1.00  0.00     0.127 C 
ENDROOT
BRANCH   1   2
ATOM      2  C   UNL     1       8.039  -2.490   0.796  1.00  0.00     0.303 C 
ATOM      3  O   UNL     1       8.891  -3.407   0.675  1.00  0.00    -0.252 OA
BRANCH   2   4
ATOM      4  O   UNL     1       6.874  -2.794   1.485  1.00  0.00    -0.481 OA
ATOM      5  H   UNL     1       6.003  -2.477   1.054  1.00  0.00     0.296 HD
ENDBRANCH   2   4
ENDBRANCH   1   2
BRANCH   1   6
ATOM      6  C   UNL     1       7.020  -0.761  -0.588  1.00  0.00     0.047 C 
BRANCH   6   7
ATOM      7  C   UNL     1       6.200   0.317  -0.040  1.00  0.00    -0.047 A 
ATOM      8  C   UNL     1       5.745   0.348   1.255  1.00  0.00     0.004 A 
ATOM      9  C   UNL     1       5.856   1.367  -0.855  1.00  0.00     0.004 A 
ATOM     10  C   UNL     1       4.974   1.370   1.754  1.00  0.00     0.000 A 
ATOM     11  C   UNL     1       5.085   2.406  -0.388  1.00  0.00     0.000 A 
ATOM     12  C   UNL     1       4.632   2.421   0.930  1.00  0.00     0.000 A 
ENDBRANCH   6   7
ENDBRANCH   1   6
TORSDOF 4
ENDMDL
