@<TRIPOS>MOLECULE
/home/cewinharhar/GITHUB/reincatalyze/data/processed/docking_pred/2023-Apr-25-2140_maxeplen10_maxtrainstep200_exh16_gamma099_lrac3e-4_lrcr1e-3/a614218f6e6a1b7d791f470f20b1a009abdeaae3_ligand_2.pdbqt
 12 12 0 0 0
SMALL
GASTEIGER

@<TRIPOS>ATOM
      1  C          5.0650    1.8110    0.7080 C.3     1  UNL1        0.1270
      2  C          4.6680    1.1220    1.9630 C.2     1  UNL1        0.3030
      3  O          5.3150    0.1750    2.4780 O.2     1  UNL1       -0.2520
      4  O          3.5190    1.5350    2.6200 O.3     1  UNL1       -0.4810
      5  H          3.6080    2.3770    3.1940 H       1  UNL1        0.2960
      6  C          6.5620    1.8830    0.6290 C.3     1  UNL1        0.0470
      7  C          7.1540    1.0430   -0.4090 C.2     1  UNL1       -0.0470
      8  C          6.4500    0.1100   -1.1300 C.2     1  UNL1        0.0040
      9  C          8.4900    1.1820   -0.6920 C.2     1  UNL1        0.0040
     10  C          7.0230   -0.6720   -2.1040 C.2     1  UNL1        0.0000
     11  C          9.0960    0.4140   -1.6600 C.2     1  UNL1        0.0000
     12  C          8.3650   -0.5270   -2.3820 C.2     1  UNL1        0.0000
@<TRIPOS>BOND
     1    12    10    2
     2    12    11    1
     3    10     8    1
     4    11     9    2
     5     8     7    2
     6     9     7    1
     7     7     6    1
     8     6     1    1
     9     1     2    1
    10     2     3    2
    11     2     4    1
    12     4     5    1
