@<TRIPOS>MOLECULE
/home/cewinharhar/GITHUB/reincatalyze/data/processed/docking_pred/2023-Apr-25-2140_maxeplen10_maxtrainstep200_exh16_gamma099_lrac3e-4_lrcr1e-3/a6201df4fd59712db5137144eee8a96fed35f0a9_ligand_2.pdbqt
 12 12 0 0 0
SMALL
GASTEIGER

@<TRIPOS>ATOM
      1  C          8.4740   -0.6820   -2.0890 C.3     1  UNL1        0.1270
      2  C          8.5250   -1.9310   -2.8920 C.2     1  UNL1        0.3030
      3  O          9.5780   -2.5800   -3.1140 O.2     1  UNL1       -0.2520
      4  O          7.3490   -2.4270   -3.4360 O.3     1  UNL1       -0.4810
      5  H          6.7760   -1.7550   -3.9520 H       1  UNL1        0.2960
      6  C          7.0800   -0.1290   -2.1130 C.3     1  UNL1        0.0470
      7  C          6.4980    0.1010   -0.7930 C.2     1  UNL1       -0.0470
      8  C          5.8410    1.2540   -0.4370 C.2     1  UNL1        0.0040
      9  C          6.6070   -0.8820    0.1590 C.2     1  UNL1        0.0040
     10  C          5.3000    1.4530    0.8100 C.2     1  UNL1        0.0000
     11  C          6.0780   -0.7150    1.4180 C.2     1  UNL1        0.0000
     12  C          5.4130    0.4620    1.7610 C.2     1  UNL1        0.0000
@<TRIPOS>BOND
     1     5     4    1
     2     4     2    1
     3     3     2    2
     4     2     1    1
     5     6     1    1
     6     6     7    1
     7     7     8    2
     8     7     9    1
     9     8    10    1
    10     9    11    2
    11    10    12    2
    12    11    12    1
