@<TRIPOS>MOLECULE
/home/cewinharhar/GITHUB/reincatalyze/data/processed/docking_pred/2023-Apr-25-2140_maxeplen10_maxtrainstep200_exh16_gamma099_lrac3e-4_lrcr1e-3/a6201df4fd59712db5137144eee8a96fed35f0a9_ligand_2.pdbqt
 12 12 0 0 0
SMALL
GASTEIGER

@<TRIPOS>ATOM
      1  C          5.4570    2.8660   -0.0190 C.3     1  UNL1        0.1270
      2  C          6.2430    3.8530    0.7650 C.2     1  UNL1        0.3030
      3  O          6.9280    4.7730    0.2490 O.2     1  UNL1       -0.2520
      4  O          6.2320    3.7720    2.1490 O.3     1  UNL1       -0.4810
      5  H          7.0120    4.2250    2.6310 H       1  UNL1        0.2960
      6  C          4.9220    1.8090    0.9020 C.3     1  UNL1        0.0470
      7  C          5.7100    0.5790    0.9310 C.2     1  UNL1       -0.0470
      8  C          6.3940    0.0840   -0.1510 C.2     1  UNL1        0.0040
      9  C          5.7790   -0.1360    2.1010 C.2     1  UNL1        0.0040
     10  C          7.1310   -1.0760   -0.1060 C.2     1  UNL1        0.0000
     11  C          6.5060   -1.3010    2.1820 C.2     1  UNL1        0.0000
     12  C          7.1950   -1.7870    1.0720 C.2     1  UNL1        0.0000
@<TRIPOS>BOND
     1     8    10    1
     2     8     7    2
     3    10    12    2
     4     1     2    1
     5     1     6    1
     6     3     2    2
     7     2     4    1
     8     6     7    1
     9     7     9    1
    10    12    11    1
    11     9    11    2
    12     4     5    1
