@<TRIPOS>MOLECULE
/home/cewinharhar/GITHUB/reincatalyze/data/processed/docking_pred/2023-Apr-25-2140_maxeplen10_maxtrainstep200_exh16_gamma099_lrac3e-4_lrcr1e-3/a6201df4fd59712db5137144eee8a96fed35f0a9_ligand_2.pdbqt
 12 12 0 0 0
SMALL
GASTEIGER

@<TRIPOS>ATOM
      1  C          4.9860    1.8180    0.6980 C.3     1  UNL1        0.1270
      2  C          4.5030    1.1040    1.9080 C.2     1  UNL1        0.3030
      3  O          5.1450    0.1900    2.4860 O.2     1  UNL1       -0.2520
      4  O          3.2740    1.4530    2.4470 O.3     1  UNL1       -0.4810
      5  H          3.1410    1.2380    3.4370 H       1  UNL1        0.2960
      6  C          6.4850    1.8850    0.7220 C.3     1  UNL1        0.0470
      7  C          7.1410    1.1170   -0.3330 C.2     1  UNL1       -0.0470
      8  C          8.4780    1.2170   -0.6330 C.2     1  UNL1        0.0040
      9  C          6.3920    0.2410   -1.0790 C.2     1  UNL1        0.0040
     10  C          9.0790    0.4860   -1.6300 C.2     1  UNL1        0.0000
     11  C          6.9610   -0.5060   -2.0850 C.2     1  UNL1        0.0000
     12  C          8.3200   -0.3910   -2.3740 C.2     1  UNL1        0.0000
@<TRIPOS>BOND
     1    12    11    2
     2    12    10    1
     3    11     9    1
     4    10     8    2
     5     9     7    2
     6     8     7    1
     7     7     6    1
     8     1     6    1
     9     1     2    1
    10     2     4    1
    11     2     3    2
    12     4     5    1
