@<TRIPOS>MOLECULE
/home/cewinharhar/GITHUB/reincatalyze/data/processed/docking_pred/2023-Apr-25-2140_maxeplen10_maxtrainstep200_exh16_gamma099_lrac3e-4_lrcr1e-3/a6201df4fd59712db5137144eee8a96fed35f0a9_ligand_2.pdbqt
 12 12 0 0 0
SMALL
GASTEIGER

@<TRIPOS>ATOM
      1  C          8.5060    0.6770   -1.7000 C.3     1  UNL1        0.1270
      2  C          9.6310    0.2770   -0.8150 C.2     1  UNL1        0.3030
      3  O          9.5120   -0.5070    0.1600 O.2     1  UNL1       -0.2520
      4  O         10.8950    0.7900   -1.0640 O.3     1  UNL1       -0.4810
      5  H         11.2990    1.3680   -0.3230 H       1  UNL1        0.2960
      6  C          7.3150   -0.1900   -1.4160 C.3     1  UNL1        0.0470
      7  C          6.4360    0.3170   -0.3650 C.2     1  UNL1       -0.0470
      8  C          6.1850   -0.3500    0.8090 C.2     1  UNL1        0.0040
      9  C          5.8160    1.5280   -0.5470 C.2     1  UNL1        0.0040
     10  C          5.3550    0.1420    1.7880 C.2     1  UNL1        0.0000
     11  C          4.9780    2.0500    0.4120 C.2     1  UNL1        0.0000
     12  C          4.7360    1.3590    1.5980 C.2     1  UNL1        0.0000
@<TRIPOS>BOND
     1     1     6    1
     2     1     2    1
     3     6     7    1
     4     4     2    1
     5     4     5    1
     6     2     3    2
     7     9     7    2
     8     9    11    1
     9     7     8    1
    10    11    12    2
    11     8    10    2
    12    12    10    1
