MODEL 1
REMARK VINA RESULT:      -7.3      0.000      0.000
REMARK SMILES O=C(O)CCc1ccccc1
REMARK SMILES IDX 4 1 2 2 1 3 3 4 5 6 6 7 7 8 11 9 8 10 10 11 9 12
REMARK H PARENT 3 5
REMARK Flexibility Score: inf
ROOT
ATOM      1  C   UNL     1       8.474  -0.682  -2.089  1.00  0.00     0.127 C 
ENDROOT
BRANCH   1   2
ATOM      2  C   UNL     1       8.525  -1.931  -2.892  1.00  0.00     0.303 C 
ATOM      3  O   UNL     1       9.578  -2.580  -3.114  1.00  0.00    -0.252 OA
BRANCH   2   4
ATOM      4  O   UNL     1       7.349  -2.427  -3.436  1.00  0.00    -0.481 OA
ATOM      5  H   UNL     1       6.776  -1.755  -3.952  1.00  0.00     0.296 HD
ENDBRANCH   2   4
ENDBRANCH   1   2
BRANCH   1   6
ATOM      6  C   UNL     1       7.080  -0.129  -2.113  1.00  0.00     0.047 C 
BRANCH   6   7
ATOM      7  C   UNL     1       6.498   0.101  -0.793  1.00  0.00    -0.047 A 
ATOM      8  C   UNL     1       5.841   1.254  -0.437  1.00  0.00     0.004 A 
ATOM      9  C   UNL     1       6.607  -0.882   0.159  1.00  0.00     0.004 A 
ATOM     10  C   UNL     1       5.300   1.453   0.810  1.00  0.00     0.000 A 
ATOM     11  C   UNL     1       6.078  -0.715   1.418  1.00  0.00     0.000 A 
ATOM     12  C   UNL     1       5.413   0.462   1.761  1.00  0.00     0.000 A 
ENDBRANCH   6   7
ENDBRANCH   1   6
TORSDOF 4
ENDMDL
MODEL 2
REMARK VINA RESULT:      -7.3      0.100      1.429
REMARK SMILES O=C(O)CCc1ccccc1
REMARK SMILES IDX 4 1 2 2 1 3 3 4 5 6 6 7 7 8 11 9 8 10 10 11 9 12
REMARK H PARENT 3 5
REMARK Flexibility Score: inf
ROOT
ATOM      1  C   UNL     1       8.444  -0.533  -2.266  1.00  0.00     0.127 C 
ENDROOT
BRANCH   1   2
ATOM      2  C   UNL     1       8.517  -1.873  -2.904  1.00  0.00     0.303 C 
ATOM      3  O   UNL     1       9.583  -2.525  -3.048  1.00  0.00    -0.252 OA
BRANCH   2   4
ATOM      4  O   UNL     1       7.350  -2.456  -3.374  1.00  0.00    -0.481 OA
ATOM      5  H   UNL     1       6.635  -1.812  -3.721  1.00  0.00     0.296 HD
ENDBRANCH   2   4
ENDBRANCH   1   2
BRANCH   1   6
ATOM      6  C   UNL     1       7.012  -0.092  -2.191  1.00  0.00     0.047 C 
BRANCH   6   7
ATOM      7  C   UNL     1       6.495   0.053  -0.833  1.00  0.00    -0.047 A 
ATOM      8  C   UNL     1       6.588  -0.924   0.129  1.00  0.00     0.004 A 
ATOM      9  C   UNL     1       5.877   1.227  -0.481  1.00  0.00     0.004 A 
ATOM     10  C   UNL     1       6.096  -0.771   1.403  1.00  0.00     0.000 A 
ATOM     11  C   UNL     1       5.372   1.414   0.785  1.00  0.00     0.000 A 
ATOM     12  C   UNL     1       5.476   0.411   1.748  1.00  0.00     0.000 A 
ENDBRANCH   6   7
ENDBRANCH   1   6
TORSDOF 4
ENDMDL
MODEL 3
REMARK VINA RESULT:      -6.8      3.376      5.081
REMARK SMILES O=C(O)CCc1ccccc1
REMARK SMILES IDX 4 1 2 2 1 3 3 4 5 6 6 7 7 8 11 9 8 10 10 11 9 12
REMARK H PARENT 3 5
REMARK Flexibility Score: inf
ROOT
ATOM      1  C   UNL     1       4.986   1.818   0.698  1.00  0.00     0.127 C 
ENDROOT
BRANCH   1   2
ATOM      2  C   UNL     1       4.503   1.104   1.908  1.00  0.00     0.303 C 
ATOM      3  O   UNL     1       5.145   0.190   2.486  1.00  0.00    -0.252 OA
BRANCH   2   4
ATOM      4  O   UNL     1       3.274   1.453   2.447  1.00  0.00    -0.481 OA
ATOM      5  H   UNL     1       3.141   1.238   3.437  1.00  0.00     0.296 HD
ENDBRANCH   2   4
ENDBRANCH   1   2
BRANCH   1   6
ATOM      6  C   UNL     1       6.485   1.885   0.722  1.00  0.00     0.047 C 
BRANCH   6   7
ATOM      7  C   UNL     1       7.141   1.117  -0.333  1.00  0.00    -0.047 A 
ATOM      8  C   UNL     1       8.478   1.217  -0.633  1.00  0.00     0.004 A 
ATOM      9  C   UNL     1       6.392   0.241  -1.079  1.00  0.00     0.004 A 
ATOM     10  C   UNL     1       9.079   0.486  -1.630  1.00  0.00     0.000 A 
ATOM     11  C   UNL     1       6.961  -0.506  -2.085  1.00  0.00     0.000 A 
ATOM     12  C   UNL     1       8.320  -0.391  -2.374  1.00  0.00     0.000 A 
ENDBRANCH   6   7
ENDBRANCH   1   6
TORSDOF 4
ENDMDL
MODEL 4
REMARK VINA RESULT:      -6.7      3.850      4.952
REMARK SMILES O=C(O)CCc1ccccc1
REMARK SMILES IDX 4 1 2 2 1 3 3 4 5 6 6 7 7 8 11 9 8 10 10 11 9 12
REMARK H PARENT 3 5
REMARK Flexibility Score: inf
ROOT
ATOM      1  C   UNL     1       5.457   2.866  -0.019  1.00  0.00     0.127 C 
ENDROOT
BRANCH   1   2
ATOM      2  C   UNL     1       6.243   3.853   0.765  1.00  0.00     0.303 C 
ATOM      3  O   UNL     1       6.928   4.773   0.249  1.00  0.00    -0.252 OA
BRANCH   2   4
ATOM      4  O   UNL     1       6.232   3.772   2.149  1.00  0.00    -0.481 OA
ATOM      5  H   UNL     1       7.012   4.225   2.631  1.00  0.00     0.296 HD
ENDBRANCH   2   4
ENDBRANCH   1   2
BRANCH   1   6
ATOM      6  C   UNL     1       4.922   1.809   0.902  1.00  0.00     0.047 C 
BRANCH   6   7
ATOM      7  C   UNL     1       5.710   0.579   0.931  1.00  0.00    -0.047 A 
ATOM      8  C   UNL     1       6.394   0.084  -0.151  1.00  0.00     0.004 A 
ATOM      9  C   UNL     1       5.779  -0.136   2.101  1.00  0.00     0.004 A 
ATOM     10  C   UNL     1       7.131  -1.076  -0.106  1.00  0.00     0.000 A 
ATOM     11  C   UNL     1       6.506  -1.301   2.182  1.00  0.00     0.000 A 
ATOM     12  C   UNL     1       7.195  -1.787   1.072  1.00  0.00     0.000 A 
ENDBRANCH   6   7
ENDBRANCH   1   6
TORSDOF 4
ENDMDL
MODEL 5
REMARK VINA RESULT:      -6.6      2.088      2.727
REMARK SMILES O=C(O)CCc1ccccc1
REMARK SMILES IDX 4 1 2 2 1 3 3 4 5 6 6 7 7 8 11 9 8 10 10 11 9 12
REMARK H PARENT 3 5
REMARK Flexibility Score: inf
ROOT
ATOM      1  C   UNL     1       8.506   0.677  -1.700  1.00  0.00     0.127 C 
ENDROOT
BRANCH   1   2
ATOM      2  C   UNL     1       9.631   0.277  -0.815  1.00  0.00     0.303 C 
ATOM      3  O   UNL     1       9.512  -0.507   0.160  1.00  0.00    -0.252 OA
BRANCH   2   4
ATOM      4  O   UNL     1      10.895   0.790  -1.064  1.00  0.00    -0.481 OA
ATOM      5  H   UNL     1      11.299   1.368  -0.323  1.00  0.00     0.296 HD
ENDBRANCH   2   4
ENDBRANCH   1   2
BRANCH   1   6
ATOM      6  C   UNL     1       7.315  -0.190  -1.416  1.00  0.00     0.047 C 
BRANCH   6   7
ATOM      7  C   UNL     1       6.436   0.317  -0.365  1.00  0.00    -0.047 A 
ATOM      8  C   UNL     1       6.185  -0.350   0.809  1.00  0.00     0.004 A 
ATOM      9  C   UNL     1       5.816   1.528  -0.547  1.00  0.00     0.004 A 
ATOM     10  C   UNL     1       5.355   0.142   1.788  1.00  0.00     0.000 A 
ATOM     11  C   UNL     1       4.978   2.050   0.412  1.00  0.00     0.000 A 
ATOM     12  C   UNL     1       4.736   1.359   1.598  1.00  0.00     0.000 A 
ENDBRANCH   6   7
ENDBRANCH   1   6
TORSDOF 4
ENDMDL
