@<TRIPOS>MOLECULE
/home/cewinharhar/GITHUB/reincatalyze/data/processed/docking_pred/2023-Apr-25-2140_maxeplen10_maxtrainstep200_exh16_gamma099_lrac3e-4_lrcr1e-3/a7c8c9f10e55c2841f25afbe7e611a3f864293db_ligand_2.pdbqt
 12 12 0 0 0
SMALL
GASTEIGER

@<TRIPOS>ATOM
      1  C          5.3930    2.8790   -0.0020 C.3     1  UNL1        0.1270
      2  C          6.1680    3.8170    0.8520 C.2     1  UNL1        0.3030
      3  O          6.1460    3.8010    2.1090 O.2     1  UNL1       -0.2520
      4  O          6.9680    4.7730    0.2450 O.3     1  UNL1       -0.4810
      5  H          6.8120    4.9180   -0.7550 H       1  UNL1        0.2960
      6  C          4.8810    1.7460    0.8370 C.3     1  UNL1        0.0470
      7  C          5.7450    0.5680    0.8530 C.2     1  UNL1       -0.0470
      8  C          5.9150   -0.2400    1.9500 C.2     1  UNL1        0.0040
      9  C          6.4330    0.2360   -0.2880 C.2     1  UNL1        0.0040
     10  C          6.7320   -1.3460    1.9470 C.2     1  UNL1        0.0000
     11  C          7.2600   -0.8630   -0.3260 C.2     1  UNL1        0.0000
     12  C          7.4200   -1.6720    0.7980 C.2     1  UNL1        0.0000
@<TRIPOS>BOND
     1     5     4    1
     2    11     9    1
     3    11    12    2
     4     9     7    2
     5     1     6    1
     6     1     2    1
     7     4     2    1
     8    12    10    1
     9     6     7    1
    10     2     3    2
    11     7     8    1
    12    10     8    2
