@<TRIPOS>MOLECULE
/home/cewinharhar/GITHUB/reincatalyze/data/processed/docking_pred/2023-Apr-25-2140_maxeplen10_maxtrainstep200_exh16_gamma099_lrac3e-4_lrcr1e-3/a7c8c9f10e55c2841f25afbe7e611a3f864293db_ligand_2.pdbqt
 12 12 0 0 0
SMALL
GASTEIGER

@<TRIPOS>ATOM
      1  C          8.4250   -0.5340   -2.2310 C.3     1  UNL1        0.1270
      2  C          8.4980   -1.8580   -2.9010 C.2     1  UNL1        0.3030
      3  O          9.5620   -2.5110   -3.0500 O.2     1  UNL1       -0.2520
      4  O          7.3330   -2.4240   -3.3960 O.3     1  UNL1       -0.4810
      5  H          6.5680   -1.7750   -3.5940 H       1  UNL1        0.2960
      6  C          6.9940   -0.0880   -2.1600 C.3     1  UNL1        0.0470
      7  C          6.4740    0.0600   -0.8030 C.2     1  UNL1       -0.0470
      8  C          6.5690   -0.9130    0.1620 C.2     1  UNL1        0.0040
      9  C          5.8500    1.2330   -0.4570 C.2     1  UNL1        0.0040
     10  C          6.0740   -0.7570    1.4340 C.2     1  UNL1        0.0000
     11  C          5.3420    1.4220    0.8080 C.2     1  UNL1        0.0000
     12  C          5.4490    0.4230    1.7740 C.2     1  UNL1        0.0000
@<TRIPOS>BOND
     1     5     4    1
     2     4     2    1
     3     3     2    2
     4     2     1    1
     5     1     6    1
     6     6     7    1
     7     7     9    2
     8     7     8    1
     9     9    11    1
    10     8    10    2
    11    11    12    2
    12    10    12    1
