MODEL 1
REMARK VINA RESULT:      -7.3      0.000      0.000
REMARK SMILES O=C(O)CCc1ccccc1
REMARK SMILES IDX 4 1 2 2 1 3 3 4 5 6 6 7 7 8 11 9 8 10 10 11 9 12
REMARK H PARENT 3 5
REMARK Flexibility Score: inf
ROOT
ATOM      1  C   UNL     1       8.425  -0.534  -2.231  1.00  0.00     0.127 C 
ENDROOT
BRANCH   1   2
ATOM      2  C   UNL     1       8.498  -1.858  -2.901  1.00  0.00     0.303 C 
ATOM      3  O   UNL     1       9.562  -2.511  -3.050  1.00  0.00    -0.252 OA
BRANCH   2   4
ATOM      4  O   UNL     1       7.333  -2.424  -3.396  1.00  0.00    -0.481 OA
ATOM      5  H   UNL     1       6.568  -1.775  -3.594  1.00  0.00     0.296 HD
ENDBRANCH   2   4
ENDBRANCH   1   2
BRANCH   1   6
ATOM      6  C   UNL     1       6.994  -0.088  -2.160  1.00  0.00     0.047 C 
BRANCH   6   7
ATOM      7  C   UNL     1       6.474   0.060  -0.803  1.00  0.00    -0.047 A 
ATOM      8  C   UNL     1       6.569  -0.913   0.162  1.00  0.00     0.004 A 
ATOM      9  C   UNL     1       5.850   1.233  -0.457  1.00  0.00     0.004 A 
ATOM     10  C   UNL     1       6.074  -0.757   1.434  1.00  0.00     0.000 A 
ATOM     11  C   UNL     1       5.342   1.422   0.808  1.00  0.00     0.000 A 
ATOM     12  C   UNL     1       5.449   0.423   1.774  1.00  0.00     0.000 A 
ENDBRANCH   6   7
ENDBRANCH   1   6
TORSDOF 4
ENDMDL
MODEL 2
REMARK VINA RESULT:      -7.3      0.065      1.426
REMARK SMILES O=C(O)CCc1ccccc1
REMARK SMILES IDX 4 1 2 2 1 3 3 4 5 6 6 7 7 8 11 9 8 10 10 11 9 12
REMARK H PARENT 3 5
REMARK Flexibility Score: inf
ROOT
ATOM      1  C   UNL     1       8.436  -0.545  -2.235  1.00  0.00     0.127 C 
ENDROOT
BRANCH   1   2
ATOM      2  C   UNL     1       8.512  -1.867  -2.911  1.00  0.00     0.303 C 
ATOM      3  O   UNL     1       9.579  -2.512  -3.070  1.00  0.00    -0.252 OA
BRANCH   2   4
ATOM      4  O   UNL     1       7.347  -2.437  -3.401  1.00  0.00    -0.481 OA
ATOM      5  H   UNL     1       6.649  -2.700  -2.702  1.00  0.00     0.296 HD
ENDBRANCH   2   4
ENDBRANCH   1   2
BRANCH   1   6
ATOM      6  C   UNL     1       7.007  -0.091  -2.185  1.00  0.00     0.047 C 
BRANCH   6   7
ATOM      7  C   UNL     1       6.475   0.085  -0.836  1.00  0.00    -0.047 A 
ATOM      8  C   UNL     1       5.842   1.226  -0.407  1.00  0.00     0.004 A 
ATOM      9  C   UNL     1       6.610  -0.939   0.068  1.00  0.00     0.004 A 
ATOM     10  C   UNL     1       5.348   1.375   0.867  1.00  0.00     0.000 A 
ATOM     11  C   UNL     1       6.128  -0.824   1.351  1.00  0.00     0.000 A 
ATOM     12  C   UNL     1       5.487   0.342   1.768  1.00  0.00     0.000 A 
ENDBRANCH   6   7
ENDBRANCH   1   6
TORSDOF 4
ENDMDL
MODEL 3
REMARK VINA RESULT:      -6.8      3.359      5.049
REMARK SMILES O=C(O)CCc1ccccc1
REMARK SMILES IDX 4 1 2 2 1 3 3 4 5 6 6 7 7 8 11 9 8 10 10 11 9 12
REMARK H PARENT 3 5
REMARK Flexibility Score: inf
ROOT
ATOM      1  C   UNL     1       5.005   1.822   0.710  1.00  0.00     0.127 C 
ENDROOT
BRANCH   1   2
ATOM      2  C   UNL     1       4.507   1.104   1.911  1.00  0.00     0.303 C 
ATOM      3  O   UNL     1       5.136   0.180   2.487  1.00  0.00    -0.252 OA
BRANCH   2   4
ATOM      4  O   UNL     1       3.276   1.460   2.443  1.00  0.00    -0.481 OA
ATOM      5  H   UNL     1       3.300   1.940   3.345  1.00  0.00     0.296 HD
ENDBRANCH   2   4
ENDBRANCH   1   2
BRANCH   1   6
ATOM      6  C   UNL     1       6.506   1.822   0.715  1.00  0.00     0.047 C 
BRANCH   6   7
ATOM      7  C   UNL     1       7.113   1.029  -0.352  1.00  0.00    -0.047 A 
ATOM      8  C   UNL     1       6.432   0.092  -1.090  1.00  0.00     0.004 A 
ATOM      9  C   UNL     1       8.440   1.221  -0.647  1.00  0.00     0.004 A 
ATOM     10  C   UNL     1       7.019  -0.645  -2.091  1.00  0.00     0.000 A 
ATOM     11  C   UNL     1       9.060   0.500  -1.641  1.00  0.00     0.000 A 
ATOM     12  C   UNL     1       8.352  -0.447  -2.380  1.00  0.00     0.000 A 
ENDBRANCH   6   7
ENDBRANCH   1   6
TORSDOF 4
ENDMDL
MODEL 4
REMARK VINA RESULT:      -6.7      1.925      2.645
REMARK SMILES O=C(O)CCc1ccccc1
REMARK SMILES IDX 4 1 2 2 1 3 3 4 5 6 6 7 7 8 11 9 8 10 10 11 9 12
REMARK H PARENT 3 5
REMARK Flexibility Score: inf
ROOT
ATOM      1  C   UNL     1       8.295   0.227  -2.240  1.00  0.00     0.127 C 
ENDROOT
BRANCH   1   2
ATOM      2  C   UNL     1       9.395   0.350  -1.249  1.00  0.00     0.303 C 
ATOM      3  O   UNL     1       9.495  -0.366  -0.220  1.00  0.00    -0.252 OA
BRANCH   2   4
ATOM      4  O   UNL     1      10.381   1.304  -1.455  1.00  0.00    -0.481 OA
ATOM      5  H   UNL     1      10.157   2.253  -1.147  1.00  0.00     0.296 HD
ENDBRANCH   2   4
ENDBRANCH   1   2
BRANCH   1   6
ATOM      6  C   UNL     1       7.135  -0.488  -1.613  1.00  0.00     0.047 C 
BRANCH   6   7
ATOM      7  C   UNL     1       6.350   0.329  -0.690  1.00  0.00    -0.047 A 
ATOM      8  C   UNL     1       5.795   1.541  -1.024  1.00  0.00     0.004 A 
ATOM      9  C   UNL     1       6.146  -0.126   0.589  1.00  0.00     0.004 A 
ATOM     10  C   UNL     1       5.059   2.296  -0.143  1.00  0.00     0.000 A 
ATOM     11  C   UNL     1       5.415   0.605   1.497  1.00  0.00     0.000 A 
ATOM     12  C   UNL     1       4.859   1.832   1.139  1.00  0.00     0.000 A 
ENDBRANCH   6   7
ENDBRANCH   1   6
TORSDOF 4
ENDMDL
MODEL 5
REMARK VINA RESULT:      -6.6      3.789      4.928
REMARK SMILES O=C(O)CCc1ccccc1
REMARK SMILES IDX 4 1 2 2 1 3 3 4 5 6 6 7 7 8 11 9 8 10 10 11 9 12
REMARK H PARENT 3 5
REMARK Flexibility Score: inf
ROOT
ATOM      1  C   UNL     1       5.393   2.879  -0.002  1.00  0.00     0.127 C 
ENDROOT
BRANCH   1   2
ATOM      2  C   UNL     1       6.168   3.817   0.852  1.00  0.00     0.303 C 
ATOM      3  O   UNL     1       6.146   3.801   2.109  1.00  0.00    -0.252 OA
BRANCH   2   4
ATOM      4  O   UNL     1       6.968   4.773   0.245  1.00  0.00    -0.481 OA
ATOM      5  H   UNL     1       6.812   4.918  -0.755  1.00  0.00     0.296 HD
ENDBRANCH   2   4
ENDBRANCH   1   2
BRANCH   1   6
ATOM      6  C   UNL     1       4.881   1.746   0.837  1.00  0.00     0.047 C 
BRANCH   6   7
ATOM      7  C   UNL     1       5.745   0.568   0.853  1.00  0.00    -0.047 A 
ATOM      8  C   UNL     1       5.915  -0.240   1.950  1.00  0.00     0.004 A 
ATOM      9  C   UNL     1       6.433   0.236  -0.288  1.00  0.00     0.004 A 
ATOM     10  C   UNL     1       6.732  -1.346   1.947  1.00  0.00     0.000 A 
ATOM     11  C   UNL     1       7.260  -0.863  -0.326  1.00  0.00     0.000 A 
ATOM     12  C   UNL     1       7.420  -1.672   0.798  1.00  0.00     0.000 A 
ENDBRANCH   6   7
ENDBRANCH   1   6
TORSDOF 4
ENDMDL
