@<TRIPOS>MOLECULE
/home/cewinharhar/GITHUB/reincatalyze/data/processed/docking_pred/2023-Apr-25-2140_maxeplen10_maxtrainstep200_exh16_gamma099_lrac3e-4_lrcr1e-3/a7c8c9f10e55c2841f25afbe7e611a3f864293db_ligand_2.pdbqt
 12 12 0 0 0
SMALL
GASTEIGER

@<TRIPOS>ATOM
      1  C          8.4360   -0.5450   -2.2350 C.3     1  UNL1        0.1270
      2  C          8.5120   -1.8670   -2.9110 C.2     1  UNL1        0.3030
      3  O          9.5790   -2.5120   -3.0700 O.2     1  UNL1       -0.2520
      4  O          7.3470   -2.4370   -3.4010 O.3     1  UNL1       -0.4810
      5  H          6.6490   -2.7000   -2.7020 H       1  UNL1        0.2960
      6  C          7.0070   -0.0910   -2.1850 C.3     1  UNL1        0.0470
      7  C          6.4750    0.0850   -0.8360 C.2     1  UNL1       -0.0470
      8  C          5.8420    1.2260   -0.4070 C.2     1  UNL1        0.0040
      9  C          6.6100   -0.9390    0.0680 C.2     1  UNL1        0.0040
     10  C          5.3480    1.3750    0.8670 C.2     1  UNL1        0.0000
     11  C          6.1280   -0.8240    1.3510 C.2     1  UNL1        0.0000
     12  C          5.4870    0.3420    1.7680 C.2     1  UNL1        0.0000
@<TRIPOS>BOND
     1     4     2    1
     2     4     5    1
     3     3     2    2
     4     2     1    1
     5     1     6    1
     6     6     7    1
     7     7     8    2
     8     7     9    1
     9     8    10    1
    10     9    11    2
    11    10    12    2
    12    11    12    1
