@<TRIPOS>MOLECULE
/home/cewinharhar/GITHUB/reincatalyze/data/processed/docking_pred/2023-Apr-25-2140_maxeplen10_maxtrainstep200_exh16_gamma099_lrac3e-4_lrcr1e-3/a7c8c9f10e55c2841f25afbe7e611a3f864293db_ligand_2.pdbqt
 12 12 0 0 0
SMALL
GASTEIGER

@<TRIPOS>ATOM
      1  C          5.0050    1.8220    0.7100 C.3     1  UNL1        0.1270
      2  C          4.5070    1.1040    1.9110 C.2     1  UNL1        0.3030
      3  O          5.1360    0.1800    2.4870 O.2     1  UNL1       -0.2520
      4  O          3.2760    1.4600    2.4430 O.3     1  UNL1       -0.4810
      5  H          3.3000    1.9400    3.3450 H       1  UNL1        0.2960
      6  C          6.5060    1.8220    0.7150 C.3     1  UNL1        0.0470
      7  C          7.1130    1.0290   -0.3520 C.2     1  UNL1       -0.0470
      8  C          6.4320    0.0920   -1.0900 C.2     1  UNL1        0.0040
      9  C          8.4400    1.2210   -0.6470 C.2     1  UNL1        0.0040
     10  C          7.0190   -0.6450   -2.0910 C.2     1  UNL1        0.0000
     11  C          9.0600    0.5000   -1.6410 C.2     1  UNL1        0.0000
     12  C          8.3520   -0.4470   -2.3800 C.2     1  UNL1        0.0000
@<TRIPOS>BOND
     1    12    10    2
     2    12    11    1
     3    10     8    1
     4    11     9    2
     5     8     7    2
     6     9     7    1
     7     7     6    1
     8     1     6    1
     9     1     2    1
    10     2     4    1
    11     2     3    2
    12     4     5    1
