@<TRIPOS>MOLECULE
/home/cewinharhar/GITHUB/reincatalyze/data/processed/docking_pred/2023-Apr-25-2140_maxeplen10_maxtrainstep200_exh16_gamma099_lrac3e-4_lrcr1e-3/a7c8c9f10e55c2841f25afbe7e611a3f864293db_ligand_2.pdbqt
 12 12 0 0 0
SMALL
GASTEIGER

@<TRIPOS>ATOM
      1  C          8.2950    0.2270   -2.2400 C.3     1  UNL1        0.1270
      2  C          9.3950    0.3500   -1.2490 C.2     1  UNL1        0.3030
      3  O          9.4950   -0.3660   -0.2200 O.2     1  UNL1       -0.2520
      4  O         10.3810    1.3040   -1.4550 O.3     1  UNL1       -0.4810
      5  H         10.1570    2.2530   -1.1470 H       1  UNL1        0.2960
      6  C          7.1350   -0.4880   -1.6130 C.3     1  UNL1        0.0470
      7  C          6.3500    0.3290   -0.6900 C.2     1  UNL1       -0.0470
      8  C          5.7950    1.5410   -1.0240 C.2     1  UNL1        0.0040
      9  C          6.1460   -0.1260    0.5890 C.2     1  UNL1        0.0040
     10  C          5.0590    2.2960   -0.1430 C.2     1  UNL1        0.0000
     11  C          5.4150    0.6050    1.4970 C.2     1  UNL1        0.0000
     12  C          4.8590    1.8320    1.1390 C.2     1  UNL1        0.0000
@<TRIPOS>BOND
     1     1     6    1
     2     1     2    1
     3     6     7    1
     4     4     2    1
     5     4     5    1
     6     2     3    2
     7     8     7    2
     8     8    10    1
     9     7     9    1
    10    10    12    2
    11     9    11    2
    12    12    11    1
