@<TRIPOS>MOLECULE
/home/cewinharhar/GITHUB/reincatalyze/data/processed/docking_pred/2023-Apr-25-2140_maxeplen10_maxtrainstep200_exh16_gamma099_lrac3e-4_lrcr1e-3/a8cbf1bb962d04eb60783bb2dc55df042853f03a_ligand_2.pdbqt
 12 12 0 0 0
SMALL
GASTEIGER

@<TRIPOS>ATOM
      1  C          8.4570   -0.5530   -2.2000 C.3     1  UNL1        0.1270
      2  C          8.5020   -1.8550   -2.9160 C.2     1  UNL1        0.3030
      3  O          9.5530   -2.5190   -3.0990 O.2     1  UNL1       -0.2520
      4  O          7.3220   -2.3850   -3.4170 O.3     1  UNL1       -0.4810
      5  H          6.5100   -2.3360   -2.7980 H       1  UNL1        0.2960
      6  C          7.0410   -0.0590   -2.1490 C.3     1  UNL1        0.0470
      7  C          6.4750    0.0140   -0.8040 C.2     1  UNL1       -0.0470
      8  C          6.5420   -1.0080    0.1100 C.2     1  UNL1        0.0040
      9  C          5.8360    1.1660   -0.4170 C.2     1  UNL1        0.0040
     10  C          6.0040   -0.9220    1.3720 C.2     1  UNL1        0.0000
     11  C          5.2850    1.2860    0.8380 C.2     1  UNL1        0.0000
     12  C          5.3630    0.2380    1.7530 C.2     1  UNL1        0.0000
@<TRIPOS>BOND
     1     4     2    1
     2     4     5    1
     3     3     2    2
     4     2     1    1
     5     1     6    1
     6     6     7    1
     7     7     9    2
     8     7     8    1
     9     9    11    1
    10     8    10    2
    11    11    12    2
    12    10    12    1
