@<TRIPOS>MOLECULE
/home/cewinharhar/GITHUB/reincatalyze/data/processed/docking_pred/2023-Apr-25-2140_maxeplen10_maxtrainstep200_exh16_gamma099_lrac3e-4_lrcr1e-3/a8cbf1bb962d04eb60783bb2dc55df042853f03a_ligand_2.pdbqt
 12 12 0 0 0
SMALL
GASTEIGER

@<TRIPOS>ATOM
      1  C          8.4210    0.7260   -1.6270 C.3     1  UNL1        0.1270
      2  C          9.5750    0.2900   -0.7990 C.2     1  UNL1        0.3030
      3  O          9.4870   -0.5290    0.1510 O.2     1  UNL1       -0.2520
      4  O         10.8320    0.8050   -1.0760 O.3     1  UNL1       -0.4810
      5  H         11.5730    0.5610   -0.4150 H       1  UNL1        0.2960
      6  C          7.2560   -0.1860   -1.3800 C.3     1  UNL1        0.0470
      7  C          6.3630    0.2500   -0.3090 C.2     1  UNL1       -0.0470
      8  C          6.0940   -0.4950    0.8120 C.2     1  UNL1        0.0040
      9  C          5.7510    1.4740   -0.4140 C.2     1  UNL1        0.0040
     10  C          5.2510   -0.0690    1.8120 C.2     1  UNL1        0.0000
     11  C          4.9010    1.9320    0.5660 C.2     1  UNL1        0.0000
     12  C          4.6400    1.1610    1.6980 C.2     1  UNL1        0.0000
@<TRIPOS>BOND
     1     1     6    1
     2     1     2    1
     3     6     7    1
     4     4     2    1
     5     4     5    1
     6     2     3    2
     7     9     7    2
     8     9    11    1
     9     7     8    1
    10    11    12    2
    11     8    10    2
    12    12    10    1
