MODEL 1
REMARK VINA RESULT:      -7.3      0.000      0.000
REMARK SMILES O=C(O)CCc1ccccc1
REMARK SMILES IDX 4 1 2 2 1 3 3 4 5 6 6 7 7 8 11 9 8 10 10 11 9 12
REMARK H PARENT 3 5
REMARK Flexibility Score: inf
ROOT
ATOM      1  C   UNL     1       8.457  -0.553  -2.200  1.00  0.00     0.127 C 
ENDROOT
BRANCH   1   2
ATOM      2  C   UNL     1       8.502  -1.855  -2.916  1.00  0.00     0.303 C 
ATOM      3  O   UNL     1       9.553  -2.519  -3.099  1.00  0.00    -0.252 OA
BRANCH   2   4
ATOM      4  O   UNL     1       7.322  -2.385  -3.417  1.00  0.00    -0.481 OA
ATOM      5  H   UNL     1       6.510  -2.336  -2.798  1.00  0.00     0.296 HD
ENDBRANCH   2   4
ENDBRANCH   1   2
BRANCH   1   6
ATOM      6  C   UNL     1       7.041  -0.059  -2.149  1.00  0.00     0.047 C 
BRANCH   6   7
ATOM      7  C   UNL     1       6.475   0.014  -0.804  1.00  0.00    -0.047 A 
ATOM      8  C   UNL     1       6.542  -1.008   0.110  1.00  0.00     0.004 A 
ATOM      9  C   UNL     1       5.836   1.166  -0.417  1.00  0.00     0.004 A 
ATOM     10  C   UNL     1       6.004  -0.922   1.372  1.00  0.00     0.000 A 
ATOM     11  C   UNL     1       5.285   1.286   0.838  1.00  0.00     0.000 A 
ATOM     12  C   UNL     1       5.363   0.238   1.753  1.00  0.00     0.000 A 
ENDBRANCH   6   7
ENDBRANCH   1   6
TORSDOF 4
ENDMDL
MODEL 2
REMARK VINA RESULT:      -7.3      0.088      1.427
REMARK SMILES O=C(O)CCc1ccccc1
REMARK SMILES IDX 4 1 2 2 1 3 3 4 5 6 6 7 7 8 11 9 8 10 10 11 9 12
REMARK H PARENT 3 5
REMARK Flexibility Score: inf
ROOT
ATOM      1  C   UNL     1       8.453  -0.583  -2.163  1.00  0.00     0.127 C 
ENDROOT
BRANCH   1   2
ATOM      2  C   UNL     1       8.506  -1.868  -2.908  1.00  0.00     0.303 C 
ATOM      3  O   UNL     1       9.563  -2.518  -3.110  1.00  0.00    -0.252 OA
BRANCH   2   4
ATOM      4  O   UNL     1       7.330  -2.397  -3.416  1.00  0.00    -0.481 OA
ATOM      5  H   UNL     1       6.468  -2.098  -2.955  1.00  0.00     0.296 HD
ENDBRANCH   2   4
ENDBRANCH   1   2
BRANCH   1   6
ATOM      6  C   UNL     1       7.037  -0.088  -2.122  1.00  0.00     0.047 C 
BRANCH   6   7
ATOM      7  C   UNL     1       6.471   0.011  -0.778  1.00  0.00    -0.047 A 
ATOM      8  C   UNL     1       5.816   1.121  -0.305  1.00  0.00     0.004 A 
ATOM      9  C   UNL     1       6.593  -1.060   0.072  1.00  0.00     0.004 A 
ATOM     10  C   UNL     1       5.289   1.197   0.962  1.00  0.00     0.000 A 
ATOM     11  C   UNL     1       6.078  -1.017   1.348  1.00  0.00     0.000 A 
ATOM     12  C   UNL     1       5.416   0.118   1.810  1.00  0.00     0.000 A 
ENDBRANCH   6   7
ENDBRANCH   1   6
TORSDOF 4
ENDMDL
MODEL 3
REMARK VINA RESULT:      -6.9      3.367      5.054
REMARK SMILES O=C(O)CCc1ccccc1
REMARK SMILES IDX 4 1 2 2 1 3 3 4 5 6 6 7 7 8 11 9 8 10 10 11 9 12
REMARK H PARENT 3 5
REMARK Flexibility Score: inf
ROOT
ATOM      1  C   UNL     1       4.957   1.773   0.672  1.00  0.00     0.127 C 
ENDROOT
BRANCH   1   2
ATOM      2  C   UNL     1       4.469   1.086   1.896  1.00  0.00     0.303 C 
ATOM      3  O   UNL     1       5.093   0.163   2.478  1.00  0.00    -0.252 OA
BRANCH   2   4
ATOM      4  O   UNL     1       3.255   1.473   2.443  1.00  0.00    -0.481 OA
ATOM      5  H   UNL     1       2.540   1.778   1.779  1.00  0.00     0.296 HD
ENDBRANCH   2   4
ENDBRANCH   1   2
BRANCH   1   6
ATOM      6  C   UNL     1       6.457   1.807   0.683  1.00  0.00     0.047 C 
BRANCH   6   7
ATOM      7  C   UNL     1       7.087   1.010  -0.368  1.00  0.00    -0.047 A 
ATOM      8  C   UNL     1       6.433   0.040  -1.087  1.00  0.00     0.004 A 
ATOM      9  C   UNL     1       8.409   1.232  -0.665  1.00  0.00     0.004 A 
ATOM     10  C   UNL     1       7.041  -0.700  -2.073  1.00  0.00     0.000 A 
ATOM     11  C   UNL     1       9.049   0.508  -1.645  1.00  0.00     0.000 A 
ATOM     12  C   UNL     1       8.368  -0.472  -2.365  1.00  0.00     0.000 A 
ENDBRANCH   6   7
ENDBRANCH   1   6
TORSDOF 4
ENDMDL
MODEL 4
REMARK VINA RESULT:      -6.7      3.832      4.922
REMARK SMILES O=C(O)CCc1ccccc1
REMARK SMILES IDX 4 1 2 2 1 3 3 4 5 6 6 7 7 8 11 9 8 10 10 11 9 12
REMARK H PARENT 3 5
REMARK Flexibility Score: inf
ROOT
ATOM      1  C   UNL     1       5.463   2.846  -0.092  1.00  0.00     0.127 C 
ENDROOT
BRANCH   1   2
ATOM      2  C   UNL     1       6.224   3.828   0.723  1.00  0.00     0.303 C 
ATOM      3  O   UNL     1       6.896   4.772   0.236  1.00  0.00    -0.252 OA
BRANCH   2   4
ATOM      4  O   UNL     1       6.204   3.712   2.105  1.00  0.00    -0.481 OA
ATOM      5  H   UNL     1       7.087   3.440   2.545  1.00  0.00     0.296 HD
ENDBRANCH   2   4
ENDBRANCH   1   2
BRANCH   1   6
ATOM      6  C   UNL     1       4.884   1.793   0.808  1.00  0.00     0.047 C 
BRANCH   6   7
ATOM      7  C   UNL     1       5.664   0.559   0.871  1.00  0.00    -0.047 A 
ATOM      8  C   UNL     1       6.323   0.015  -0.204  1.00  0.00     0.004 A 
ATOM      9  C   UNL     1       5.752  -0.108   2.068  1.00  0.00     0.004 A 
ATOM     10  C   UNL     1       7.052  -1.148  -0.126  1.00  0.00     0.000 A 
ATOM     11  C   UNL     1       6.472  -1.275   2.181  1.00  0.00     0.000 A 
ATOM     12  C   UNL     1       7.135  -1.812   1.079  1.00  0.00     0.000 A 
ENDBRANCH   6   7
ENDBRANCH   1   6
TORSDOF 4
ENDMDL
MODEL 5
REMARK VINA RESULT:      -6.6      2.074      2.340
REMARK SMILES O=C(O)CCc1ccccc1
REMARK SMILES IDX 4 1 2 2 1 3 3 4 5 6 6 7 7 8 11 9 8 10 10 11 9 12
REMARK H PARENT 3 5
REMARK Flexibility Score: inf
ROOT
ATOM      1  C   UNL     1       8.421   0.726  -1.627  1.00  0.00     0.127 C 
ENDROOT
BRANCH   1   2
ATOM      2  C   UNL     1       9.575   0.290  -0.799  1.00  0.00     0.303 C 
ATOM      3  O   UNL     1       9.487  -0.529   0.151  1.00  0.00    -0.252 OA
BRANCH   2   4
ATOM      4  O   UNL     1      10.832   0.805  -1.076  1.00  0.00    -0.481 OA
ATOM      5  H   UNL     1      11.573   0.561  -0.415  1.00  0.00     0.296 HD
ENDBRANCH   2   4
ENDBRANCH   1   2
BRANCH   1   6
ATOM      6  C   UNL     1       7.256  -0.186  -1.380  1.00  0.00     0.047 C 
BRANCH   6   7
ATOM      7  C   UNL     1       6.363   0.250  -0.309  1.00  0.00    -0.047 A 
ATOM      8  C   UNL     1       6.094  -0.495   0.812  1.00  0.00     0.004 A 
ATOM      9  C   UNL     1       5.751   1.474  -0.414  1.00  0.00     0.004 A 
ATOM     10  C   UNL     1       5.251  -0.069   1.812  1.00  0.00     0.000 A 
ATOM     11  C   UNL     1       4.901   1.932   0.566  1.00  0.00     0.000 A 
ATOM     12  C   UNL     1       4.640   1.161   1.698  1.00  0.00     0.000 A 
ENDBRANCH   6   7
ENDBRANCH   1   6
TORSDOF 4
ENDMDL
