@<TRIPOS>MOLECULE
/home/cewinharhar/GITHUB/reincatalyze/data/processed/docking_pred/2023-Apr-25-2140_maxeplen10_maxtrainstep200_exh16_gamma099_lrac3e-4_lrcr1e-3/a8cbf1bb962d04eb60783bb2dc55df042853f03a_ligand_2.pdbqt
 12 12 0 0 0
SMALL
GASTEIGER

@<TRIPOS>ATOM
      1  C          5.4630    2.8460   -0.0920 C.3     1  UNL1        0.1270
      2  C          6.2240    3.8280    0.7230 C.2     1  UNL1        0.3030
      3  O          6.8960    4.7720    0.2360 O.2     1  UNL1       -0.2520
      4  O          6.2040    3.7120    2.1050 O.3     1  UNL1       -0.4810
      5  H          7.0870    3.4400    2.5450 H       1  UNL1        0.2960
      6  C          4.8840    1.7930    0.8080 C.3     1  UNL1        0.0470
      7  C          5.6640    0.5590    0.8710 C.2     1  UNL1       -0.0470
      8  C          6.3230    0.0150   -0.2040 C.2     1  UNL1        0.0040
      9  C          5.7520   -0.1080    2.0680 C.2     1  UNL1        0.0040
     10  C          7.0520   -1.1480   -0.1260 C.2     1  UNL1        0.0000
     11  C          6.4720   -1.2750    2.1810 C.2     1  UNL1        0.0000
     12  C          7.1350   -1.8120    1.0790 C.2     1  UNL1        0.0000
@<TRIPOS>BOND
     1     8    10    1
     2     8     7    2
     3    10    12    2
     4     1     2    1
     5     1     6    1
     6     3     2    2
     7     2     4    1
     8     6     7    1
     9     7     9    1
    10    12    11    1
    11     9    11    2
    12     4     5    1
