@<TRIPOS>MOLECULE
/home/cewinharhar/GITHUB/reincatalyze/data/processed/docking_pred/2023-Apr-25-2140_maxeplen10_maxtrainstep200_exh16_gamma099_lrac3e-4_lrcr1e-3/a8cbf1bb962d04eb60783bb2dc55df042853f03a_ligand_2.pdbqt
 12 12 0 0 0
SMALL
GASTEIGER

@<TRIPOS>ATOM
      1  C          8.4530   -0.5830   -2.1630 C.3     1  UNL1        0.1270
      2  C          8.5060   -1.8680   -2.9080 C.2     1  UNL1        0.3030
      3  O          9.5630   -2.5180   -3.1100 O.2     1  UNL1       -0.2520
      4  O          7.3300   -2.3970   -3.4160 O.3     1  UNL1       -0.4810
      5  H          6.4680   -2.0980   -2.9550 H       1  UNL1        0.2960
      6  C          7.0370   -0.0880   -2.1220 C.3     1  UNL1        0.0470
      7  C          6.4710    0.0110   -0.7780 C.2     1  UNL1       -0.0470
      8  C          5.8160    1.1210   -0.3050 C.2     1  UNL1        0.0040
      9  C          6.5930   -1.0600    0.0720 C.2     1  UNL1        0.0040
     10  C          5.2890    1.1970    0.9620 C.2     1  UNL1        0.0000
     11  C          6.0780   -1.0170    1.3480 C.2     1  UNL1        0.0000
     12  C          5.4160    0.1180    1.8100 C.2     1  UNL1        0.0000
@<TRIPOS>BOND
     1     4     5    1
     2     4     2    1
     3     3     2    2
     4     2     1    1
     5     1     6    1
     6     6     7    1
     7     7     8    2
     8     7     9    1
     9     8    10    1
    10     9    11    2
    11    10    12    2
    12    11    12    1
