@<TRIPOS>MOLECULE
/home/cewinharhar/GITHUB/reincatalyze/data/processed/docking_pred/2023-Apr-25-2140_maxeplen10_maxtrainstep200_exh16_gamma099_lrac3e-4_lrcr1e-3/a8cbf1bb962d04eb60783bb2dc55df042853f03a_ligand_2.pdbqt
 12 12 0 0 0
SMALL
GASTEIGER

@<TRIPOS>ATOM
      1  C          4.9570    1.7730    0.6720 C.3     1  UNL1        0.1270
      2  C          4.4690    1.0860    1.8960 C.2     1  UNL1        0.3030
      3  O          5.0930    0.1630    2.4780 O.2     1  UNL1       -0.2520
      4  O          3.2550    1.4730    2.4430 O.3     1  UNL1       -0.4810
      5  H          2.5400    1.7780    1.7790 H       1  UNL1        0.2960
      6  C          6.4570    1.8070    0.6830 C.3     1  UNL1        0.0470
      7  C          7.0870    1.0100   -0.3680 C.2     1  UNL1       -0.0470
      8  C          6.4330    0.0400   -1.0870 C.2     1  UNL1        0.0040
      9  C          8.4090    1.2320   -0.6650 C.2     1  UNL1        0.0040
     10  C          7.0410   -0.7000   -2.0730 C.2     1  UNL1        0.0000
     11  C          9.0490    0.5080   -1.6450 C.2     1  UNL1        0.0000
     12  C          8.3680   -0.4720   -2.3650 C.2     1  UNL1        0.0000
@<TRIPOS>BOND
     1    12    10    2
     2    12    11    1
     3    10     8    1
     4    11     9    2
     5     8     7    2
     6     9     7    1
     7     7     6    1
     8     1     6    1
     9     1     2    1
    10     5     4    1
    11     2     4    1
    12     2     3    2
