@<TRIPOS>MOLECULE
/home/cewinharhar/GITHUB/reincatalyze/data/processed/docking_pred/2023-Apr-25-2140_maxeplen10_maxtrainstep200_exh16_gamma099_lrac3e-4_lrcr1e-3/a991e05863b38587be5f018959c733685726fb49_ligand_2.pdbqt
 12 12 0 0 0
SMALL
GASTEIGER

@<TRIPOS>ATOM
      1  C          8.2580   -1.5670    1.0060 C.3     1  UNL1        0.1270
      2  C          8.5150   -2.8480    0.2980 C.2     1  UNL1        0.3030
      3  O          9.1320   -3.8180    0.8070 O.2     1  UNL1       -0.2520
      4  O          8.0540   -3.0010   -1.0010 O.3     1  UNL1       -0.4810
      5  H          8.3560   -2.2880   -1.6700 H       1  UNL1        0.2960
      6  C          6.7880   -1.4320    1.2770 C.3     1  UNL1        0.0470
      7  C          6.1980   -0.1830    0.8020 C.2     1  UNL1       -0.0470
      8  C          5.4190    0.6380    1.5800 C.2     1  UNL1        0.0040
      9  C          6.4270    0.2070   -0.4940 C.2     1  UNL1        0.0040
     10  C          4.8720    1.8110    1.1170 C.2     1  UNL1        0.0000
     11  C          5.8940    1.3750   -0.9900 C.2     1  UNL1        0.0000
     12  C          5.1060    2.1960   -0.1860 C.2     1  UNL1        0.0000
@<TRIPOS>BOND
     1     5     4    1
     2     4     2    1
     3    11     9    1
     4    11    12    2
     5     9     7    2
     6    12    10    1
     7     2     3    2
     8     2     1    1
     9     7     6    1
    10     7     8    1
    11     1     6    1
    12    10     8    2
