MODEL 1
REMARK VINA RESULT:      -7.4      0.000      0.000
REMARK SMILES O=C(O)CCc1ccccc1
REMARK SMILES IDX 4 1 2 2 1 3 3 4 5 6 6 7 7 8 11 9 8 10 10 11 9 12
REMARK H PARENT 3 5
REMARK Flexibility Score: inf
ROOT
ATOM      1  C   UNL     1       8.450  -0.557  -2.242  1.00  0.00     0.127 C 
ENDROOT
BRANCH   1   2
ATOM      2  C   UNL     1       8.523  -1.878  -2.919  1.00  0.00     0.303 C 
ATOM      3  O   UNL     1       9.590  -2.521  -3.088  1.00  0.00    -0.252 OA
BRANCH   2   4
ATOM      4  O   UNL     1       7.355  -2.451  -3.399  1.00  0.00    -0.481 OA
ATOM      5  H   UNL     1       7.471  -3.263  -4.009  1.00  0.00     0.296 HD
ENDBRANCH   2   4
ENDBRANCH   1   2
BRANCH   1   6
ATOM      6  C   UNL     1       7.018  -0.116  -2.161  1.00  0.00     0.047 C 
BRANCH   6   7
ATOM      7  C   UNL     1       6.500   0.006  -0.800  1.00  0.00    -0.047 A 
ATOM      8  C   UNL     1       6.602  -0.982   0.148  1.00  0.00     0.004 A 
ATOM      9  C   UNL     1       5.870   1.170  -0.433  1.00  0.00     0.004 A 
ATOM     10  C   UNL     1       6.109  -0.850   1.424  1.00  0.00     0.000 A 
ATOM     11  C   UNL     1       5.364   1.335   0.836  1.00  0.00     0.000 A 
ATOM     12  C   UNL     1       5.478   0.321   1.785  1.00  0.00     0.000 A 
ENDBRANCH   6   7
ENDBRANCH   1   6
TORSDOF 4
ENDMDL
MODEL 2
REMARK VINA RESULT:      -7.3      0.064      1.426
REMARK SMILES O=C(O)CCc1ccccc1
REMARK SMILES IDX 4 1 2 2 1 3 3 4 5 6 6 7 7 8 11 9 8 10 10 11 9 12
REMARK H PARENT 3 5
REMARK Flexibility Score: inf
ROOT
ATOM      1  C   UNL     1       8.411  -0.538  -2.261  1.00  0.00     0.127 C 
ENDROOT
BRANCH   1   2
ATOM      2  C   UNL     1       8.496  -1.867  -2.921  1.00  0.00     0.303 C 
ATOM      3  O   UNL     1       9.570  -2.496  -3.096  1.00  0.00    -0.252 OA
BRANCH   2   4
ATOM      4  O   UNL     1       7.331  -2.464  -3.377  1.00  0.00    -0.481 OA
ATOM      5  H   UNL     1       7.396  -3.459  -3.603  1.00  0.00     0.296 HD
ENDBRANCH   2   4
ENDBRANCH   1   2
BRANCH   1   6
ATOM      6  C   UNL     1       6.977  -0.101  -2.199  1.00  0.00     0.047 C 
BRANCH   6   7
ATOM      7  C   UNL     1       6.460   0.083  -0.846  1.00  0.00    -0.047 A 
ATOM      8  C   UNL     1       5.838   1.229  -0.415  1.00  0.00     0.004 A 
ATOM      9  C   UNL     1       6.596  -0.939   0.061  1.00  0.00     0.004 A 
ATOM     10  C   UNL     1       5.357   1.386   0.863  1.00  0.00     0.000 A 
ATOM     11  C   UNL     1       6.127  -0.816   1.348  1.00  0.00     0.000 A 
ATOM     12  C   UNL     1       5.497   0.355   1.767  1.00  0.00     0.000 A 
ENDBRANCH   6   7
ENDBRANCH   1   6
TORSDOF 4
ENDMDL
MODEL 3
REMARK VINA RESULT:      -6.8      3.372      5.062
REMARK SMILES O=C(O)CCc1ccccc1
REMARK SMILES IDX 4 1 2 2 1 3 3 4 5 6 6 7 7 8 11 9 8 10 10 11 9 12
REMARK H PARENT 3 5
REMARK Flexibility Score: inf
ROOT
ATOM      1  C   UNL     1       5.008   1.837   0.715  1.00  0.00     0.127 C 
ENDROOT
BRANCH   1   2
ATOM      2  C   UNL     1       4.508   1.108   1.909  1.00  0.00     0.303 C 
ATOM      3  O   UNL     1       5.138   0.182   2.480  1.00  0.00    -0.252 OA
BRANCH   2   4
ATOM      4  O   UNL     1       3.275   1.457   2.441  1.00  0.00    -0.481 OA
ATOM      5  H   UNL     1       2.973   0.924   3.259  1.00  0.00     0.296 HD
ENDBRANCH   2   4
ENDBRANCH   1   2
BRANCH   1   6
ATOM      6  C   UNL     1       6.508   1.830   0.717  1.00  0.00     0.047 C 
BRANCH   6   7
ATOM      7  C   UNL     1       7.110   1.036  -0.351  1.00  0.00    -0.047 A 
ATOM      8  C   UNL     1       6.428   0.092  -1.079  1.00  0.00     0.004 A 
ATOM      9  C   UNL     1       8.434   1.232  -0.656  1.00  0.00     0.004 A 
ATOM     10  C   UNL     1       7.010  -0.647  -2.081  1.00  0.00     0.000 A 
ATOM     11  C   UNL     1       9.049   0.509  -1.653  1.00  0.00     0.000 A 
ATOM     12  C   UNL     1       8.340  -0.445  -2.381  1.00  0.00     0.000 A 
ENDBRANCH   6   7
ENDBRANCH   1   6
TORSDOF 4
ENDMDL
MODEL 4
REMARK VINA RESULT:      -6.7      1.944      2.652
REMARK SMILES O=C(O)CCc1ccccc1
REMARK SMILES IDX 4 1 2 2 1 3 3 4 5 6 6 7 7 8 11 9 8 10 10 11 9 12
REMARK H PARENT 3 5
REMARK Flexibility Score: inf
ROOT
ATOM      1  C   UNL     1       8.271   0.206  -2.205  1.00  0.00     0.127 C 
ENDROOT
BRANCH   1   2
ATOM      2  C   UNL     1       9.388   0.347  -1.235  1.00  0.00     0.303 C 
ATOM      3  O   UNL     1       9.509  -0.354  -0.198  1.00  0.00    -0.252 OA
BRANCH   2   4
ATOM      4  O   UNL     1      10.364   1.304  -1.470  1.00  0.00    -0.481 OA
ATOM      5  H   UNL     1      10.446   1.633  -2.435  1.00  0.00     0.296 HD
ENDBRANCH   2   4
ENDBRANCH   1   2
BRANCH   1   6
ATOM      6  C   UNL     1       7.136  -0.531  -1.557  1.00  0.00     0.047 C 
BRANCH   6   7
ATOM      7  C   UNL     1       6.356   0.268  -0.616  1.00  0.00    -0.047 A 
ATOM      8  C   UNL     1       5.799   1.485  -0.925  1.00  0.00     0.004 A 
ATOM      9  C   UNL     1       6.158  -0.210   0.655  1.00  0.00     0.004 A 
ATOM     10  C   UNL     1       5.067   2.225  -0.028  1.00  0.00     0.000 A 
ATOM     11  C   UNL     1       5.432   0.504   1.580  1.00  0.00     0.000 A 
ATOM     12  C   UNL     1       4.874   1.738   1.247  1.00  0.00     0.000 A 
ENDBRANCH   6   7
ENDBRANCH   1   6
TORSDOF 4
ENDMDL
MODEL 5
REMARK VINA RESULT:      -6.5      1.886      2.860
REMARK SMILES O=C(O)CCc1ccccc1
REMARK SMILES IDX 4 1 2 2 1 3 3 4 5 6 6 7 7 8 11 9 8 10 10 11 9 12
REMARK H PARENT 3 5
REMARK Flexibility Score: inf
ROOT
ATOM      1  C   UNL     1       8.258  -1.567   1.006  1.00  0.00     0.127 C 
ENDROOT
BRANCH   1   2
ATOM      2  C   UNL     1       8.515  -2.848   0.298  1.00  0.00     0.303 C 
ATOM      3  O   UNL     1       9.132  -3.818   0.807  1.00  0.00    -0.252 OA
BRANCH   2   4
ATOM      4  O   UNL     1       8.054  -3.001  -1.001  1.00  0.00    -0.481 OA
ATOM      5  H   UNL     1       8.356  -2.288  -1.670  1.00  0.00     0.296 HD
ENDBRANCH   2   4
ENDBRANCH   1   2
BRANCH   1   6
ATOM      6  C   UNL     1       6.788  -1.432   1.277  1.00  0.00     0.047 C 
BRANCH   6   7
ATOM      7  C   UNL     1       6.198  -0.183   0.802  1.00  0.00    -0.047 A 
ATOM      8  C   UNL     1       5.419   0.638   1.580  1.00  0.00     0.004 A 
ATOM      9  C   UNL     1       6.427   0.207  -0.494  1.00  0.00     0.004 A 
ATOM     10  C   UNL     1       4.872   1.811   1.117  1.00  0.00     0.000 A 
ATOM     11  C   UNL     1       5.894   1.375  -0.990  1.00  0.00     0.000 A 
ATOM     12  C   UNL     1       5.106   2.196  -0.186  1.00  0.00     0.000 A 
ENDBRANCH   6   7
ENDBRANCH   1   6
TORSDOF 4
ENDMDL
