@<TRIPOS>MOLECULE
/home/cewinharhar/GITHUB/reincatalyze/data/processed/docking_pred/2023-Apr-25-2140_maxeplen10_maxtrainstep200_exh16_gamma099_lrac3e-4_lrcr1e-3/a991e05863b38587be5f018959c733685726fb49_ligand_2.pdbqt
 12 12 0 0 0
SMALL
GASTEIGER

@<TRIPOS>ATOM
      1  C          8.4110   -0.5380   -2.2610 C.3     1  UNL1        0.1270
      2  C          8.4960   -1.8670   -2.9210 C.2     1  UNL1        0.3030
      3  O          9.5700   -2.4960   -3.0960 O.2     1  UNL1       -0.2520
      4  O          7.3310   -2.4640   -3.3770 O.3     1  UNL1       -0.4810
      5  H          7.3960   -3.4590   -3.6030 H       1  UNL1        0.2960
      6  C          6.9770   -0.1010   -2.1990 C.3     1  UNL1        0.0470
      7  C          6.4600    0.0830   -0.8460 C.2     1  UNL1       -0.0470
      8  C          5.8380    1.2290   -0.4150 C.2     1  UNL1        0.0040
      9  C          6.5960   -0.9390    0.0610 C.2     1  UNL1        0.0040
     10  C          5.3570    1.3860    0.8630 C.2     1  UNL1        0.0000
     11  C          6.1270   -0.8160    1.3480 C.2     1  UNL1        0.0000
     12  C          5.4970    0.3550    1.7670 C.2     1  UNL1        0.0000
@<TRIPOS>BOND
     1     5     4    1
     2     4     2    1
     3     3     2    2
     4     2     1    1
     5     1     6    1
     6     6     7    1
     7     7     8    2
     8     7     9    1
     9     8    10    1
    10     9    11    2
    11    10    12    2
    12    11    12    1
