@<TRIPOS>MOLECULE
/home/cewinharhar/GITHUB/reincatalyze/data/processed/docking_pred/2023-Apr-25-2140_maxeplen10_maxtrainstep200_exh16_gamma099_lrac3e-4_lrcr1e-3/a991e05863b38587be5f018959c733685726fb49_ligand_2.pdbqt
 12 12 0 0 0
SMALL
GASTEIGER

@<TRIPOS>ATOM
      1  C          5.0080    1.8370    0.7150 C.3     1  UNL1        0.1270
      2  C          4.5080    1.1080    1.9090 C.2     1  UNL1        0.3030
      3  O          5.1380    0.1820    2.4800 O.2     1  UNL1       -0.2520
      4  O          3.2750    1.4570    2.4410 O.3     1  UNL1       -0.4810
      5  H          2.9730    0.9240    3.2590 H       1  UNL1        0.2960
      6  C          6.5080    1.8300    0.7170 C.3     1  UNL1        0.0470
      7  C          7.1100    1.0360   -0.3510 C.2     1  UNL1       -0.0470
      8  C          6.4280    0.0920   -1.0790 C.2     1  UNL1        0.0040
      9  C          8.4340    1.2320   -0.6560 C.2     1  UNL1        0.0040
     10  C          7.0100   -0.6470   -2.0810 C.2     1  UNL1        0.0000
     11  C          9.0490    0.5090   -1.6530 C.2     1  UNL1        0.0000
     12  C          8.3400   -0.4450   -2.3810 C.2     1  UNL1        0.0000
@<TRIPOS>BOND
     1    12    10    2
     2    12    11    1
     3    10     8    1
     4    11     9    2
     5     8     7    2
     6     9     7    1
     7     7     6    1
     8     1     6    1
     9     1     2    1
    10     2     4    1
    11     2     3    2
    12     4     5    1
