@<TRIPOS>MOLECULE
/home/cewinharhar/GITHUB/reincatalyze/data/processed/docking_pred/2023-Apr-25-2140_maxeplen10_maxtrainstep200_exh16_gamma099_lrac3e-4_lrcr1e-3/a991e05863b38587be5f018959c733685726fb49_ligand_2.pdbqt
 12 12 0 0 0
SMALL
GASTEIGER

@<TRIPOS>ATOM
      1  C          8.2710    0.2060   -2.2050 C.3     1  UNL1        0.1270
      2  C          9.3880    0.3470   -1.2350 C.2     1  UNL1        0.3030
      3  O          9.5090   -0.3540   -0.1980 O.2     1  UNL1       -0.2520
      4  O         10.3640    1.3040   -1.4700 O.3     1  UNL1       -0.4810
      5  H         10.4460    1.6330   -2.4350 H       1  UNL1        0.2960
      6  C          7.1360   -0.5310   -1.5570 C.3     1  UNL1        0.0470
      7  C          6.3560    0.2680   -0.6160 C.2     1  UNL1       -0.0470
      8  C          5.7990    1.4850   -0.9250 C.2     1  UNL1        0.0040
      9  C          6.1580   -0.2100    0.6550 C.2     1  UNL1        0.0040
     10  C          5.0670    2.2250   -0.0280 C.2     1  UNL1        0.0000
     11  C          5.4320    0.5040    1.5800 C.2     1  UNL1        0.0000
     12  C          4.8740    1.7380    1.2470 C.2     1  UNL1        0.0000
@<TRIPOS>BOND
     1     5     4    1
     2     1     6    1
     3     1     2    1
     4     6     7    1
     5     4     2    1
     6     2     3    2
     7     8     7    2
     8     8    10    1
     9     7     9    1
    10    10    12    2
    11     9    11    2
    12    12    11    1
