@<TRIPOS>MOLECULE
/home/cewinharhar/GITHUB/reincatalyze/data/processed/docking_pred/2023-Apr-25-2140_maxeplen10_maxtrainstep200_exh16_gamma099_lrac3e-4_lrcr1e-3/a991e05863b38587be5f018959c733685726fb49_ligand_2.pdbqt
 12 12 0 0 0
SMALL
GASTEIGER

@<TRIPOS>ATOM
      1  C          8.4500   -0.5570   -2.2420 C.3     1  UNL1        0.1270
      2  C          8.5230   -1.8780   -2.9190 C.2     1  UNL1        0.3030
      3  O          9.5900   -2.5210   -3.0880 O.2     1  UNL1       -0.2520
      4  O          7.3550   -2.4510   -3.3990 O.3     1  UNL1       -0.4810
      5  H          7.4710   -3.2630   -4.0090 H       1  UNL1        0.2960
      6  C          7.0180   -0.1160   -2.1610 C.3     1  UNL1        0.0470
      7  C          6.5000    0.0060   -0.8000 C.2     1  UNL1       -0.0470
      8  C          6.6020   -0.9820    0.1480 C.2     1  UNL1        0.0040
      9  C          5.8700    1.1700   -0.4330 C.2     1  UNL1        0.0040
     10  C          6.1090   -0.8500    1.4240 C.2     1  UNL1        0.0000
     11  C          5.3640    1.3350    0.8360 C.2     1  UNL1        0.0000
     12  C          5.4780    0.3210    1.7850 C.2     1  UNL1        0.0000
@<TRIPOS>BOND
     1     5     4    1
     2     4     2    1
     3     3     2    2
     4     2     1    1
     5     1     6    1
     6     6     7    1
     7     7     9    2
     8     7     8    1
     9     9    11    1
    10     8    10    2
    11    11    12    2
    12    10    12    1
