@<TRIPOS>MOLECULE
/home/cewinharhar/GITHUB/reincatalyze/data/processed/docking_pred/2023-Apr-25-2140_maxeplen10_maxtrainstep200_exh16_gamma099_lrac3e-4_lrcr1e-3/ab955c776f37f5544fae82246801d9a2769dfb79_ligand_2.pdbqt
 12 12 0 0 0
SMALL
GASTEIGER

@<TRIPOS>ATOM
      1  C          8.4500   -0.6180   -2.1530 C.3     1  UNL1        0.1270
      2  C          8.5160   -1.8990   -2.9030 C.2     1  UNL1        0.3030
      3  O          9.5800   -2.5340   -3.1140 O.2     1  UNL1       -0.2520
      4  O          7.3430   -2.4430   -3.4060 O.3     1  UNL1       -0.4810
      5  H          6.5010   -1.8730   -3.2950 H       1  UNL1        0.2960
      6  C          7.0360   -0.1170   -2.1430 C.3     1  UNL1        0.0470
      7  C          6.4750    0.0850   -0.8090 C.2     1  UNL1       -0.0470
      8  C          5.8320    1.2320   -0.4160 C.2     1  UNL1        0.0040
      9  C          6.5910   -0.9220    0.1170 C.2     1  UNL1        0.0040
     10  C          5.3100    1.4050    0.8440 C.2     1  UNL1        0.0000
     11  C          6.0820   -0.7830    1.3870 C.2     1  UNL1        0.0000
     12  C          5.4310    0.3890    1.7680 C.2     1  UNL1        0.0000
@<TRIPOS>BOND
     1     4     5    1
     2     4     2    1
     3     3     2    2
     4     2     1    1
     5     1     6    1
     6     6     7    1
     7     7     8    2
     8     7     9    1
     9     8    10    1
    10     9    11    2
    11    10    12    2
    12    11    12    1
