@<TRIPOS>MOLECULE
/home/cewinharhar/GITHUB/reincatalyze/data/processed/docking_pred/2023-Apr-25-2140_maxeplen10_maxtrainstep200_exh16_gamma099_lrac3e-4_lrcr1e-3/ab955c776f37f5544fae82246801d9a2769dfb79_ligand_2.pdbqt
 12 12 0 0 0
SMALL
GASTEIGER

@<TRIPOS>ATOM
      1  C          5.4410    2.8380    0.0610 C.3     1  UNL1        0.1270
      2  C          6.2260    3.7840    0.8950 C.2     1  UNL1        0.3030
      3  O          6.2630    3.7470    2.1510 O.2     1  UNL1       -0.2520
      4  O          6.9690    4.7730    0.2690 O.3     1  UNL1       -0.4810
      5  H          6.4590    5.6200    0.0070 H       1  UNL1        0.2960
      6  C          4.9190    1.7260    0.9230 C.3     1  UNL1        0.0470
      7  C          5.7590    0.5310    0.9420 C.2     1  UNL1       -0.0470
      8  C          6.6050    0.1760   -0.0800 C.2     1  UNL1        0.0040
      9  C          5.7110   -0.2950    2.0370 C.2     1  UNL1        0.0040
     10  C          7.3890   -0.9530   -0.0460 C.2     1  UNL1        0.0000
     11  C          6.4810   -1.4330    2.1040 C.2     1  UNL1        0.0000
     12  C          7.3340   -1.7770    1.0570 C.2     1  UNL1        0.0000
@<TRIPOS>BOND
     1     8    10    1
     2     8     7    2
     3    10    12    2
     4     5     4    1
     5     1     2    1
     6     1     6    1
     7     4     2    1
     8     2     3    2
     9     6     7    1
    10     7     9    1
    11    12    11    1
    12     9    11    2
