@<TRIPOS>MOLECULE
/home/cewinharhar/GITHUB/reincatalyze/data/processed/docking_pred/2023-Apr-25-2140_maxeplen10_maxtrainstep200_exh16_gamma099_lrac3e-4_lrcr1e-3/ab955c776f37f5544fae82246801d9a2769dfb79_ligand_2.pdbqt
 12 12 0 0 0
SMALL
GASTEIGER

@<TRIPOS>ATOM
      1  C          8.4360   -0.6220   -2.1450 C.3     1  UNL1        0.1270
      2  C          8.4960   -1.9050   -2.8930 C.2     1  UNL1        0.3030
      3  O          9.5580   -2.5430   -3.1070 O.2     1  UNL1       -0.2520
      4  O          7.3210   -2.4460   -3.3920 O.3     1  UNL1       -0.4810
      5  H          6.6860   -1.7900   -3.8540 H       1  UNL1        0.2960
      6  C          7.0140   -0.1490   -2.0780 C.3     1  UNL1        0.0470
      7  C          6.4800   -0.0290   -0.7240 C.2     1  UNL1       -0.0470
      8  C          6.5660   -1.0210    0.2220 C.2     1  UNL1        0.0040
      9  C          5.8520    1.1360   -0.3600 C.2     1  UNL1        0.0040
     10  C          6.0580   -0.8920    1.4920 C.2     1  UNL1        0.0000
     11  C          5.3310    1.2990    0.9030 C.2     1  UNL1        0.0000
     12  C          5.4280    0.2800    1.8500 C.2     1  UNL1        0.0000
@<TRIPOS>BOND
     1     5     4    1
     2     4     2    1
     3     3     2    2
     4     2     1    1
     5     1     6    1
     6     6     7    1
     7     7     9    2
     8     7     8    1
     9     9    11    1
    10     8    10    2
    11    11    12    2
    12    10    12    1
