@<TRIPOS>MOLECULE
/home/cewinharhar/GITHUB/reincatalyze/data/processed/docking_pred/2023-Apr-25-2140_maxeplen10_maxtrainstep200_exh16_gamma099_lrac3e-4_lrcr1e-3/ab955c776f37f5544fae82246801d9a2769dfb79_ligand_2.pdbqt
 12 12 0 0 0
SMALL
GASTEIGER

@<TRIPOS>ATOM
      1  C          8.2310    0.2600   -2.1130 C.3     1  UNL1        0.1270
      2  C          9.3870    0.3670   -1.1850 C.2     1  UNL1        0.3030
      3  O          9.5330   -0.3490   -0.1620 O.2     1  UNL1       -0.2520
      4  O         10.3720    1.3060   -1.4480 O.3     1  UNL1       -0.4810
      5  H         10.5970    1.9460   -0.6820 H       1  UNL1        0.2960
      6  C          7.1550   -0.5710   -1.4770 C.3     1  UNL1        0.0470
      7  C          6.3760    0.1270   -0.4570 C.2     1  UNL1       -0.0470
      8  C          5.7920    1.3550   -0.6490 C.2     1  UNL1        0.0040
      9  C          6.2100   -0.4650    0.7700 C.2     1  UNL1        0.0040
     10  C          5.0630    1.9980    0.3220 C.2     1  UNL1        0.0000
     11  C          5.4870    0.1510    1.7650 C.2     1  UNL1        0.0000
     12  C          4.9010    1.3970    1.5520 C.2     1  UNL1        0.0000
@<TRIPOS>BOND
     1     1     6    1
     2     1     2    1
     3     6     7    1
     4     4     2    1
     5     4     5    1
     6     2     3    2
     7     8     7    2
     8     8    10    1
     9     7     9    1
    10    10    12    2
    11     9    11    2
    12    12    11    1
