@<TRIPOS>MOLECULE
/home/cewinharhar/GITHUB/reincatalyze/data/processed/docking_pred/2023-Apr-25-2140_maxeplen10_maxtrainstep200_exh16_gamma099_lrac3e-4_lrcr1e-3/ada201db5b439d74c350b173ce56903753062bb1_ligand_2.pdbqt
 12 12 0 0 0
SMALL
GASTEIGER

@<TRIPOS>ATOM
      1  C          5.0180    1.8010    0.6880 C.3     1  UNL1        0.1270
      2  C          4.5140    1.1080    1.9020 C.2     1  UNL1        0.3030
      3  O          5.1420    0.1980    2.5010 O.2     1  UNL1       -0.2520
      4  O          3.2820    1.4750    2.4210 O.3     1  UNL1       -0.4810
      5  H          2.5110    0.8270    2.2440 H       1  UNL1        0.2960
      6  C          6.5180    1.8370    0.7180 C.3     1  UNL1        0.0470
      7  C          7.1610    1.0770   -0.3510 C.2     1  UNL1       -0.0470
      8  C          8.4910    1.1900   -0.6750 C.2     1  UNL1        0.0040
      9  C          6.4070    0.1950   -1.0830 C.2     1  UNL1        0.0040
     10  C          9.0810    0.4670   -1.6840 C.2     1  UNL1        0.0000
     11  C          6.9640   -0.5440   -2.1010 C.2     1  UNL1        0.0000
     12  C          8.3160   -0.4160   -2.4150 C.2     1  UNL1        0.0000
@<TRIPOS>BOND
     1    12    11    2
     2    12    10    1
     3    11     9    1
     4    10     8    2
     5     9     7    2
     6     8     7    1
     7     7     6    1
     8     1     6    1
     9     1     2    1
    10     2     4    1
    11     2     3    2
    12     5     4    1
