MODEL 1
REMARK VINA RESULT:      -7.4      0.000      0.000
REMARK SMILES O=C(O)CCc1ccccc1
REMARK SMILES IDX 4 1 2 2 1 3 3 4 5 6 6 7 7 8 11 9 8 10 10 11 9 12
REMARK H PARENT 3 5
REMARK Flexibility Score: inf
ROOT
ATOM      1  C   UNL     1       8.445  -0.590  -2.182  1.00  0.00     0.127 C 
ENDROOT
BRANCH   1   2
ATOM      2  C   UNL     1       8.508  -1.901  -2.880  1.00  0.00     0.303 C 
ATOM      3  O   UNL     1       9.566  -2.561  -3.039  1.00  0.00    -0.252 OA
BRANCH   2   4
ATOM      4  O   UNL     1       7.339  -2.445  -3.391  1.00  0.00    -0.481 OA
ATOM      5  H   UNL     1       6.476  -2.190  -2.906  1.00  0.00     0.296 HD
ENDBRANCH   2   4
ENDBRANCH   1   2
BRANCH   1   6
ATOM      6  C   UNL     1       7.022  -0.119  -2.132  1.00  0.00     0.047 C 
BRANCH   6   7
ATOM      7  C   UNL     1       6.483   0.035  -0.783  1.00  0.00    -0.047 A 
ATOM      8  C   UNL     1       6.565  -0.933   0.187  1.00  0.00     0.004 A 
ATOM      9  C   UNL     1       5.856   1.210  -0.450  1.00  0.00     0.004 A 
ATOM     10  C   UNL     1       6.053  -0.772   1.453  1.00  0.00     0.000 A 
ATOM     11  C   UNL     1       5.331   1.405   0.807  1.00  0.00     0.000 A 
ATOM     12  C   UNL     1       5.424   0.411   1.779  1.00  0.00     0.000 A 
ENDBRANCH   6   7
ENDBRANCH   1   6
TORSDOF 4
ENDMDL
MODEL 2
REMARK VINA RESULT:      -7.4      0.070      1.426
REMARK SMILES O=C(O)CCc1ccccc1
REMARK SMILES IDX 4 1 2 2 1 3 3 4 5 6 6 7 7 8 11 9 8 10 10 11 9 12
REMARK H PARENT 3 5
REMARK Flexibility Score: inf
ROOT
ATOM      1  C   UNL     1       8.445  -0.575  -2.216  1.00  0.00     0.127 C 
ENDROOT
BRANCH   1   2
ATOM      2  C   UNL     1       8.519  -1.885  -2.914  1.00  0.00     0.303 C 
ATOM      3  O   UNL     1       9.586  -2.525  -3.091  1.00  0.00    -0.252 OA
BRANCH   2   4
ATOM      4  O   UNL     1       7.352  -2.450  -3.405  1.00  0.00    -0.481 OA
ATOM      5  H   UNL     1       7.441  -3.387  -3.804  1.00  0.00     0.296 HD
ENDBRANCH   2   4
ENDBRANCH   1   2
BRANCH   1   6
ATOM      6  C   UNL     1       7.021  -0.103  -2.190  1.00  0.00     0.047 C 
BRANCH   6   7
ATOM      7  C   UNL     1       6.476   0.100  -0.850  1.00  0.00    -0.047 A 
ATOM      8  C   UNL     1       5.826   1.243  -0.454  1.00  0.00     0.004 A 
ATOM      9  C   UNL     1       6.614  -0.900   0.080  1.00  0.00     0.004 A 
ATOM     10  C   UNL     1       5.319   1.418   0.812  1.00  0.00     0.000 A 
ATOM     11  C   UNL     1       6.120  -0.759   1.356  1.00  0.00     0.000 A 
ATOM     12  C   UNL     1       5.463   0.409   1.740  1.00  0.00     0.000 A 
ENDBRANCH   6   7
ENDBRANCH   1   6
TORSDOF 4
ENDMDL
MODEL 3
REMARK VINA RESULT:      -6.8      3.366      5.079
REMARK SMILES O=C(O)CCc1ccccc1
REMARK SMILES IDX 4 1 2 2 1 3 3 4 5 6 6 7 7 8 11 9 8 10 10 11 9 12
REMARK H PARENT 3 5
REMARK Flexibility Score: inf
ROOT
ATOM      1  C   UNL     1       5.018   1.801   0.688  1.00  0.00     0.127 C 
ENDROOT
BRANCH   1   2
ATOM      2  C   UNL     1       4.514   1.108   1.902  1.00  0.00     0.303 C 
ATOM      3  O   UNL     1       5.142   0.198   2.501  1.00  0.00    -0.252 OA
BRANCH   2   4
ATOM      4  O   UNL     1       3.282   1.475   2.421  1.00  0.00    -0.481 OA
ATOM      5  H   UNL     1       2.511   0.827   2.244  1.00  0.00     0.296 HD
ENDBRANCH   2   4
ENDBRANCH   1   2
BRANCH   1   6
ATOM      6  C   UNL     1       6.518   1.837   0.718  1.00  0.00     0.047 C 
BRANCH   6   7
ATOM      7  C   UNL     1       7.161   1.077  -0.351  1.00  0.00    -0.047 A 
ATOM      8  C   UNL     1       8.491   1.190  -0.675  1.00  0.00     0.004 A 
ATOM      9  C   UNL     1       6.407   0.195  -1.083  1.00  0.00     0.004 A 
ATOM     10  C   UNL     1       9.081   0.467  -1.684  1.00  0.00     0.000 A 
ATOM     11  C   UNL     1       6.964  -0.544  -2.101  1.00  0.00     0.000 A 
ATOM     12  C   UNL     1       8.316  -0.416  -2.415  1.00  0.00     0.000 A 
ENDBRANCH   6   7
ENDBRANCH   1   6
TORSDOF 4
ENDMDL
MODEL 4
REMARK VINA RESULT:      -6.7      3.840      4.980
REMARK SMILES O=C(O)CCc1ccccc1
REMARK SMILES IDX 4 1 2 2 1 3 3 4 5 6 6 7 7 8 11 9 8 10 10 11 9 12
REMARK H PARENT 3 5
REMARK Flexibility Score: inf
ROOT
ATOM      1  C   UNL     1       5.438   2.869  -0.008  1.00  0.00     0.127 C 
ENDROOT
BRANCH   1   2
ATOM      2  C   UNL     1       6.243   3.843   0.775  1.00  0.00     0.303 C 
ATOM      3  O   UNL     1       6.913   4.773   0.259  1.00  0.00    -0.252 OA
BRANCH   2   4
ATOM      4  O   UNL     1       6.267   3.735   2.157  1.00  0.00    -0.481 OA
ATOM      5  H   UNL     1       5.756   4.456   2.672  1.00  0.00     0.296 HD
ENDBRANCH   2   4
ENDBRANCH   1   2
BRANCH   1   6
ATOM      6  C   UNL     1       4.917   1.801   0.909  1.00  0.00     0.047 C 
BRANCH   6   7
ATOM      7  C   UNL     1       5.718   0.579   0.928  1.00  0.00    -0.047 A 
ATOM      8  C   UNL     1       6.487   0.152  -0.127  1.00  0.00     0.004 A 
ATOM      9  C   UNL     1       5.712  -0.199   2.060  1.00  0.00     0.004 A 
ATOM     10  C   UNL     1       7.234  -1.001  -0.091  1.00  0.00     0.000 A 
ATOM     11  C   UNL     1       6.448  -1.359   2.130  1.00  0.00     0.000 A 
ATOM     12  C   UNL     1       7.223  -1.776   1.049  1.00  0.00     0.000 A 
ENDBRANCH   6   7
ENDBRANCH   1   6
TORSDOF 4
ENDMDL
MODEL 5
REMARK VINA RESULT:      -6.5      2.082      2.735
REMARK SMILES O=C(O)CCc1ccccc1
REMARK SMILES IDX 4 1 2 2 1 3 3 4 5 6 6 7 7 8 11 9 8 10 10 11 9 12
REMARK H PARENT 3 5
REMARK Flexibility Score: inf
ROOT
ATOM      1  C   UNL     1       8.521   0.684  -1.699  1.00  0.00     0.127 C 
ENDROOT
BRANCH   1   2
ATOM      2  C   UNL     1       9.644   0.284  -0.811  1.00  0.00     0.303 C 
ATOM      3  O   UNL     1       9.522  -0.500   0.163  1.00  0.00    -0.252 OA
BRANCH   2   4
ATOM      4  O   UNL     1      10.909   0.797  -1.058  1.00  0.00    -0.481 OA
ATOM      5  H   UNL     1      11.640   0.110  -1.255  1.00  0.00     0.296 HD
ENDBRANCH   2   4
ENDBRANCH   1   2
BRANCH   1   6
ATOM      6  C   UNL     1       7.321  -0.166  -1.400  1.00  0.00     0.047 C 
BRANCH   6   7
ATOM      7  C   UNL     1       6.420   0.393  -0.395  1.00  0.00    -0.047 A 
ATOM      8  C   UNL     1       5.760   1.589  -0.541  1.00  0.00     0.004 A 
ATOM      9  C   UNL     1       6.211  -0.305   0.769  1.00  0.00     0.004 A 
ATOM     10  C   UNL     1       4.915   2.100   0.416  1.00  0.00     0.000 A 
ATOM     11  C   UNL     1       5.373   0.178   1.747  1.00  0.00     0.000 A 
ATOM     12  C   UNL     1       4.711   1.394   1.581  1.00  0.00     0.000 A 
ENDBRANCH   6   7
ENDBRANCH   1   6
TORSDOF 4
ENDMDL
