@<TRIPOS>MOLECULE
/home/cewinharhar/GITHUB/reincatalyze/data/processed/docking_pred/2023-Apr-25-2140_maxeplen10_maxtrainstep200_exh16_gamma099_lrac3e-4_lrcr1e-3/ada201db5b439d74c350b173ce56903753062bb1_ligand_2.pdbqt
 12 12 0 0 0
SMALL
GASTEIGER

@<TRIPOS>ATOM
      1  C          8.5210    0.6840   -1.6990 C.3     1  UNL1        0.1270
      2  C          9.6440    0.2840   -0.8110 C.2     1  UNL1        0.3030
      3  O          9.5220   -0.5000    0.1630 O.2     1  UNL1       -0.2520
      4  O         10.9090    0.7970   -1.0580 O.3     1  UNL1       -0.4810
      5  H         11.6400    0.1100   -1.2550 H       1  UNL1        0.2960
      6  C          7.3210   -0.1660   -1.4000 C.3     1  UNL1        0.0470
      7  C          6.4200    0.3930   -0.3950 C.2     1  UNL1       -0.0470
      8  C          5.7600    1.5890   -0.5410 C.2     1  UNL1        0.0040
      9  C          6.2110   -0.3050    0.7690 C.2     1  UNL1        0.0040
     10  C          4.9150    2.1000    0.4160 C.2     1  UNL1        0.0000
     11  C          5.3730    0.1780    1.7470 C.2     1  UNL1        0.0000
     12  C          4.7110    1.3940    1.5810 C.2     1  UNL1        0.0000
@<TRIPOS>BOND
     1     1     6    1
     2     1     2    1
     3     6     7    1
     4     5     4    1
     5     4     2    1
     6     2     3    2
     7     8     7    2
     8     8    10    1
     9     7     9    1
    10    10    12    2
    11     9    11    2
    12    12    11    1
