@<TRIPOS>MOLECULE
/home/cewinharhar/GITHUB/reincatalyze/data/processed/docking_pred/2023-Apr-25-2140_maxeplen10_maxtrainstep200_exh16_gamma099_lrac3e-4_lrcr1e-3/ada201db5b439d74c350b173ce56903753062bb1_ligand_2.pdbqt
 12 12 0 0 0
SMALL
GASTEIGER

@<TRIPOS>ATOM
      1  C          8.4450   -0.5750   -2.2160 C.3     1  UNL1        0.1270
      2  C          8.5190   -1.8850   -2.9140 C.2     1  UNL1        0.3030
      3  O          9.5860   -2.5250   -3.0910 O.2     1  UNL1       -0.2520
      4  O          7.3520   -2.4500   -3.4050 O.3     1  UNL1       -0.4810
      5  H          7.4410   -3.3870   -3.8040 H       1  UNL1        0.2960
      6  C          7.0210   -0.1030   -2.1900 C.3     1  UNL1        0.0470
      7  C          6.4760    0.1000   -0.8500 C.2     1  UNL1       -0.0470
      8  C          5.8260    1.2430   -0.4540 C.2     1  UNL1        0.0040
      9  C          6.6140   -0.9000    0.0800 C.2     1  UNL1        0.0040
     10  C          5.3190    1.4180    0.8120 C.2     1  UNL1        0.0000
     11  C          6.1200   -0.7590    1.3560 C.2     1  UNL1        0.0000
     12  C          5.4630    0.4090    1.7400 C.2     1  UNL1        0.0000
@<TRIPOS>BOND
     1     5     4    1
     2     4     2    1
     3     3     2    2
     4     2     1    1
     5     1     6    1
     6     6     7    1
     7     7     8    2
     8     7     9    1
     9     8    10    1
    10     9    11    2
    11    10    12    2
    12    11    12    1
