@<TRIPOS>MOLECULE
/home/cewinharhar/GITHUB/reincatalyze/data/processed/docking_pred/2023-Apr-25-2140_maxeplen10_maxtrainstep200_exh16_gamma099_lrac3e-4_lrcr1e-3/ada201db5b439d74c350b173ce56903753062bb1_ligand_2.pdbqt
 12 12 0 0 0
SMALL
GASTEIGER

@<TRIPOS>ATOM
      1  C          8.4450   -0.5900   -2.1820 C.3     1  UNL1        0.1270
      2  C          8.5080   -1.9010   -2.8800 C.2     1  UNL1        0.3030
      3  O          9.5660   -2.5610   -3.0390 O.2     1  UNL1       -0.2520
      4  O          7.3390   -2.4450   -3.3910 O.3     1  UNL1       -0.4810
      5  H          6.4760   -2.1900   -2.9060 H       1  UNL1        0.2960
      6  C          7.0220   -0.1190   -2.1320 C.3     1  UNL1        0.0470
      7  C          6.4830    0.0350   -0.7830 C.2     1  UNL1       -0.0470
      8  C          6.5650   -0.9330    0.1870 C.2     1  UNL1        0.0040
      9  C          5.8560    1.2100   -0.4500 C.2     1  UNL1        0.0040
     10  C          6.0530   -0.7720    1.4530 C.2     1  UNL1        0.0000
     11  C          5.3310    1.4050    0.8070 C.2     1  UNL1        0.0000
     12  C          5.4240    0.4110    1.7790 C.2     1  UNL1        0.0000
@<TRIPOS>BOND
     1     4     5    1
     2     4     2    1
     3     3     2    2
     4     2     1    1
     5     1     6    1
     6     6     7    1
     7     7     9    2
     8     7     8    1
     9     9    11    1
    10     8    10    2
    11    11    12    2
    12    10    12    1
