@<TRIPOS>MOLECULE
/home/cewinharhar/GITHUB/reincatalyze/data/processed/docking_pred/2023-Apr-25-2140_maxeplen10_maxtrainstep200_exh16_gamma099_lrac3e-4_lrcr1e-3/ada201db5b439d74c350b173ce56903753062bb1_ligand_2.pdbqt
 12 12 0 0 0
SMALL
GASTEIGER

@<TRIPOS>ATOM
      1  C          5.4380    2.8690   -0.0080 C.3     1  UNL1        0.1270
      2  C          6.2430    3.8430    0.7750 C.2     1  UNL1        0.3030
      3  O          6.9130    4.7730    0.2590 O.2     1  UNL1       -0.2520
      4  O          6.2670    3.7350    2.1570 O.3     1  UNL1       -0.4810
      5  H          5.7560    4.4560    2.6720 H       1  UNL1        0.2960
      6  C          4.9170    1.8010    0.9090 C.3     1  UNL1        0.0470
      7  C          5.7180    0.5790    0.9280 C.2     1  UNL1       -0.0470
      8  C          6.4870    0.1520   -0.1270 C.2     1  UNL1        0.0040
      9  C          5.7120   -0.1990    2.0600 C.2     1  UNL1        0.0040
     10  C          7.2340   -1.0010   -0.0910 C.2     1  UNL1        0.0000
     11  C          6.4480   -1.3590    2.1300 C.2     1  UNL1        0.0000
     12  C          7.2230   -1.7760    1.0490 C.2     1  UNL1        0.0000
@<TRIPOS>BOND
     1     8    10    1
     2     8     7    2
     3    10    12    2
     4     1     2    1
     5     1     6    1
     6     3     2    2
     7     2     4    1
     8     6     7    1
     9     7     9    1
    10    12    11    1
    11     9    11    2
    12     4     5    1
