@<TRIPOS>MOLECULE
/home/cewinharhar/GITHUB/reincatalyze/data/processed/docking_pred/2023-Apr-25-2140_maxeplen10_maxtrainstep200_exh16_gamma099_lrac3e-4_lrcr1e-3/ae62664a3c9eef67376bdc077c2faa7ac5a69a78_ligand_2.pdbqt
 12 12 0 0 0
SMALL
GASTEIGER

@<TRIPOS>ATOM
      1  C          8.2820    0.2780   -2.3010 C.3     1  UNL1        0.1270
      2  C          9.3740    0.3740   -1.2980 C.2     1  UNL1        0.3030
      3  O          9.4660   -0.3690   -0.2880 O.2     1  UNL1       -0.2520
      4  O         10.3610    1.3330   -1.4700 O.3     1  UNL1       -0.4810
      5  H         11.2990    1.0720   -1.1610 H       1  UNL1        0.2960
      6  C          7.0810   -0.3650   -1.6710 C.3     1  UNL1        0.0470
      7  C          6.3290    0.5090   -0.7740 C.2     1  UNL1       -0.0470
      8  C          5.7090    1.6660   -1.1750 C.2     1  UNL1        0.0040
      9  C          6.2280    0.1670    0.5520 C.2     1  UNL1        0.0040
     10  C          5.0050    2.4770   -0.3170 C.2     1  UNL1        0.0000
     11  C          5.5330    0.9560    1.4400 C.2     1  UNL1        0.0000
     12  C          4.9090    2.1270    1.0130 C.2     1  UNL1        0.0000
@<TRIPOS>BOND
     1     1     6    1
     2     1     2    1
     3     6     7    1
     4     4     2    1
     5     4     5    1
     6     2     3    2
     7     8     7    2
     8     8    10    1
     9     7     9    1
    10    10    12    2
    11     9    11    2
    12    12    11    1
