@<TRIPOS>MOLECULE
/home/cewinharhar/GITHUB/reincatalyze/data/processed/docking_pred/2023-Apr-25-2140_maxeplen10_maxtrainstep200_exh16_gamma099_lrac3e-4_lrcr1e-3/ae62664a3c9eef67376bdc077c2faa7ac5a69a78_ligand_2.pdbqt
 12 12 0 0 0
SMALL
GASTEIGER

@<TRIPOS>ATOM
      1  C          5.0240    1.8280    0.6870 C.3     1  UNL1        0.1270
      2  C          4.5230    1.1430    1.9080 C.2     1  UNL1        0.3030
      3  O          3.3980    1.3630    2.4230 O.2     1  UNL1       -0.2520
      4  O          5.3310    0.2020    2.5280 O.3     1  UNL1       -0.4810
      5  H          6.0990   -0.1710    1.9650 H       1  UNL1        0.2960
      6  C          6.5250    1.8210    0.6910 C.3     1  UNL1        0.0470
      7  C          7.1270    1.0160   -0.3690 C.2     1  UNL1       -0.0470
      8  C          6.4490    0.0580   -1.0810 C.2     1  UNL1        0.0040
      9  C          8.4480    1.2170   -0.6840 C.2     1  UNL1        0.0040
     10  C          7.0310   -0.6900   -2.0760 C.2     1  UNL1        0.0000
     11  C          9.0640    0.4860   -1.6730 C.2     1  UNL1        0.0000
     12  C          8.3580   -0.4830   -2.3850 C.2     1  UNL1        0.0000
@<TRIPOS>BOND
     1    12    10    2
     2    12    11    1
     3    10     8    1
     4    11     9    2
     5     8     7    2
     6     9     7    1
     7     7     6    1
     8     1     6    1
     9     1     2    1
    10     2     3    2
    11     2     4    1
    12     5     4    1
