@<TRIPOS>MOLECULE
/home/cewinharhar/GITHUB/reincatalyze/data/processed/docking_pred/2023-Apr-25-2140_maxeplen10_maxtrainstep200_exh16_gamma099_lrac3e-4_lrcr1e-3/ae62664a3c9eef67376bdc077c2faa7ac5a69a78_ligand_2.pdbqt
 12 12 0 0 0
SMALL
GASTEIGER

@<TRIPOS>ATOM
      1  C          5.4960    2.6490    0.1130 C.3     1  UNL1        0.1270
      2  C          6.1880    3.7060    0.8950 C.2     1  UNL1        0.3030
      3  O          6.2570    3.7170    2.1500 O.2     1  UNL1       -0.2520
      4  O          6.7990    4.7500    0.2170 O.3     1  UNL1       -0.4810
      5  H          6.5660    5.6920    0.5400 H       1  UNL1        0.2960
      6  C          6.0240    1.3030    0.5140 C.3     1  UNL1        0.0470
      7  C          6.9290    0.6950   -0.4580 C.2     1  UNL1       -0.0470
      8  C          8.2130    1.1280   -0.6830 C.2     1  UNL1        0.0040
      9  C          6.4850   -0.3720   -1.1990 C.2     1  UNL1        0.0040
     10  C          9.0510    0.5440   -1.6030 C.2     1  UNL1        0.0000
     11  C          7.2970   -0.9800   -2.1290 C.2     1  UNL1        0.0000
     12  C          8.5980   -0.5270   -2.3430 C.2     1  UNL1        0.0000
@<TRIPOS>BOND
     1    12    11    2
     2    12    10    1
     3    11     9    1
     4    10     8    2
     5     9     7    2
     6     8     7    1
     7     7     6    1
     8     1     6    1
     9     1     2    1
    10     4     5    1
    11     4     2    1
    12     2     3    2
