@<TRIPOS>MOLECULE
/home/cewinharhar/GITHUB/reincatalyze/data/processed/docking_pred/2023-Apr-25-2140_maxeplen10_maxtrainstep200_exh16_gamma099_lrac3e-4_lrcr1e-3/ae62664a3c9eef67376bdc077c2faa7ac5a69a78_ligand_2.pdbqt
 12 12 0 0 0
SMALL
GASTEIGER

@<TRIPOS>ATOM
      1  C          8.4980   -0.5010   -2.4420 C.3     1  UNL1        0.1270
      2  C          8.5380   -1.8760   -3.0050 C.2     1  UNL1        0.3030
      3  O          9.5850   -2.5650   -3.0990 O.2     1  UNL1       -0.2520
      4  O          7.3590   -2.4500   -3.4580 O.3     1  UNL1       -0.4810
      5  H          6.8820   -1.9550   -4.2140 H       1  UNL1        0.2960
      6  C          7.0730   -0.1140   -2.1700 C.3     1  UNL1        0.0470
      7  C          6.7770    0.1510   -0.7640 C.2     1  UNL1       -0.0470
      8  C          7.4280   -0.4560    0.2810 C.2     1  UNL1        0.0040
      9  C          5.7920    1.0560   -0.4540 C.2     1  UNL1        0.0040
     10  C          7.1370   -0.1950    1.5990 C.2     1  UNL1        0.0000
     11  C          5.4740    1.3410    0.8540 C.2     1  UNL1        0.0000
     12  C          6.1470    0.7150    1.9020 C.2     1  UNL1        0.0000
@<TRIPOS>BOND
     1     5     4    1
     2     4     2    1
     3     3     2    2
     4     2     1    1
     5     1     6    1
     6     6     7    1
     7     7     9    2
     8     7     8    1
     9     9    11    1
    10     8    10    2
    11    11    12    2
    12    10    12    1
