@<TRIPOS>MOLECULE
/home/cewinharhar/GITHUB/reincatalyze/data/processed/docking_pred/2023-Apr-25-2140_maxeplen10_maxtrainstep200_exh16_gamma099_lrac3e-4_lrcr1e-3/ae62664a3c9eef67376bdc077c2faa7ac5a69a78_ligand_2.pdbqt
 12 12 0 0 0
SMALL
GASTEIGER

@<TRIPOS>ATOM
      1  C          8.5600   -0.5860   -2.2650 C.3     1  UNL1        0.1270
      2  C          8.5830   -1.9050   -2.9480 C.2     1  UNL1        0.3030
      3  O          9.6290   -2.5730   -3.1480 O.2     1  UNL1       -0.2520
      4  O          7.3880   -2.4480   -3.3980 O.3     1  UNL1       -0.4810
      5  H          7.4310   -3.4160   -3.7240 H       1  UNL1        0.2960
      6  C          7.1480   -0.0820   -2.1980 C.3     1  UNL1        0.0470
      7  C          6.7070    0.3030   -0.8600 C.2     1  UNL1       -0.0470
      8  C          5.7250    1.2310   -0.6160 C.2     1  UNL1        0.0040
      9  C          7.2990   -0.2880    0.2280 C.2     1  UNL1        0.0040
     10  C          5.3220    1.5820    0.6500 C.2     1  UNL1        0.0000
     11  C          6.9210    0.0390    1.5100 C.2     1  UNL1        0.0000
     12  C          5.9220    0.9840    1.7370 C.2     1  UNL1        0.0000
@<TRIPOS>BOND
     1     5     4    1
     2     4     2    1
     3     3     2    2
     4     2     1    1
     5     1     6    1
     6     6     7    1
     7     7     8    2
     8     7     9    1
     9     8    10    1
    10     9    11    2
    11    10    12    2
    12    11    12    1
