MODEL 1
REMARK VINA RESULT:      -7.2      0.000      0.000
REMARK SMILES O=C(O)CCc1ccccc1
REMARK SMILES IDX 4 1 2 2 1 3 3 4 5 6 6 7 7 8 11 9 8 10 10 11 9 12
REMARK H PARENT 3 5
REMARK Flexibility Score: inf
ROOT
ATOM      1  C   UNL     1       8.560  -0.586  -2.265  1.00  0.00     0.127 C 
ENDROOT
BRANCH   1   2
ATOM      2  C   UNL     1       8.583  -1.905  -2.948  1.00  0.00     0.303 C 
ATOM      3  O   UNL     1       9.629  -2.573  -3.148  1.00  0.00    -0.252 OA
BRANCH   2   4
ATOM      4  O   UNL     1       7.388  -2.448  -3.398  1.00  0.00    -0.481 OA
ATOM      5  H   UNL     1       7.431  -3.416  -3.724  1.00  0.00     0.296 HD
ENDBRANCH   2   4
ENDBRANCH   1   2
BRANCH   1   6
ATOM      6  C   UNL     1       7.148  -0.082  -2.198  1.00  0.00     0.047 C 
BRANCH   6   7
ATOM      7  C   UNL     1       6.707   0.303  -0.860  1.00  0.00    -0.047 A 
ATOM      8  C   UNL     1       5.725   1.231  -0.616  1.00  0.00     0.004 A 
ATOM      9  C   UNL     1       7.299  -0.288   0.228  1.00  0.00     0.004 A 
ATOM     10  C   UNL     1       5.322   1.582   0.650  1.00  0.00     0.000 A 
ATOM     11  C   UNL     1       6.921   0.039   1.510  1.00  0.00     0.000 A 
ATOM     12  C   UNL     1       5.922   0.984   1.737  1.00  0.00     0.000 A 
ENDBRANCH   6   7
ENDBRANCH   1   6
TORSDOF 4
ENDMDL
MODEL 2
REMARK VINA RESULT:      -7.2      0.232      1.443
REMARK SMILES O=C(O)CCc1ccccc1
REMARK SMILES IDX 4 1 2 2 1 3 3 4 5 6 6 7 7 8 11 9 8 10 10 11 9 12
REMARK H PARENT 3 5
REMARK Flexibility Score: inf
ROOT
ATOM      1  C   UNL     1       8.498  -0.501  -2.442  1.00  0.00     0.127 C 
ENDROOT
BRANCH   1   2
ATOM      2  C   UNL     1       8.538  -1.876  -3.005  1.00  0.00     0.303 C 
ATOM      3  O   UNL     1       9.585  -2.565  -3.099  1.00  0.00    -0.252 OA
BRANCH   2   4
ATOM      4  O   UNL     1       7.359  -2.450  -3.458  1.00  0.00    -0.481 OA
ATOM      5  H   UNL     1       6.882  -1.955  -4.214  1.00  0.00     0.296 HD
ENDBRANCH   2   4
ENDBRANCH   1   2
BRANCH   1   6
ATOM      6  C   UNL     1       7.073  -0.114  -2.170  1.00  0.00     0.047 C 
BRANCH   6   7
ATOM      7  C   UNL     1       6.777   0.151  -0.764  1.00  0.00    -0.047 A 
ATOM      8  C   UNL     1       7.428  -0.456   0.281  1.00  0.00     0.004 A 
ATOM      9  C   UNL     1       5.792   1.056  -0.454  1.00  0.00     0.004 A 
ATOM     10  C   UNL     1       7.137  -0.195   1.599  1.00  0.00     0.000 A 
ATOM     11  C   UNL     1       5.474   1.341   0.854  1.00  0.00     0.000 A 
ATOM     12  C   UNL     1       6.147   0.715   1.902  1.00  0.00     0.000 A 
ENDBRANCH   6   7
ENDBRANCH   1   6
TORSDOF 4
ENDMDL
MODEL 3
REMARK VINA RESULT:      -6.9      3.325      5.076
REMARK SMILES O=C(O)CCc1ccccc1
REMARK SMILES IDX 4 1 2 2 1 3 3 4 5 6 6 7 7 8 11 9 8 10 10 11 9 12
REMARK H PARENT 3 5
REMARK Flexibility Score: inf
ROOT
ATOM      1  C   UNL     1       5.024   1.828   0.687  1.00  0.00     0.127 C 
ENDROOT
BRANCH   1   2
ATOM      2  C   UNL     1       4.523   1.143   1.908  1.00  0.00     0.303 C 
ATOM      3  O   UNL     1       3.398   1.363   2.423  1.00  0.00    -0.252 OA
BRANCH   2   4
ATOM      4  O   UNL     1       5.331   0.202   2.528  1.00  0.00    -0.481 OA
ATOM      5  H   UNL     1       6.099  -0.171   1.965  1.00  0.00     0.296 HD
ENDBRANCH   2   4
ENDBRANCH   1   2
BRANCH   1   6
ATOM      6  C   UNL     1       6.525   1.821   0.691  1.00  0.00     0.047 C 
BRANCH   6   7
ATOM      7  C   UNL     1       7.127   1.016  -0.369  1.00  0.00    -0.047 A 
ATOM      8  C   UNL     1       6.449   0.058  -1.081  1.00  0.00     0.004 A 
ATOM      9  C   UNL     1       8.448   1.217  -0.684  1.00  0.00     0.004 A 
ATOM     10  C   UNL     1       7.031  -0.690  -2.076  1.00  0.00     0.000 A 
ATOM     11  C   UNL     1       9.064   0.486  -1.673  1.00  0.00     0.000 A 
ATOM     12  C   UNL     1       8.358  -0.483  -2.385  1.00  0.00     0.000 A 
ENDBRANCH   6   7
ENDBRANCH   1   6
TORSDOF 4
ENDMDL
MODEL 4
REMARK VINA RESULT:      -6.6      3.695      5.241
REMARK SMILES O=C(O)CCc1ccccc1
REMARK SMILES IDX 4 1 2 2 1 3 3 4 5 6 6 7 7 8 11 9 8 10 10 11 9 12
REMARK H PARENT 3 5
REMARK Flexibility Score: inf
ROOT
ATOM      1  C   UNL     1       5.496   2.649   0.113  1.00  0.00     0.127 C 
ENDROOT
BRANCH   1   2
ATOM      2  C   UNL     1       6.188   3.706   0.895  1.00  0.00     0.303 C 
ATOM      3  O   UNL     1       6.257   3.717   2.150  1.00  0.00    -0.252 OA
BRANCH   2   4
ATOM      4  O   UNL     1       6.799   4.750   0.217  1.00  0.00    -0.481 OA
ATOM      5  H   UNL     1       6.566   5.692   0.540  1.00  0.00     0.296 HD
ENDBRANCH   2   4
ENDBRANCH   1   2
BRANCH   1   6
ATOM      6  C   UNL     1       6.024   1.303   0.514  1.00  0.00     0.047 C 
BRANCH   6   7
ATOM      7  C   UNL     1       6.929   0.695  -0.458  1.00  0.00    -0.047 A 
ATOM      8  C   UNL     1       8.213   1.128  -0.683  1.00  0.00     0.004 A 
ATOM      9  C   UNL     1       6.485  -0.372  -1.199  1.00  0.00     0.004 A 
ATOM     10  C   UNL     1       9.051   0.544  -1.603  1.00  0.00     0.000 A 
ATOM     11  C   UNL     1       7.297  -0.980  -2.129  1.00  0.00     0.000 A 
ATOM     12  C   UNL     1       8.598  -0.527  -2.343  1.00  0.00     0.000 A 
ENDBRANCH   6   7
ENDBRANCH   1   6
TORSDOF 4
ENDMDL
MODEL 5
REMARK VINA RESULT:      -6.4      1.960      2.321
REMARK SMILES O=C(O)CCc1ccccc1
REMARK SMILES IDX 4 1 2 2 1 3 3 4 5 6 6 7 7 8 11 9 8 10 10 11 9 12
REMARK H PARENT 3 5
REMARK Flexibility Score: inf
ROOT
ATOM      1  C   UNL     1       8.282   0.278  -2.301  1.00  0.00     0.127 C 
ENDROOT
BRANCH   1   2
ATOM      2  C   UNL     1       9.374   0.374  -1.298  1.00  0.00     0.303 C 
ATOM      3  O   UNL     1       9.466  -0.369  -0.288  1.00  0.00    -0.252 OA
BRANCH   2   4
ATOM      4  O   UNL     1      10.361   1.333  -1.470  1.00  0.00    -0.481 OA
ATOM      5  H   UNL     1      11.299   1.072  -1.161  1.00  0.00     0.296 HD
ENDBRANCH   2   4
ENDBRANCH   1   2
BRANCH   1   6
ATOM      6  C   UNL     1       7.081  -0.365  -1.671  1.00  0.00     0.047 C 
BRANCH   6   7
ATOM      7  C   UNL     1       6.329   0.509  -0.774  1.00  0.00    -0.047 A 
ATOM      8  C   UNL     1       5.709   1.666  -1.175  1.00  0.00     0.004 A 
ATOM      9  C   UNL     1       6.228   0.167   0.552  1.00  0.00     0.004 A 
ATOM     10  C   UNL     1       5.005   2.477  -0.317  1.00  0.00     0.000 A 
ATOM     11  C   UNL     1       5.533   0.956   1.440  1.00  0.00     0.000 A 
ATOM     12  C   UNL     1       4.909   2.127   1.013  1.00  0.00     0.000 A 
ENDBRANCH   6   7
ENDBRANCH   1   6
TORSDOF 4
ENDMDL
