@<TRIPOS>MOLECULE
/home/cewinharhar/GITHUB/reincatalyze/data/processed/docking_pred/2023-Apr-25-2140_maxeplen10_maxtrainstep200_exh16_gamma099_lrac3e-4_lrcr1e-3/af895cae38f50b8ad608cacdd29f7ae1ddca485c_ligand_2.pdbqt
 12 12 0 0 0
SMALL
GASTEIGER

@<TRIPOS>ATOM
      1  C          5.0070    1.7610    0.7070 C.3     1  UNL1        0.1270
      2  C          4.5980    1.0230    1.9300 C.2     1  UNL1        0.3030
      3  O          5.3040    0.1470    2.4900 O.2     1  UNL1       -0.2520
      4  O          3.3670    1.3050    2.5030 O.3     1  UNL1       -0.4810
      5  H          3.3580    2.0490    3.2050 H       1  UNL1        0.2960
      6  C          6.5040    1.8520    0.6560 C.3     1  UNL1        0.0470
      7  C          7.1230    1.0400   -0.3890 C.2     1  UNL1       -0.0470
      8  C          6.4390    0.1310   -1.1560 C.2     1  UNL1        0.0040
      9  C          8.4670    1.1830   -0.6280 C.2     1  UNL1        0.0040
     10  C          7.0380   -0.6260   -2.1350 C.2     1  UNL1        0.0000
     11  C          9.1000    0.4410   -1.6000 C.2     1  UNL1        0.0000
     12  C          8.3880   -0.4770   -2.3700 C.2     1  UNL1        0.0000
@<TRIPOS>BOND
     1    12    10    2
     2    12    11    1
     3    10     8    1
     4    11     9    2
     5     8     7    2
     6     9     7    1
     7     7     6    1
     8     6     1    1
     9     1     2    1
    10     2     3    2
    11     2     4    1
    12     4     5    1
