@<TRIPOS>MOLECULE
/home/cewinharhar/GITHUB/reincatalyze/data/processed/docking_pred/2023-Apr-25-2140_maxeplen10_maxtrainstep200_exh16_gamma099_lrac3e-4_lrcr1e-3/af895cae38f50b8ad608cacdd29f7ae1ddca485c_ligand_2.pdbqt
 12 12 0 0 0
SMALL
GASTEIGER

@<TRIPOS>ATOM
      1  C          5.4690    2.8700   -0.0290 C.3     1  UNL1        0.1270
      2  C          6.2630    3.8390    0.7710 C.2     1  UNL1        0.3030
      3  O          6.9380    4.7750    0.2720 O.2     1  UNL1       -0.2520
      4  O          6.2710    3.7200    2.1530 O.3     1  UNL1       -0.4810
      5  H          5.4640    4.1140    2.6420 H       1  UNL1        0.2960
      6  C          4.9020    1.8190    0.8790 C.3     1  UNL1        0.0470
      7  C          5.6880    0.5900    0.9450 C.2     1  UNL1       -0.0470
      8  C          5.7580   -0.2140    2.0560 C.2     1  UNL1        0.0040
      9  C          6.4050    0.2020   -0.1600 C.2     1  UNL1        0.0040
     10  C          6.5040   -1.3680    2.1000 C.2     1  UNL1        0.0000
     11  C          7.1630   -0.9470   -0.1500 C.2     1  UNL1        0.0000
     12  C          7.2210   -1.7500    0.9870 C.2     1  UNL1        0.0000
@<TRIPOS>BOND
     1     9    11    1
     2     9     7    2
     3    11    12    2
     4     1     2    1
     5     1     6    1
     6     3     2    2
     7     2     4    1
     8     6     7    1
     9     7     8    1
    10    12    10    1
    11     8    10    2
    12     4     5    1
