@<TRIPOS>MOLECULE
/home/cewinharhar/GITHUB/reincatalyze/data/processed/docking_pred/2023-Apr-25-2140_maxeplen10_maxtrainstep200_exh16_gamma099_lrac3e-4_lrcr1e-3/af895cae38f50b8ad608cacdd29f7ae1ddca485c_ligand_2.pdbqt
 12 12 0 0 0
SMALL
GASTEIGER

@<TRIPOS>ATOM
      1  C          8.2800    0.2350   -2.2340 C.3     1  UNL1        0.1270
      2  C          9.3870    0.3540   -1.2490 C.2     1  UNL1        0.3030
      3  O          9.4910   -0.3630   -0.2210 O.2     1  UNL1       -0.2520
      4  O         10.3720    1.3070   -1.4590 O.3     1  UNL1       -0.4810
      5  H         11.2760    0.9530   -1.7810 H       1  UNL1        0.2960
      6  C          7.1220   -0.4790   -1.6000 C.3     1  UNL1        0.0470
      7  C          6.3430    0.3390   -0.6730 C.2     1  UNL1       -0.0470
      8  C          5.7930    1.5530   -1.0020 C.2     1  UNL1        0.0040
      9  C          6.1390   -0.1200    0.6040 C.2     1  UNL1        0.0040
     10  C          5.0620    2.3100   -0.1170 C.2     1  UNL1        0.0000
     11  C          5.4130    0.6110    1.5160 C.2     1  UNL1        0.0000
     12  C          4.8620    1.8420    1.1640 C.2     1  UNL1        0.0000
@<TRIPOS>BOND
     1     1     6    1
     2     1     2    1
     3     5     4    1
     4     6     7    1
     5     4     2    1
     6     2     3    2
     7     8     7    2
     8     8    10    1
     9     7     9    1
    10    10    12    2
    11     9    11    2
    12    12    11    1
