@<TRIPOS>MOLECULE
/home/cewinharhar/GITHUB/reincatalyze/data/processed/docking_pred/2023-Apr-25-2140_maxeplen10_maxtrainstep200_exh16_gamma099_lrac3e-4_lrcr1e-3/af895cae38f50b8ad608cacdd29f7ae1ddca485c_ligand_2.pdbqt
 12 12 0 0 0
SMALL
GASTEIGER

@<TRIPOS>ATOM
      1  C          8.4260   -0.5680   -2.2170 C.3     1  UNL1        0.1270
      2  C          8.4910   -1.8800   -2.9140 C.2     1  UNL1        0.3030
      3  O          9.5530   -2.5290   -3.0880 O.2     1  UNL1       -0.2520
      4  O          7.3200   -2.4350   -3.4080 O.3     1  UNL1       -0.4810
      5  H          7.1230   -2.2600   -4.3950 H       1  UNL1        0.2960
      6  C          6.9960   -0.1250   -2.1190 C.3     1  UNL1        0.0470
      7  C          6.4880   -0.0220   -0.7530 C.2     1  UNL1       -0.0470
      8  C          6.5920   -1.0250    0.1790 C.2     1  UNL1        0.0040
      9  C          5.8680    1.1390   -0.3630 C.2     1  UNL1        0.0040
     10  C          6.1080   -0.9120    1.4600 C.2     1  UNL1        0.0000
     11  C          5.3720    1.2870    0.9120 C.2     1  UNL1        0.0000
     12  C          5.4870    0.2570    1.8440 C.2     1  UNL1        0.0000
@<TRIPOS>BOND
     1     5     4    1
     2     4     2    1
     3     3     2    2
     4     2     1    1
     5     1     6    1
     6     6     7    1
     7     7     9    2
     8     7     8    1
     9     9    11    1
    10     8    10    2
    11    11    12    2
    12    10    12    1
