@<TRIPOS>MOLECULE
/home/cewinharhar/GITHUB/reincatalyze/data/processed/docking_pred/2023-Apr-25-2140_maxeplen10_maxtrainstep200_exh16_gamma099_lrac3e-4_lrcr1e-3/af895cae38f50b8ad608cacdd29f7ae1ddca485c_ligand_2.pdbqt
 12 12 0 0 0
SMALL
GASTEIGER

@<TRIPOS>ATOM
      1  C          8.4570   -0.7480   -1.9940 C.3     1  UNL1        0.1270
      2  C          8.5240   -1.9500   -2.8660 C.2     1  UNL1        0.3030
      3  O          9.5890   -2.5560   -3.1440 O.2     1  UNL1       -0.2520
      4  O          7.3510   -2.4470   -3.4140 O.3     1  UNL1       -0.4810
      5  H          6.4820   -2.1190   -2.9860 H       1  UNL1        0.2960
      6  C          7.0770   -0.1620   -2.0570 C.3     1  UNL1        0.0470
      7  C          6.4690    0.0920   -0.7530 C.2     1  UNL1       -0.0470
      8  C          5.8000    1.2480   -0.4330 C.2     1  UNL1        0.0040
      9  C          6.5640   -0.8710    0.2210 C.2     1  UNL1        0.0040
     10  C          5.2340    1.4700    0.7990 C.2     1  UNL1        0.0000
     11  C          6.0100   -0.6820    1.4660 C.2     1  UNL1        0.0000
     12  C          5.3340    0.4980    1.7710 C.2     1  UNL1        0.0000
@<TRIPOS>BOND
     1     4     5    1
     2     4     2    1
     3     3     2    2
     4     2     1    1
     5     6     1    1
     6     6     7    1
     7     7     8    2
     8     7     9    1
     9     8    10    1
    10     9    11    2
    11    10    12    2
    12    11    12    1
