@<TRIPOS>MOLECULE
/home/cewinharhar/GITHUB/reincatalyze/data/processed/docking_pred/2023-Apr-25-2140_maxeplen10_maxtrainstep200_exh16_gamma099_lrac3e-4_lrcr1e-3/af9628f04dddfdfce7c60ac864c84e5664a7a69f_ligand_2.pdbqt
 12 12 0 0 0
SMALL
GASTEIGER

@<TRIPOS>ATOM
      1  C          8.4550   -0.6170   -2.1440 C.3     1  UNL1        0.1270
      2  C          8.5130   -1.8930   -2.9030 C.2     1  UNL1        0.3030
      3  O          9.5720   -2.5370   -3.1120 O.2     1  UNL1       -0.2520
      4  O          7.3380   -2.4200   -3.4180 O.3     1  UNL1       -0.4810
      5  H          7.4000   -3.3690   -3.7940 H       1  UNL1        0.2960
      6  C          7.0390   -0.1210   -2.1080 C.3     1  UNL1        0.0470
      7  C          6.4850    0.0290   -0.7640 C.2     1  UNL1       -0.0470
      8  C          6.5650   -0.9380    0.2070 C.2     1  UNL1        0.0040
      9  C          5.8440    1.1980   -0.4380 C.2     1  UNL1        0.0040
     10  C          6.0380   -0.7810    1.4670 C.2     1  UNL1        0.0000
     11  C          5.3050    1.3890    0.8130 C.2     1  UNL1        0.0000
     12  C          5.3960    0.3960    1.7870 C.2     1  UNL1        0.0000
@<TRIPOS>BOND
     1     5     4    1
     2     4     2    1
     3     3     2    2
     4     2     1    1
     5     1     6    1
     6     6     7    1
     7     7     9    2
     8     7     8    1
     9     9    11    1
    10     8    10    2
    11    11    12    2
    12    10    12    1
