@<TRIPOS>MOLECULE
/home/cewinharhar/GITHUB/reincatalyze/data/processed/docking_pred/2023-Apr-25-2140_maxeplen10_maxtrainstep200_exh16_gamma099_lrac3e-4_lrcr1e-3/af9628f04dddfdfce7c60ac864c84e5664a7a69f_ligand_2.pdbqt
 12 12 0 0 0
SMALL
GASTEIGER

@<TRIPOS>ATOM
      1  C          4.9830    1.8260    0.6770 C.3     1  UNL1        0.1270
      2  C          4.5020    1.1160    1.8910 C.2     1  UNL1        0.3030
      3  O          5.1430    0.2030    2.4700 O.2     1  UNL1       -0.2520
      4  O          3.2750    1.4700    2.4320 O.3     1  UNL1       -0.4810
      5  H          2.8970    0.8350    3.1390 H       1  UNL1        0.2960
      6  C          6.4820    1.8910    0.6980 C.3     1  UNL1        0.0470
      7  C          7.1360    1.1140   -0.3520 C.2     1  UNL1       -0.0470
      8  C          8.4770    1.1900   -0.6370 C.2     1  UNL1        0.0040
      9  C          6.3780    0.2540   -1.1080 C.2     1  UNL1        0.0040
     10  C          9.0760    0.4510   -1.6300 C.2     1  UNL1        0.0000
     11  C          6.9450   -0.5000   -2.1100 C.2     1  UNL1        0.0000
     12  C          8.3080   -0.4100   -2.3840 C.2     1  UNL1        0.0000
@<TRIPOS>BOND
     1    12    11    2
     2    12    10    1
     3    11     9    1
     4    10     8    2
     5     9     7    2
     6     8     7    1
     7     7     6    1
     8     1     6    1
     9     1     2    1
    10     2     4    1
    11     2     3    2
    12     4     5    1
