MODEL 1
REMARK VINA RESULT:      -7.4      0.000      0.000
REMARK SMILES O=C(O)CCc1ccccc1
REMARK SMILES IDX 4 1 2 2 1 3 3 4 5 6 6 7 7 8 11 9 8 10 10 11 9 12
REMARK H PARENT 3 5
REMARK Flexibility Score: inf
ROOT
ATOM      1  C   UNL     1       8.455  -0.617  -2.144  1.00  0.00     0.127 C 
ENDROOT
BRANCH   1   2
ATOM      2  C   UNL     1       8.513  -1.893  -2.903  1.00  0.00     0.303 C 
ATOM      3  O   UNL     1       9.572  -2.537  -3.112  1.00  0.00    -0.252 OA
BRANCH   2   4
ATOM      4  O   UNL     1       7.338  -2.420  -3.418  1.00  0.00    -0.481 OA
ATOM      5  H   UNL     1       7.400  -3.369  -3.794  1.00  0.00     0.296 HD
ENDBRANCH   2   4
ENDBRANCH   1   2
BRANCH   1   6
ATOM      6  C   UNL     1       7.039  -0.121  -2.108  1.00  0.00     0.047 C 
BRANCH   6   7
ATOM      7  C   UNL     1       6.485   0.029  -0.764  1.00  0.00    -0.047 A 
ATOM      8  C   UNL     1       6.565  -0.938   0.207  1.00  0.00     0.004 A 
ATOM      9  C   UNL     1       5.844   1.198  -0.438  1.00  0.00     0.004 A 
ATOM     10  C   UNL     1       6.038  -0.781   1.467  1.00  0.00     0.000 A 
ATOM     11  C   UNL     1       5.305   1.389   0.813  1.00  0.00     0.000 A 
ATOM     12  C   UNL     1       5.396   0.396   1.787  1.00  0.00     0.000 A 
ENDBRANCH   6   7
ENDBRANCH   1   6
TORSDOF 4
ENDMDL
MODEL 2
REMARK VINA RESULT:      -7.3      0.086      1.426
REMARK SMILES O=C(O)CCc1ccccc1
REMARK SMILES IDX 4 1 2 2 1 3 3 4 5 6 6 7 7 8 11 9 8 10 10 11 9 12
REMARK H PARENT 3 5
REMARK Flexibility Score: inf
ROOT
ATOM      1  C   UNL     1       8.432  -0.567  -2.188  1.00  0.00     0.127 C 
ENDROOT
BRANCH   1   2
ATOM      2  C   UNL     1       8.500  -1.866  -2.906  1.00  0.00     0.303 C 
ATOM      3  O   UNL     1       9.566  -2.504  -3.103  1.00  0.00    -0.252 OA
BRANCH   2   4
ATOM      4  O   UNL     1       7.329  -2.425  -3.396  1.00  0.00    -0.481 OA
ATOM      5  H   UNL     1       7.293  -3.446  -3.414  1.00  0.00     0.296 HD
ENDBRANCH   2   4
ENDBRANCH   1   2
BRANCH   1   6
ATOM      6  C   UNL     1       7.007  -0.099  -2.138  1.00  0.00     0.047 C 
BRANCH   6   7
ATOM      7  C   UNL     1       6.474   0.068  -0.788  1.00  0.00    -0.047 A 
ATOM      8  C   UNL     1       5.842   1.207  -0.351  1.00  0.00     0.004 A 
ATOM      9  C   UNL     1       6.604  -0.963   0.108  1.00  0.00     0.004 A 
ATOM     10  C   UNL     1       5.346   1.347   0.923  1.00  0.00     0.000 A 
ATOM     11  C   UNL     1       6.121  -0.857   1.392  1.00  0.00     0.000 A 
ATOM     12  C   UNL     1       5.481   0.307   1.817  1.00  0.00     0.000 A 
ENDBRANCH   6   7
ENDBRANCH   1   6
TORSDOF 4
ENDMDL
MODEL 3
REMARK VINA RESULT:      -6.8      3.368      5.085
REMARK SMILES O=C(O)CCc1ccccc1
REMARK SMILES IDX 4 1 2 2 1 3 3 4 5 6 6 7 7 8 11 9 8 10 10 11 9 12
REMARK H PARENT 3 5
REMARK Flexibility Score: inf
ROOT
ATOM      1  C   UNL     1       4.983   1.826   0.677  1.00  0.00     0.127 C 
ENDROOT
BRANCH   1   2
ATOM      2  C   UNL     1       4.502   1.116   1.891  1.00  0.00     0.303 C 
ATOM      3  O   UNL     1       5.143   0.203   2.470  1.00  0.00    -0.252 OA
BRANCH   2   4
ATOM      4  O   UNL     1       3.275   1.470   2.432  1.00  0.00    -0.481 OA
ATOM      5  H   UNL     1       2.897   0.835   3.139  1.00  0.00     0.296 HD
ENDBRANCH   2   4
ENDBRANCH   1   2
BRANCH   1   6
ATOM      6  C   UNL     1       6.482   1.891   0.698  1.00  0.00     0.047 C 
BRANCH   6   7
ATOM      7  C   UNL     1       7.136   1.114  -0.352  1.00  0.00    -0.047 A 
ATOM      8  C   UNL     1       8.477   1.190  -0.637  1.00  0.00     0.004 A 
ATOM      9  C   UNL     1       6.378   0.254  -1.108  1.00  0.00     0.004 A 
ATOM     10  C   UNL     1       9.076   0.451  -1.630  1.00  0.00     0.000 A 
ATOM     11  C   UNL     1       6.945  -0.500  -2.110  1.00  0.00     0.000 A 
ATOM     12  C   UNL     1       8.308  -0.410  -2.384  1.00  0.00     0.000 A 
ENDBRANCH   6   7
ENDBRANCH   1   6
TORSDOF 4
ENDMDL
MODEL 4
REMARK VINA RESULT:      -6.5      2.098      2.366
REMARK SMILES O=C(O)CCc1ccccc1
REMARK SMILES IDX 4 1 2 2 1 3 3 4 5 6 6 7 7 8 11 9 8 10 10 11 9 12
REMARK H PARENT 3 5
REMARK Flexibility Score: inf
ROOT
ATOM      1  C   UNL     1       8.532   0.677  -1.658  1.00  0.00     0.127 C 
ENDROOT
BRANCH   1   2
ATOM      2  C   UNL     1       9.656   0.271  -0.775  1.00  0.00     0.303 C 
ATOM      3  O   UNL     1       9.532  -0.505   0.206  1.00  0.00    -0.252 OA
BRANCH   2   4
ATOM      4  O   UNL     1      10.925   0.767  -1.034  1.00  0.00    -0.481 OA
ATOM      5  H   UNL     1      10.971   1.583  -1.649  1.00  0.00     0.296 HD
ENDBRANCH   2   4
ENDBRANCH   1   2
BRANCH   1   6
ATOM      6  C   UNL     1       7.342  -0.196  -1.387  1.00  0.00     0.047 C 
BRANCH   6   7
ATOM      7  C   UNL     1       6.451   0.305  -0.344  1.00  0.00    -0.047 A 
ATOM      8  C   UNL     1       6.191  -0.365   0.827  1.00  0.00     0.004 A 
ATOM      9  C   UNL     1       5.828   1.515  -0.529  1.00  0.00     0.004 A 
ATOM     10  C   UNL     1       5.349   0.122   1.798  1.00  0.00     0.000 A 
ATOM     11  C   UNL     1       4.979   2.031   0.422  1.00  0.00     0.000 A 
ATOM     12  C   UNL     1       4.727   1.337   1.604  1.00  0.00     0.000 A 
ENDBRANCH   6   7
ENDBRANCH   1   6
TORSDOF 4
ENDMDL
MODEL 5
REMARK VINA RESULT:      -6.5      1.887      2.829
REMARK SMILES O=C(O)CCc1ccccc1
REMARK SMILES IDX 4 1 2 2 1 3 3 4 5 6 6 7 7 8 11 9 8 10 10 11 9 12
REMARK H PARENT 3 5
REMARK Flexibility Score: inf
ROOT
ATOM      1  C   UNL     1       8.182  -1.548   1.128  1.00  0.00     0.127 C 
ENDROOT
BRANCH   1   2
ATOM      2  C   UNL     1       8.485  -2.772   0.342  1.00  0.00     0.303 C 
ATOM      3  O   UNL     1       9.130  -3.753   0.793  1.00  0.00    -0.252 OA
BRANCH   2   4
ATOM      4  O   UNL     1       8.038  -2.856  -0.968  1.00  0.00    -0.481 OA
ATOM      5  H   UNL     1       8.330  -2.098  -1.590  1.00  0.00     0.296 HD
ENDBRANCH   2   4
ENDBRANCH   1   2
BRANCH   1   6
ATOM      6  C   UNL     1       6.695  -1.402   1.270  1.00  0.00     0.047 C 
BRANCH   6   7
ATOM      7  C   UNL     1       6.158  -0.153   0.736  1.00  0.00    -0.047 A 
ATOM      8  C   UNL     1       6.375   0.286  -0.547  1.00  0.00     0.004 A 
ATOM      9  C   UNL     1       5.389   0.640   1.551  1.00  0.00     0.004 A 
ATOM     10  C   UNL     1       5.861   1.464  -1.034  1.00  0.00     0.000 A 
ATOM     11  C   UNL     1       4.860   1.826   1.097  1.00  0.00     0.000 A 
ATOM     12  C   UNL     1       5.091   2.255  -0.209  1.00  0.00     0.000 A 
ENDBRANCH   6   7
ENDBRANCH   1   6
TORSDOF 4
ENDMDL
