@<TRIPOS>MOLECULE
/home/cewinharhar/GITHUB/reincatalyze/data/processed/docking_pred/2023-Apr-25-2140_maxeplen10_maxtrainstep200_exh16_gamma099_lrac3e-4_lrcr1e-3/af9628f04dddfdfce7c60ac864c84e5664a7a69f_ligand_2.pdbqt
 12 12 0 0 0
SMALL
GASTEIGER

@<TRIPOS>ATOM
      1  C          8.1820   -1.5480    1.1280 C.3     1  UNL1        0.1270
      2  C          8.4850   -2.7720    0.3420 C.2     1  UNL1        0.3030
      3  O          9.1300   -3.7530    0.7930 O.2     1  UNL1       -0.2520
      4  O          8.0380   -2.8560   -0.9680 O.3     1  UNL1       -0.4810
      5  H          8.3300   -2.0980   -1.5900 H       1  UNL1        0.2960
      6  C          6.6950   -1.4020    1.2700 C.3     1  UNL1        0.0470
      7  C          6.1580   -0.1530    0.7360 C.2     1  UNL1       -0.0470
      8  C          6.3750    0.2860   -0.5470 C.2     1  UNL1        0.0040
      9  C          5.3890    0.6400    1.5510 C.2     1  UNL1        0.0040
     10  C          5.8610    1.4640   -1.0340 C.2     1  UNL1        0.0000
     11  C          4.8600    1.8260    1.0970 C.2     1  UNL1        0.0000
     12  C          5.0910    2.2550   -0.2090 C.2     1  UNL1        0.0000
@<TRIPOS>BOND
     1     5     4    1
     2    10     8    1
     3    10    12    2
     4     4     2    1
     5     8     7    2
     6    12    11    1
     7     2     3    2
     8     2     1    1
     9     7     6    1
    10     7     9    1
    11    11     9    2
    12     1     6    1
