@<TRIPOS>MOLECULE
/home/cewinharhar/GITHUB/reincatalyze/data/processed/docking_pred/2023-Apr-25-2140_maxeplen10_maxtrainstep200_exh16_gamma099_lrac3e-4_lrcr1e-3/af9628f04dddfdfce7c60ac864c84e5664a7a69f_ligand_2.pdbqt
 12 12 0 0 0
SMALL
GASTEIGER

@<TRIPOS>ATOM
      1  C          8.4320   -0.5670   -2.1880 C.3     1  UNL1        0.1270
      2  C          8.5000   -1.8660   -2.9060 C.2     1  UNL1        0.3030
      3  O          9.5660   -2.5040   -3.1030 O.2     1  UNL1       -0.2520
      4  O          7.3290   -2.4250   -3.3960 O.3     1  UNL1       -0.4810
      5  H          7.2930   -3.4460   -3.4140 H       1  UNL1        0.2960
      6  C          7.0070   -0.0990   -2.1380 C.3     1  UNL1        0.0470
      7  C          6.4740    0.0680   -0.7880 C.2     1  UNL1       -0.0470
      8  C          5.8420    1.2070   -0.3510 C.2     1  UNL1        0.0040
      9  C          6.6040   -0.9630    0.1080 C.2     1  UNL1        0.0040
     10  C          5.3460    1.3470    0.9230 C.2     1  UNL1        0.0000
     11  C          6.1210   -0.8570    1.3920 C.2     1  UNL1        0.0000
     12  C          5.4810    0.3070    1.8170 C.2     1  UNL1        0.0000
@<TRIPOS>BOND
     1     5     4    1
     2     4     2    1
     3     3     2    2
     4     2     1    1
     5     1     6    1
     6     6     7    1
     7     7     8    2
     8     7     9    1
     9     8    10    1
    10     9    11    2
    11    10    12    2
    12    11    12    1
