@<TRIPOS>MOLECULE
/home/cewinharhar/GITHUB/reincatalyze/data/processed/docking_pred/2023-Apr-25-2140_maxeplen10_maxtrainstep200_exh16_gamma099_lrac3e-4_lrcr1e-3/af9628f04dddfdfce7c60ac864c84e5664a7a69f_ligand_2.pdbqt
 12 12 0 0 0
SMALL
GASTEIGER

@<TRIPOS>ATOM
      1  C          8.5320    0.6770   -1.6580 C.3     1  UNL1        0.1270
      2  C          9.6560    0.2710   -0.7750 C.2     1  UNL1        0.3030
      3  O          9.5320   -0.5050    0.2060 O.2     1  UNL1       -0.2520
      4  O         10.9250    0.7670   -1.0340 O.3     1  UNL1       -0.4810
      5  H         10.9710    1.5830   -1.6490 H       1  UNL1        0.2960
      6  C          7.3420   -0.1960   -1.3870 C.3     1  UNL1        0.0470
      7  C          6.4510    0.3050   -0.3440 C.2     1  UNL1       -0.0470
      8  C          6.1910   -0.3650    0.8270 C.2     1  UNL1        0.0040
      9  C          5.8280    1.5150   -0.5290 C.2     1  UNL1        0.0040
     10  C          5.3490    0.1220    1.7980 C.2     1  UNL1        0.0000
     11  C          4.9790    2.0310    0.4220 C.2     1  UNL1        0.0000
     12  C          4.7270    1.3370    1.6040 C.2     1  UNL1        0.0000
@<TRIPOS>BOND
     1     1     6    1
     2     1     2    1
     3     5     4    1
     4     6     7    1
     5     4     2    1
     6     2     3    2
     7     9     7    2
     8     9    11    1
     9     7     8    1
    10    11    12    2
    11     8    10    2
    12    12    10    1
