@<TRIPOS>MOLECULE
/home/cewinharhar/GITHUB/reincatalyze/data/processed/docking_pred/2023-Apr-25-2140_maxeplen10_maxtrainstep200_exh16_gamma099_lrac3e-4_lrcr1e-3/b0253e2818c1de1129519fa2afa58b59888d8d60_ligand_2.pdbqt
 12 12 0 0 0
SMALL
GASTEIGER

@<TRIPOS>ATOM
      1  C          4.9890    1.7920    0.6760 C.3     1  UNL1        0.1270
      2  C          4.5160    1.0940    1.9000 C.2     1  UNL1        0.3030
      3  O          5.1670    0.1940    2.4900 O.2     1  UNL1       -0.2520
      4  O          3.2870    1.4430    2.4390 O.3     1  UNL1       -0.4810
      5  H          2.6210    1.8740    1.7930 H       1  UNL1        0.2960
      6  C          6.4890    1.8310    0.6720 C.3     1  UNL1        0.0470
      7  C          7.1110    1.0310   -0.3810 C.2     1  UNL1       -0.0470
      8  C          6.4350    0.1030   -1.1360 C.2     1  UNL1        0.0040
      9  C          8.4470    1.2040   -0.6430 C.2     1  UNL1        0.0040
     10  C          7.0360   -0.6410   -2.1230 C.2     1  UNL1        0.0000
     11  C          9.0810    0.4750   -1.6230 C.2     1  UNL1        0.0000
     12  C          8.3780   -0.4620   -2.3790 C.2     1  UNL1        0.0000
@<TRIPOS>BOND
     1    12    10    2
     2    12    11    1
     3    10     8    1
     4    11     9    2
     5     8     7    2
     6     9     7    1
     7     7     6    1
     8     6     1    1
     9     1     2    1
    10     5     4    1
    11     2     4    1
    12     2     3    2
