@<TRIPOS>MOLECULE
/home/cewinharhar/GITHUB/reincatalyze/data/processed/docking_pred/2023-Apr-25-2140_maxeplen10_maxtrainstep200_exh16_gamma099_lrac3e-4_lrcr1e-3/b0253e2818c1de1129519fa2afa58b59888d8d60_ligand_2.pdbqt
 12 12 0 0 0
SMALL
GASTEIGER

@<TRIPOS>ATOM
      1  C          8.2910    0.1340   -2.1960 C.3     1  UNL1        0.1270
      2  C          9.4000    0.3320   -1.2260 C.2     1  UNL1        0.3030
      3  O          9.5390   -0.3410   -0.1730 O.2     1  UNL1       -0.2520
      4  O         10.3470    1.3120   -1.4810 O.3     1  UNL1       -0.4810
      5  H         10.4020    2.0710   -0.7980 H       1  UNL1        0.2960
      6  C          7.1610   -0.5860   -1.5220 C.3     1  UNL1        0.0470
      7  C          6.3710    0.2430   -0.6140 C.2     1  UNL1       -0.0470
      8  C          5.8270    1.4540   -0.9640 C.2     1  UNL1        0.0040
      9  C          6.1530   -0.2000    0.6670 C.2     1  UNL1        0.0040
     10  C          5.0870    2.2220   -0.0970 C.2     1  UNL1        0.0000
     11  C          5.4180    0.5430    1.5610 C.2     1  UNL1        0.0000
     12  C          4.8720    1.7700    1.1880 C.2     1  UNL1        0.0000
@<TRIPOS>BOND
     1     1     6    1
     2     1     2    1
     3     6     7    1
     4     4     2    1
     5     4     5    1
     6     2     3    2
     7     8     7    2
     8     8    10    1
     9     7     9    1
    10    10    12    2
    11     9    11    2
    12    12    11    1
