@<TRIPOS>MOLECULE
/home/cewinharhar/GITHUB/reincatalyze/data/processed/docking_pred/2023-Apr-25-2140_maxeplen10_maxtrainstep200_exh16_gamma099_lrac3e-4_lrcr1e-3/b0253e2818c1de1129519fa2afa58b59888d8d60_ligand_2.pdbqt
 12 12 0 0 0
SMALL
GASTEIGER

@<TRIPOS>ATOM
      1  C          5.0200    1.8190    0.7320 C.3     1  UNL1        0.1270
      2  C          4.5000    1.1040    1.9260 C.2     1  UNL1        0.3030
      3  O          5.1160    0.1780    2.5130 O.2     1  UNL1       -0.2520
      4  O          3.2630    1.4660    2.4390 O.3     1  UNL1       -0.4810
      5  H          2.9990    1.0270    3.3240 H       1  UNL1        0.2960
      6  C          6.5200    1.8180    0.7630 C.3     1  UNL1        0.0470
      7  C          7.1470    1.0660   -0.3210 C.2     1  UNL1       -0.0470
      8  C          8.4630    1.2040   -0.6860 C.2     1  UNL1        0.0040
      9  C          6.3880    0.1640   -1.0260 C.2     1  UNL1        0.0040
     10  C          9.0370    0.4880   -1.7100 C.2     1  UNL1        0.0000
     11  C          6.9290   -0.5690   -2.0560 C.2     1  UNL1        0.0000
     12  C          8.2680   -0.4150   -2.4130 C.2     1  UNL1        0.0000
@<TRIPOS>BOND
     1    12    11    2
     2    12    10    1
     3    11     9    1
     4    10     8    2
     5     9     7    2
     6     8     7    1
     7     7     6    1
     8     1     6    1
     9     1     2    1
    10     2     4    1
    11     2     3    2
    12     4     5    1
