@<TRIPOS>MOLECULE
/home/cewinharhar/GITHUB/reincatalyze/data/processed/docking_pred/2023-Apr-25-2140_maxeplen10_maxtrainstep200_exh16_gamma099_lrac3e-4_lrcr1e-3/b0253e2818c1de1129519fa2afa58b59888d8d60_ligand_2.pdbqt
 12 12 0 0 0
SMALL
GASTEIGER

@<TRIPOS>ATOM
      1  C          8.4310   -0.5910   -2.1850 C.3     1  UNL1        0.1270
      2  C          8.4980   -1.8890   -2.9070 C.2     1  UNL1        0.3030
      3  O          9.5630   -2.5270   -3.1050 O.2     1  UNL1       -0.2520
      4  O          7.3260   -2.4440   -3.3980 O.3     1  UNL1       -0.4810
      5  H          7.4370   -3.1620   -4.1170 H       1  UNL1        0.2960
      6  C          7.0030   -0.1350   -2.1110 C.3     1  UNL1        0.0470
      7  C          6.4790   -0.0120   -0.7530 C.2     1  UNL1       -0.0470
      8  C          6.5790   -0.9990    0.1970 C.2     1  UNL1        0.0040
      9  C          5.8450    1.1500   -0.3900 C.2     1  UNL1        0.0040
     10  C          6.0800   -0.8670    1.4710 C.2     1  UNL1        0.0000
     11  C          5.3320    1.3150    0.8760 C.2     1  UNL1        0.0000
     12  C          5.4440    0.3030    1.8270 C.2     1  UNL1        0.0000
@<TRIPOS>BOND
     1     5     4    1
     2     4     2    1
     3     3     2    2
     4     2     1    1
     5     1     6    1
     6     6     7    1
     7     7     9    2
     8     7     8    1
     9     9    11    1
    10     8    10    2
    11    11    12    2
    12    10    12    1
