MODEL 1
REMARK VINA RESULT:      -7.4      0.000      0.000
REMARK SMILES O=C(O)CCc1ccccc1
REMARK SMILES IDX 4 1 2 2 1 3 3 4 5 6 6 7 7 8 11 9 8 10 10 11 9 12
REMARK H PARENT 3 5
REMARK Flexibility Score: inf
ROOT
ATOM      1  C   UNL     1       8.431  -0.591  -2.185  1.00  0.00     0.127 C 
ENDROOT
BRANCH   1   2
ATOM      2  C   UNL     1       8.498  -1.889  -2.907  1.00  0.00     0.303 C 
ATOM      3  O   UNL     1       9.563  -2.527  -3.105  1.00  0.00    -0.252 OA
BRANCH   2   4
ATOM      4  O   UNL     1       7.326  -2.444  -3.398  1.00  0.00    -0.481 OA
ATOM      5  H   UNL     1       7.437  -3.162  -4.117  1.00  0.00     0.296 HD
ENDBRANCH   2   4
ENDBRANCH   1   2
BRANCH   1   6
ATOM      6  C   UNL     1       7.003  -0.135  -2.111  1.00  0.00     0.047 C 
BRANCH   6   7
ATOM      7  C   UNL     1       6.479  -0.012  -0.753  1.00  0.00    -0.047 A 
ATOM      8  C   UNL     1       6.579  -0.999   0.197  1.00  0.00     0.004 A 
ATOM      9  C   UNL     1       5.845   1.150  -0.390  1.00  0.00     0.004 A 
ATOM     10  C   UNL     1       6.080  -0.867   1.471  1.00  0.00     0.000 A 
ATOM     11  C   UNL     1       5.332   1.315   0.876  1.00  0.00     0.000 A 
ATOM     12  C   UNL     1       5.444   0.303   1.827  1.00  0.00     0.000 A 
ENDBRANCH   6   7
ENDBRANCH   1   6
TORSDOF 4
ENDMDL
MODEL 2
REMARK VINA RESULT:      -7.4      0.053      1.426
REMARK SMILES O=C(O)CCc1ccccc1
REMARK SMILES IDX 4 1 2 2 1 3 3 4 5 6 6 7 7 8 11 9 8 10 10 11 9 12
REMARK H PARENT 3 5
REMARK Flexibility Score: inf
ROOT
ATOM      1  C   UNL     1       8.444  -0.597  -2.177  1.00  0.00     0.127 C 
ENDROOT
BRANCH   1   2
ATOM      2  C   UNL     1       8.507  -1.887  -2.911  1.00  0.00     0.303 C 
ATOM      3  O   UNL     1       9.569  -2.533  -3.104  1.00  0.00    -0.252 OA
BRANCH   2   4
ATOM      4  O   UNL     1       7.336  -2.427  -3.421  1.00  0.00    -0.481 OA
ATOM      5  H   UNL     1       6.848  -1.861  -4.119  1.00  0.00     0.296 HD
ENDBRANCH   2   4
ENDBRANCH   1   2
BRANCH   1   6
ATOM      6  C   UNL     1       7.023  -0.114  -2.137  1.00  0.00     0.047 C 
BRANCH   6   7
ATOM      7  C   UNL     1       6.479   0.049  -0.791  1.00  0.00    -0.047 A 
ATOM      8  C   UNL     1       5.827   1.179  -0.362  1.00  0.00     0.004 A 
ATOM      9  C   UNL     1       6.619  -0.978   0.109  1.00  0.00     0.004 A 
ATOM     10  C   UNL     1       5.321   1.316   0.908  1.00  0.00     0.000 A 
ATOM     11  C   UNL     1       6.125  -0.875   1.389  1.00  0.00     0.000 A 
ATOM     12  C   UNL     1       5.466   0.281   1.806  1.00  0.00     0.000 A 
ENDBRANCH   6   7
ENDBRANCH   1   6
TORSDOF 4
ENDMDL
MODEL 3
REMARK VINA RESULT:      -6.8      3.377      5.095
REMARK SMILES O=C(O)CCc1ccccc1
REMARK SMILES IDX 4 1 2 2 1 3 3 4 5 6 6 7 7 8 11 9 8 10 10 11 9 12
REMARK H PARENT 3 5
REMARK Flexibility Score: inf
ROOT
ATOM      1  C   UNL     1       5.020   1.819   0.732  1.00  0.00     0.127 C 
ENDROOT
BRANCH   1   2
ATOM      2  C   UNL     1       4.500   1.104   1.926  1.00  0.00     0.303 C 
ATOM      3  O   UNL     1       5.116   0.178   2.513  1.00  0.00    -0.252 OA
BRANCH   2   4
ATOM      4  O   UNL     1       3.263   1.466   2.439  1.00  0.00    -0.481 OA
ATOM      5  H   UNL     1       2.999   1.027   3.324  1.00  0.00     0.296 HD
ENDBRANCH   2   4
ENDBRANCH   1   2
BRANCH   1   6
ATOM      6  C   UNL     1       6.520   1.818   0.763  1.00  0.00     0.047 C 
BRANCH   6   7
ATOM      7  C   UNL     1       7.147   1.066  -0.321  1.00  0.00    -0.047 A 
ATOM      8  C   UNL     1       8.463   1.204  -0.686  1.00  0.00     0.004 A 
ATOM      9  C   UNL     1       6.388   0.164  -1.026  1.00  0.00     0.004 A 
ATOM     10  C   UNL     1       9.037   0.488  -1.710  1.00  0.00     0.000 A 
ATOM     11  C   UNL     1       6.929  -0.569  -2.056  1.00  0.00     0.000 A 
ATOM     12  C   UNL     1       8.268  -0.415  -2.413  1.00  0.00     0.000 A 
ENDBRANCH   6   7
ENDBRANCH   1   6
TORSDOF 4
ENDMDL
MODEL 4
REMARK VINA RESULT:      -6.8      3.366      5.065
REMARK SMILES O=C(O)CCc1ccccc1
REMARK SMILES IDX 4 1 2 2 1 3 3 4 5 6 6 7 7 8 11 9 8 10 10 11 9 12
REMARK H PARENT 3 5
REMARK Flexibility Score: inf
ROOT
ATOM      1  C   UNL     1       4.989   1.792   0.676  1.00  0.00     0.127 C 
ENDROOT
BRANCH   1   2
ATOM      2  C   UNL     1       4.516   1.094   1.900  1.00  0.00     0.303 C 
ATOM      3  O   UNL     1       5.167   0.194   2.490  1.00  0.00    -0.252 OA
BRANCH   2   4
ATOM      4  O   UNL     1       3.287   1.443   2.439  1.00  0.00    -0.481 OA
ATOM      5  H   UNL     1       2.621   1.874   1.793  1.00  0.00     0.296 HD
ENDBRANCH   2   4
ENDBRANCH   1   2
BRANCH   1   6
ATOM      6  C   UNL     1       6.489   1.831   0.672  1.00  0.00     0.047 C 
BRANCH   6   7
ATOM      7  C   UNL     1       7.111   1.031  -0.381  1.00  0.00    -0.047 A 
ATOM      8  C   UNL     1       6.435   0.103  -1.136  1.00  0.00     0.004 A 
ATOM      9  C   UNL     1       8.447   1.204  -0.643  1.00  0.00     0.004 A 
ATOM     10  C   UNL     1       7.036  -0.641  -2.123  1.00  0.00     0.000 A 
ATOM     11  C   UNL     1       9.081   0.475  -1.623  1.00  0.00     0.000 A 
ATOM     12  C   UNL     1       8.378  -0.462  -2.379  1.00  0.00     0.000 A 
ENDBRANCH   6   7
ENDBRANCH   1   6
TORSDOF 4
ENDMDL
MODEL 5
REMARK VINA RESULT:      -6.7      1.958      2.663
REMARK SMILES O=C(O)CCc1ccccc1
REMARK SMILES IDX 4 1 2 2 1 3 3 4 5 6 6 7 7 8 11 9 8 10 10 11 9 12
REMARK H PARENT 3 5
REMARK Flexibility Score: inf
ROOT
ATOM      1  C   UNL     1       8.291   0.134  -2.196  1.00  0.00     0.127 C 
ENDROOT
BRANCH   1   2
ATOM      2  C   UNL     1       9.400   0.332  -1.226  1.00  0.00     0.303 C 
ATOM      3  O   UNL     1       9.539  -0.341  -0.173  1.00  0.00    -0.252 OA
BRANCH   2   4
ATOM      4  O   UNL     1      10.347   1.312  -1.481  1.00  0.00    -0.481 OA
ATOM      5  H   UNL     1      10.402   2.071  -0.798  1.00  0.00     0.296 HD
ENDBRANCH   2   4
ENDBRANCH   1   2
BRANCH   1   6
ATOM      6  C   UNL     1       7.161  -0.586  -1.522  1.00  0.00     0.047 C 
BRANCH   6   7
ATOM      7  C   UNL     1       6.371   0.243  -0.614  1.00  0.00    -0.047 A 
ATOM      8  C   UNL     1       5.827   1.454  -0.964  1.00  0.00     0.004 A 
ATOM      9  C   UNL     1       6.153  -0.200   0.667  1.00  0.00     0.004 A 
ATOM     10  C   UNL     1       5.087   2.222  -0.097  1.00  0.00     0.000 A 
ATOM     11  C   UNL     1       5.418   0.543   1.561  1.00  0.00     0.000 A 
ATOM     12  C   UNL     1       4.872   1.770   1.188  1.00  0.00     0.000 A 
ENDBRANCH   6   7
ENDBRANCH   1   6
TORSDOF 4
ENDMDL
