MODEL 1
REMARK VINA RESULT:      -7.3      0.000      0.000
REMARK SMILES O=C(O)CCc1ccccc1
REMARK SMILES IDX 4 1 2 2 1 3 3 4 5 6 6 7 7 8 11 9 8 10 10 11 9 12
REMARK H PARENT 3 5
REMARK Flexibility Score: inf
ROOT
ATOM      1  C   UNL     1       8.437  -0.559  -2.221  1.00  0.00     0.127 C 
ENDROOT
BRANCH   1   2
ATOM      2  C   UNL     1       8.515  -1.873  -2.912  1.00  0.00     0.303 C 
ATOM      3  O   UNL     1       9.585  -2.507  -3.093  1.00  0.00    -0.252 OA
BRANCH   2   4
ATOM      4  O   UNL     1       7.348  -2.449  -3.391  1.00  0.00    -0.481 OA
ATOM      5  H   UNL     1       7.012  -2.099  -4.291  1.00  0.00     0.296 HD
ENDBRANCH   2   4
ENDBRANCH   1   2
BRANCH   1   6
ATOM      6  C   UNL     1       7.009  -0.101  -2.179  1.00  0.00     0.047 C 
BRANCH   6   7
ATOM      7  C   UNL     1       6.475   0.087  -0.832  1.00  0.00    -0.047 A 
ATOM      8  C   UNL     1       5.844   1.232  -0.414  1.00  0.00     0.004 A 
ATOM      9  C   UNL     1       6.604  -0.931   0.080  1.00  0.00     0.004 A 
ATOM     10  C   UNL     1       5.347   1.393   0.858  1.00  0.00     0.000 A 
ATOM     11  C   UNL     1       6.119  -0.804   1.361  1.00  0.00     0.000 A 
ATOM     12  C   UNL     1       5.480   0.366   1.768  1.00  0.00     0.000 A 
ENDBRANCH   6   7
ENDBRANCH   1   6
TORSDOF 4
ENDMDL
MODEL 2
REMARK VINA RESULT:      -7.3      0.046      1.426
REMARK SMILES O=C(O)CCc1ccccc1
REMARK SMILES IDX 4 1 2 2 1 3 3 4 5 6 6 7 7 8 11 9 8 10 10 11 9 12
REMARK H PARENT 3 5
REMARK Flexibility Score: inf
ROOT
ATOM      1  C   UNL     1       8.421  -0.511  -2.285  1.00  0.00     0.127 C 
ENDROOT
BRANCH   1   2
ATOM      2  C   UNL     1       8.498  -1.857  -2.911  1.00  0.00     0.303 C 
ATOM      3  O   UNL     1       9.565  -2.508  -3.045  1.00  0.00    -0.252 OA
BRANCH   2   4
ATOM      4  O   UNL     1       7.334  -2.445  -3.381  1.00  0.00    -0.481 OA
ATOM      5  H   UNL     1       7.431  -3.029  -4.215  1.00  0.00     0.296 HD
ENDBRANCH   2   4
ENDBRANCH   1   2
BRANCH   1   6
ATOM      6  C   UNL     1       6.985  -0.084  -2.193  1.00  0.00     0.047 C 
BRANCH   6   7
ATOM      7  C   UNL     1       6.481   0.049  -0.828  1.00  0.00    -0.047 A 
ATOM      8  C   UNL     1       6.583  -0.935   0.124  1.00  0.00     0.004 A 
ATOM      9  C   UNL     1       5.867   1.221  -0.461  1.00  0.00     0.004 A 
ATOM     10  C   UNL     1       6.103  -0.792   1.404  1.00  0.00     0.000 A 
ATOM     11  C   UNL     1       5.374   1.397   0.811  1.00  0.00     0.000 A 
ATOM     12  C   UNL     1       5.487   0.387   1.765  1.00  0.00     0.000 A 
ENDBRANCH   6   7
ENDBRANCH   1   6
TORSDOF 4
ENDMDL
MODEL 3
REMARK VINA RESULT:      -6.8      3.373      5.066
REMARK SMILES O=C(O)CCc1ccccc1
REMARK SMILES IDX 4 1 2 2 1 3 3 4 5 6 6 7 7 8 11 9 8 10 10 11 9 12
REMARK H PARENT 3 5
REMARK Flexibility Score: inf
ROOT
ATOM      1  C   UNL     1       5.008   1.816   0.719  1.00  0.00     0.127 C 
ENDROOT
BRANCH   1   2
ATOM      2  C   UNL     1       4.499   1.101   1.918  1.00  0.00     0.303 C 
ATOM      3  O   UNL     1       5.120   0.175   2.499  1.00  0.00    -0.252 OA
BRANCH   2   4
ATOM      4  O   UNL     1       3.268   1.464   2.442  1.00  0.00    -0.481 OA
ATOM      5  H   UNL     1       3.291   2.094   3.247  1.00  0.00     0.296 HD
ENDBRANCH   2   4
ENDBRANCH   1   2
BRANCH   1   6
ATOM      6  C   UNL     1       6.508   1.845   0.753  1.00  0.00     0.047 C 
BRANCH   6   7
ATOM      7  C   UNL     1       7.152   1.094  -0.322  1.00  0.00    -0.047 A 
ATOM      8  C   UNL     1       8.478   1.220  -0.654  1.00  0.00     0.004 A 
ATOM      9  C   UNL     1       6.400   0.209  -1.054  1.00  0.00     0.004 A 
ATOM     10  C   UNL     1       9.068   0.505  -1.670  1.00  0.00     0.000 A 
ATOM     11  C   UNL     1       6.957  -0.522  -2.078  1.00  0.00     0.000 A 
ATOM     12  C   UNL     1       8.306  -0.381  -2.400  1.00  0.00     0.000 A 
ENDBRANCH   6   7
ENDBRANCH   1   6
TORSDOF 4
ENDMDL
MODEL 4
REMARK VINA RESULT:      -6.7      3.827      4.904
REMARK SMILES O=C(O)CCc1ccccc1
REMARK SMILES IDX 4 1 2 2 1 3 3 4 5 6 6 7 7 8 11 9 8 10 10 11 9 12
REMARK H PARENT 3 5
REMARK Flexibility Score: inf
ROOT
ATOM      1  C   UNL     1       5.532   2.888  -0.053  1.00  0.00     0.127 C 
ENDROOT
BRANCH   1   2
ATOM      2  C   UNL     1       6.316   3.858   0.755  1.00  0.00     0.303 C 
ATOM      3  O   UNL     1       7.024   4.772   0.262  1.00  0.00    -0.252 OA
BRANCH   2   4
ATOM      4  O   UNL     1       6.276   3.764   2.138  1.00  0.00    -0.481 OA
ATOM      5  H   UNL     1       6.164   4.646   2.644  1.00  0.00     0.296 HD
ENDBRANCH   2   4
ENDBRANCH   1   2
BRANCH   1   6
ATOM      6  C   UNL     1       4.970   1.827   0.846  1.00  0.00     0.047 C 
BRANCH   6   7
ATOM      7  C   UNL     1       5.737   0.584   0.866  1.00  0.00    -0.047 A 
ATOM      8  C   UNL     1       6.340   0.040  -0.242  1.00  0.00     0.004 A 
ATOM      9  C   UNL     1       5.871  -0.093   2.053  1.00  0.00     0.004 A 
ATOM     10  C   UNL     1       7.058  -1.131  -0.205  1.00  0.00     0.000 A 
ATOM     11  C   UNL     1       6.582  -1.269   2.125  1.00  0.00     0.000 A 
ATOM     12  C   UNL     1       7.188  -1.805   0.990  1.00  0.00     0.000 A 
ENDBRANCH   6   7
ENDBRANCH   1   6
TORSDOF 4
ENDMDL
MODEL 5
REMARK VINA RESULT:      -6.6      2.087      2.733
REMARK SMILES O=C(O)CCc1ccccc1
REMARK SMILES IDX 4 1 2 2 1 3 3 4 5 6 6 7 7 8 11 9 8 10 10 11 9 12
REMARK H PARENT 3 5
REMARK Flexibility Score: inf
ROOT
ATOM      1  C   UNL     1       8.527   0.674  -1.689  1.00  0.00     0.127 C 
ENDROOT
BRANCH   1   2
ATOM      2  C   UNL     1       9.654   0.286  -0.802  1.00  0.00     0.303 C 
ATOM      3  O   UNL     1       9.538  -0.491   0.180  1.00  0.00    -0.252 OA
BRANCH   2   4
ATOM      4  O   UNL     1      10.916   0.800  -1.057  1.00  0.00    -0.481 OA
ATOM      5  H   UNL     1      11.134   1.695  -0.613  1.00  0.00     0.296 HD
ENDBRANCH   2   4
ENDBRANCH   1   2
BRANCH   1   6
ATOM      6  C   UNL     1       7.341  -0.199  -1.402  1.00  0.00     0.047 C 
BRANCH   6   7
ATOM      7  C   UNL     1       6.455   0.310  -0.358  1.00  0.00    -0.047 A 
ATOM      8  C   UNL     1       6.216  -0.342   0.827  1.00  0.00     0.004 A 
ATOM      9  C   UNL     1       5.816   1.509  -0.558  1.00  0.00     0.004 A 
ATOM     10  C   UNL     1       5.379   0.151   1.799  1.00  0.00     0.000 A 
ATOM     11  C   UNL     1       4.971   2.032   0.394  1.00  0.00     0.000 A 
ATOM     12  C   UNL     1       4.741   1.355   1.591  1.00  0.00     0.000 A 
ENDBRANCH   6   7
ENDBRANCH   1   6
TORSDOF 4
ENDMDL
