@<TRIPOS>MOLECULE
/home/cewinharhar/GITHUB/reincatalyze/data/processed/docking_pred/2023-Apr-25-2140_maxeplen10_maxtrainstep200_exh16_gamma099_lrac3e-4_lrcr1e-3/b1cc709a4c09585943c6b669d8b61c6b26bf0288_ligand_2.pdbqt
 12 12 0 0 0
SMALL
GASTEIGER

@<TRIPOS>ATOM
      1  C          8.4210   -0.5110   -2.2850 C.3     1  UNL1        0.1270
      2  C          8.4980   -1.8570   -2.9110 C.2     1  UNL1        0.3030
      3  O          9.5650   -2.5080   -3.0450 O.2     1  UNL1       -0.2520
      4  O          7.3340   -2.4450   -3.3810 O.3     1  UNL1       -0.4810
      5  H          7.4310   -3.0290   -4.2150 H       1  UNL1        0.2960
      6  C          6.9850   -0.0840   -2.1930 C.3     1  UNL1        0.0470
      7  C          6.4810    0.0490   -0.8280 C.2     1  UNL1       -0.0470
      8  C          6.5830   -0.9350    0.1240 C.2     1  UNL1        0.0040
      9  C          5.8670    1.2210   -0.4610 C.2     1  UNL1        0.0040
     10  C          6.1030   -0.7920    1.4040 C.2     1  UNL1        0.0000
     11  C          5.3740    1.3970    0.8110 C.2     1  UNL1        0.0000
     12  C          5.4870    0.3870    1.7650 C.2     1  UNL1        0.0000
@<TRIPOS>BOND
     1     5     4    1
     2     4     2    1
     3     3     2    2
     4     2     1    1
     5     1     6    1
     6     6     7    1
     7     7     9    2
     8     7     8    1
     9     9    11    1
    10     8    10    2
    11    11    12    2
    12    10    12    1
