@<TRIPOS>MOLECULE
/home/cewinharhar/GITHUB/reincatalyze/data/processed/docking_pred/2023-Apr-25-2140_maxeplen10_maxtrainstep200_exh16_gamma099_lrac3e-4_lrcr1e-3/b1cc709a4c09585943c6b669d8b61c6b26bf0288_ligand_2.pdbqt
 12 12 0 0 0
SMALL
GASTEIGER

@<TRIPOS>ATOM
      1  C          8.5270    0.6740   -1.6890 C.3     1  UNL1        0.1270
      2  C          9.6540    0.2860   -0.8020 C.2     1  UNL1        0.3030
      3  O          9.5380   -0.4910    0.1800 O.2     1  UNL1       -0.2520
      4  O         10.9160    0.8000   -1.0570 O.3     1  UNL1       -0.4810
      5  H         11.1340    1.6950   -0.6130 H       1  UNL1        0.2960
      6  C          7.3410   -0.1990   -1.4020 C.3     1  UNL1        0.0470
      7  C          6.4550    0.3100   -0.3580 C.2     1  UNL1       -0.0470
      8  C          6.2160   -0.3420    0.8270 C.2     1  UNL1        0.0040
      9  C          5.8160    1.5090   -0.5580 C.2     1  UNL1        0.0040
     10  C          5.3790    0.1510    1.7990 C.2     1  UNL1        0.0000
     11  C          4.9710    2.0320    0.3940 C.2     1  UNL1        0.0000
     12  C          4.7410    1.3550    1.5910 C.2     1  UNL1        0.0000
@<TRIPOS>BOND
     1     1     6    1
     2     1     2    1
     3     6     7    1
     4     4     2    1
     5     4     5    1
     6     2     3    2
     7     9     7    2
     8     9    11    1
     9     7     8    1
    10    11    12    2
    11     8    10    2
    12    12    10    1
