@<TRIPOS>MOLECULE
/home/cewinharhar/GITHUB/reincatalyze/data/processed/docking_pred/2023-Apr-25-2140_maxeplen10_maxtrainstep200_exh16_gamma099_lrac3e-4_lrcr1e-3/b1cc709a4c09585943c6b669d8b61c6b26bf0288_ligand_2.pdbqt
 12 12 0 0 0
SMALL
GASTEIGER

@<TRIPOS>ATOM
      1  C          5.0080    1.8160    0.7190 C.3     1  UNL1        0.1270
      2  C          4.4990    1.1010    1.9180 C.2     1  UNL1        0.3030
      3  O          5.1200    0.1750    2.4990 O.2     1  UNL1       -0.2520
      4  O          3.2680    1.4640    2.4420 O.3     1  UNL1       -0.4810
      5  H          3.2910    2.0940    3.2470 H       1  UNL1        0.2960
      6  C          6.5080    1.8450    0.7530 C.3     1  UNL1        0.0470
      7  C          7.1520    1.0940   -0.3220 C.2     1  UNL1       -0.0470
      8  C          8.4780    1.2200   -0.6540 C.2     1  UNL1        0.0040
      9  C          6.4000    0.2090   -1.0540 C.2     1  UNL1        0.0040
     10  C          9.0680    0.5050   -1.6700 C.2     1  UNL1        0.0000
     11  C          6.9570   -0.5220   -2.0780 C.2     1  UNL1        0.0000
     12  C          8.3060   -0.3810   -2.4000 C.2     1  UNL1        0.0000
@<TRIPOS>BOND
     1    12    11    2
     2    12    10    1
     3    11     9    1
     4    10     8    2
     5     9     7    2
     6     8     7    1
     7     7     6    1
     8     1     6    1
     9     1     2    1
    10     2     4    1
    11     2     3    2
    12     4     5    1
