@<TRIPOS>MOLECULE
/home/cewinharhar/GITHUB/reincatalyze/data/processed/docking_pred/2023-Apr-25-2140_maxeplen10_maxtrainstep200_exh16_gamma099_lrac3e-4_lrcr1e-3/b1cc709a4c09585943c6b669d8b61c6b26bf0288_ligand_2.pdbqt
 12 12 0 0 0
SMALL
GASTEIGER

@<TRIPOS>ATOM
      1  C          5.5320    2.8880   -0.0530 C.3     1  UNL1        0.1270
      2  C          6.3160    3.8580    0.7550 C.2     1  UNL1        0.3030
      3  O          7.0240    4.7720    0.2620 O.2     1  UNL1       -0.2520
      4  O          6.2760    3.7640    2.1380 O.3     1  UNL1       -0.4810
      5  H          6.1640    4.6460    2.6440 H       1  UNL1        0.2960
      6  C          4.9700    1.8270    0.8460 C.3     1  UNL1        0.0470
      7  C          5.7370    0.5840    0.8660 C.2     1  UNL1       -0.0470
      8  C          6.3400    0.0400   -0.2420 C.2     1  UNL1        0.0040
      9  C          5.8710   -0.0930    2.0530 C.2     1  UNL1        0.0040
     10  C          7.0580   -1.1310   -0.2050 C.2     1  UNL1        0.0000
     11  C          6.5820   -1.2690    2.1250 C.2     1  UNL1        0.0000
     12  C          7.1880   -1.8050    0.9900 C.2     1  UNL1        0.0000
@<TRIPOS>BOND
     1     8    10    1
     2     8     7    2
     3    10    12    2
     4     1     2    1
     5     1     6    1
     6     3     2    2
     7     2     4    1
     8     6     7    1
     9     7     9    1
    10    12    11    1
    11     9    11    2
    12     4     5    1
