@<TRIPOS>MOLECULE
/home/cewinharhar/GITHUB/reincatalyze/data/processed/docking_pred/2023-Apr-25-2140_maxeplen10_maxtrainstep200_exh16_gamma099_lrac3e-4_lrcr1e-3/b1cc709a4c09585943c6b669d8b61c6b26bf0288_ligand_2.pdbqt
 12 12 0 0 0
SMALL
GASTEIGER

@<TRIPOS>ATOM
      1  C          8.4370   -0.5590   -2.2210 C.3     1  UNL1        0.1270
      2  C          8.5150   -1.8730   -2.9120 C.2     1  UNL1        0.3030
      3  O          9.5850   -2.5070   -3.0930 O.2     1  UNL1       -0.2520
      4  O          7.3480   -2.4490   -3.3910 O.3     1  UNL1       -0.4810
      5  H          7.0120   -2.0990   -4.2910 H       1  UNL1        0.2960
      6  C          7.0090   -0.1010   -2.1790 C.3     1  UNL1        0.0470
      7  C          6.4750    0.0870   -0.8320 C.2     1  UNL1       -0.0470
      8  C          5.8440    1.2320   -0.4140 C.2     1  UNL1        0.0040
      9  C          6.6040   -0.9310    0.0800 C.2     1  UNL1        0.0040
     10  C          5.3470    1.3930    0.8580 C.2     1  UNL1        0.0000
     11  C          6.1190   -0.8040    1.3610 C.2     1  UNL1        0.0000
     12  C          5.4800    0.3660    1.7680 C.2     1  UNL1        0.0000
@<TRIPOS>BOND
     1     5     4    1
     2     4     2    1
     3     3     2    2
     4     2     1    1
     5     1     6    1
     6     6     7    1
     7     7     8    2
     8     7     9    1
     9     8    10    1
    10     9    11    2
    11    10    12    2
    12    11    12    1
