@<TRIPOS>MOLECULE
/home/cewinharhar/GITHUB/reincatalyze/data/processed/docking_pred/2023-Apr-25-2140_maxeplen10_maxtrainstep200_exh16_gamma099_lrac3e-4_lrcr1e-3/b393d0f0af23d36e99ef7bf88514b4beffd0378d_ligand_2.pdbqt
 12 12 0 0 0
SMALL
GASTEIGER

@<TRIPOS>ATOM
      1  C          5.0240    1.7560    0.7350 C.3     1  UNL1        0.1270
      2  C          4.5910    1.0090    1.9450 C.2     1  UNL1        0.3030
      3  O          5.2800    0.1180    2.5030 O.2     1  UNL1       -0.2520
      4  O          3.3570    1.3000    2.5060 O.3     1  UNL1       -0.4810
      5  H          2.9610    2.2130    2.2710 H       1  UNL1        0.2960
      6  C          6.5210    1.8620    0.7230 C.3     1  UNL1        0.0470
      7  C          7.1720    1.0930   -0.3350 C.2     1  UNL1       -0.0470
      8  C          8.5140    1.1690   -0.6190 C.2     1  UNL1        0.0040
      9  C          6.4130    0.2430   -1.0990 C.2     1  UNL1        0.0040
     10  C          9.1100    0.4380   -1.6190 C.2     1  UNL1        0.0000
     11  C          6.9770   -0.5030   -2.1080 C.2     1  UNL1        0.0000
     12  C          8.3410   -0.4140   -2.3810 C.2     1  UNL1        0.0000
@<TRIPOS>BOND
     1    12    11    2
     2    12    10    1
     3    11     9    1
     4    10     8    2
     5     9     7    2
     6     8     7    1
     7     7     6    1
     8     6     1    1
     9     1     2    1
    10     2     3    2
    11     2     4    1
    12     5     4    1
