@<TRIPOS>MOLECULE
/home/cewinharhar/GITHUB/reincatalyze/data/processed/docking_pred/2023-Apr-25-2140_maxeplen10_maxtrainstep200_exh16_gamma099_lrac3e-4_lrcr1e-3/b393d0f0af23d36e99ef7bf88514b4beffd0378d_ligand_2.pdbqt
 12 12 0 0 0
SMALL
GASTEIGER

@<TRIPOS>ATOM
      1  C          8.4390   -0.5760   -2.1980 C.3     1  UNL1        0.1270
      2  C          8.5080   -1.8780   -2.9120 C.2     1  UNL1        0.3030
      3  O          9.5730   -2.5190   -3.0990 O.2     1  UNL1       -0.2520
      4  O          7.3380   -2.4330   -3.4090 O.3     1  UNL1       -0.4810
      5  H          6.9370   -3.1980   -2.8620 H       1  UNL1        0.2960
      6  C          7.0090   -0.1270   -2.1160 C.3     1  UNL1        0.0470
      7  C          6.4900   -0.0130   -0.7550 C.2     1  UNL1       -0.0470
      8  C          6.5970   -1.0040    0.1900 C.2     1  UNL1        0.0040
      9  C          5.8530    1.1450   -0.3840 C.2     1  UNL1        0.0040
     10  C          6.1020   -0.8810    1.4660 C.2     1  UNL1        0.0000
     11  C          5.3450    1.3020    0.8850 C.2     1  UNL1        0.0000
     12  C          5.4640    0.2850    1.8310 C.2     1  UNL1        0.0000
@<TRIPOS>BOND
     1     4     2    1
     2     4     5    1
     3     3     2    2
     4     2     1    1
     5     1     6    1
     6     6     7    1
     7     7     9    2
     8     7     8    1
     9     9    11    1
    10     8    10    2
    11    11    12    2
    12    10    12    1
