MODEL 1
REMARK VINA RESULT:      -7.4      0.000      0.000
REMARK SMILES O=C(O)CCc1ccccc1
REMARK SMILES IDX 4 1 2 2 1 3 3 4 5 6 6 7 7 8 11 9 8 10 10 11 9 12
REMARK H PARENT 3 5
REMARK Flexibility Score: inf
ROOT
ATOM      1  C   UNL     1       8.439  -0.576  -2.198  1.00  0.00     0.127 C 
ENDROOT
BRANCH   1   2
ATOM      2  C   UNL     1       8.508  -1.878  -2.912  1.00  0.00     0.303 C 
ATOM      3  O   UNL     1       9.573  -2.519  -3.099  1.00  0.00    -0.252 OA
BRANCH   2   4
ATOM      4  O   UNL     1       7.338  -2.433  -3.409  1.00  0.00    -0.481 OA
ATOM      5  H   UNL     1       6.937  -3.198  -2.862  1.00  0.00     0.296 HD
ENDBRANCH   2   4
ENDBRANCH   1   2
BRANCH   1   6
ATOM      6  C   UNL     1       7.009  -0.127  -2.116  1.00  0.00     0.047 C 
BRANCH   6   7
ATOM      7  C   UNL     1       6.490  -0.013  -0.755  1.00  0.00    -0.047 A 
ATOM      8  C   UNL     1       6.597  -1.004   0.190  1.00  0.00     0.004 A 
ATOM      9  C   UNL     1       5.853   1.145  -0.384  1.00  0.00     0.004 A 
ATOM     10  C   UNL     1       6.102  -0.881   1.466  1.00  0.00     0.000 A 
ATOM     11  C   UNL     1       5.345   1.302   0.885  1.00  0.00     0.000 A 
ATOM     12  C   UNL     1       5.464   0.285   1.831  1.00  0.00     0.000 A 
ENDBRANCH   6   7
ENDBRANCH   1   6
TORSDOF 4
ENDMDL
MODEL 2
REMARK VINA RESULT:      -7.3      0.113      1.429
REMARK SMILES O=C(O)CCc1ccccc1
REMARK SMILES IDX 4 1 2 2 1 3 3 4 5 6 6 7 7 8 11 9 8 10 10 11 9 12
REMARK H PARENT 3 5
REMARK Flexibility Score: inf
ROOT
ATOM      1  C   UNL     1       8.442  -0.545  -2.238  1.00  0.00     0.127 C 
ENDROOT
BRANCH   1   2
ATOM      2  C   UNL     1       8.523  -1.858  -2.930  1.00  0.00     0.303 C 
ATOM      3  O   UNL     1       9.595  -2.487  -3.117  1.00  0.00    -0.252 OA
BRANCH   2   4
ATOM      4  O   UNL     1       7.356  -2.439  -3.403  1.00  0.00    -0.481 OA
ATOM      5  H   UNL     1       6.616  -1.792  -3.685  1.00  0.00     0.296 HD
ENDBRANCH   2   4
ENDBRANCH   1   2
BRANCH   1   6
ATOM      6  C   UNL     1       7.014  -0.088  -2.199  1.00  0.00     0.047 C 
BRANCH   6   7
ATOM      7  C   UNL     1       6.478   0.103  -0.853  1.00  0.00    -0.047 A 
ATOM      8  C   UNL     1       5.872   1.261  -0.429  1.00  0.00     0.004 A 
ATOM      9  C   UNL     1       6.577  -0.924   0.051  1.00  0.00     0.004 A 
ATOM     10  C   UNL     1       5.373   1.423   0.841  1.00  0.00     0.000 A 
ATOM     11  C   UNL     1       6.089  -0.796   1.331  1.00  0.00     0.000 A 
ATOM     12  C   UNL     1       5.477   0.387   1.744  1.00  0.00     0.000 A 
ENDBRANCH   6   7
ENDBRANCH   1   6
TORSDOF 4
ENDMDL
MODEL 3
REMARK VINA RESULT:      -6.7      3.348      5.054
REMARK SMILES O=C(O)CCc1ccccc1
REMARK SMILES IDX 4 1 2 2 1 3 3 4 5 6 6 7 7 8 11 9 8 10 10 11 9 12
REMARK H PARENT 3 5
REMARK Flexibility Score: inf
ROOT
ATOM      1  C   UNL     1       5.024   1.756   0.735  1.00  0.00     0.127 C 
ENDROOT
BRANCH   1   2
ATOM      2  C   UNL     1       4.591   1.009   1.945  1.00  0.00     0.303 C 
ATOM      3  O   UNL     1       5.280   0.118   2.503  1.00  0.00    -0.252 OA
BRANCH   2   4
ATOM      4  O   UNL     1       3.357   1.300   2.506  1.00  0.00    -0.481 OA
ATOM      5  H   UNL     1       2.961   2.213   2.271  1.00  0.00     0.296 HD
ENDBRANCH   2   4
ENDBRANCH   1   2
BRANCH   1   6
ATOM      6  C   UNL     1       6.521   1.862   0.723  1.00  0.00     0.047 C 
BRANCH   6   7
ATOM      7  C   UNL     1       7.172   1.093  -0.335  1.00  0.00    -0.047 A 
ATOM      8  C   UNL     1       8.514   1.169  -0.619  1.00  0.00     0.004 A 
ATOM      9  C   UNL     1       6.413   0.243  -1.099  1.00  0.00     0.004 A 
ATOM     10  C   UNL     1       9.110   0.438  -1.619  1.00  0.00     0.000 A 
ATOM     11  C   UNL     1       6.977  -0.503  -2.108  1.00  0.00     0.000 A 
ATOM     12  C   UNL     1       8.341  -0.414  -2.381  1.00  0.00     0.000 A 
ENDBRANCH   6   7
ENDBRANCH   1   6
TORSDOF 4
ENDMDL
MODEL 4
REMARK VINA RESULT:      -6.7      3.836      4.970
REMARK SMILES O=C(O)CCc1ccccc1
REMARK SMILES IDX 4 1 2 2 1 3 3 4 5 6 6 7 7 8 11 9 8 10 10 11 9 12
REMARK H PARENT 3 5
REMARK Flexibility Score: inf
ROOT
ATOM      1  C   UNL     1       5.429   2.882   0.006  1.00  0.00     0.127 C 
ENDROOT
BRANCH   1   2
ATOM      2  C   UNL     1       6.237   3.861   0.778  1.00  0.00     0.303 C 
ATOM      3  O   UNL     1       6.922   4.775   0.253  1.00  0.00    -0.252 OA
BRANCH   2   4
ATOM      4  O   UNL     1       6.248   3.777   2.163  1.00  0.00    -0.481 OA
ATOM      5  H   UNL     1       6.783   3.001   2.560  1.00  0.00     0.296 HD
ENDBRANCH   2   4
ENDBRANCH   1   2
BRANCH   1   6
ATOM      6  C   UNL     1       4.915   1.818   0.931  1.00  0.00     0.047 C 
BRANCH   6   7
ATOM      7  C   UNL     1       5.712   0.594   0.946  1.00  0.00    -0.047 A 
ATOM      8  C   UNL     1       6.434   0.139  -0.130  1.00  0.00     0.004 A 
ATOM      9  C   UNL     1       5.753  -0.155   2.095  1.00  0.00     0.004 A 
ATOM     10  C   UNL     1       7.179  -1.016  -0.098  1.00  0.00     0.000 A 
ATOM     11  C   UNL     1       6.488  -1.316   2.162  1.00  0.00     0.000 A 
ATOM     12  C   UNL     1       7.215  -1.763   1.060  1.00  0.00     0.000 A 
ENDBRANCH   6   7
ENDBRANCH   1   6
TORSDOF 4
ENDMDL
MODEL 5
REMARK VINA RESULT:      -6.7      1.958      2.640
REMARK SMILES O=C(O)CCc1ccccc1
REMARK SMILES IDX 4 1 2 2 1 3 3 4 5 6 6 7 7 8 11 9 8 10 10 11 9 12
REMARK H PARENT 3 5
REMARK Flexibility Score: inf
ROOT
ATOM      1  C   UNL     1       8.243   0.277  -2.115  1.00  0.00     0.127 C 
ENDROOT
BRANCH   1   2
ATOM      2  C   UNL     1       9.392   0.370  -1.178  1.00  0.00     0.303 C 
ATOM      3  O   UNL     1       9.528  -0.357  -0.161  1.00  0.00    -0.252 OA
BRANCH   2   4
ATOM      4  O   UNL     1      10.384   1.307  -1.424  1.00  0.00    -0.481 OA
ATOM      5  H   UNL     1      10.856   1.687  -0.600  1.00  0.00     0.296 HD
ENDBRANCH   2   4
ENDBRANCH   1   2
BRANCH   1   6
ATOM      6  C   UNL     1       7.153  -0.542  -1.490  1.00  0.00     0.047 C 
BRANCH   6   7
ATOM      7  C   UNL     1       6.368   0.166  -0.481  1.00  0.00    -0.047 A 
ATOM      8  C   UNL     1       5.786   1.392  -0.687  1.00  0.00     0.004 A 
ATOM      9  C   UNL     1       6.194  -0.416   0.751  1.00  0.00     0.004 A 
ATOM     10  C   UNL     1       5.051   2.044   0.274  1.00  0.00     0.000 A 
ATOM     11  C   UNL     1       5.466   0.209   1.736  1.00  0.00     0.000 A 
ATOM     12  C   UNL     1       4.881   1.454   1.508  1.00  0.00     0.000 A 
ENDBRANCH   6   7
ENDBRANCH   1   6
TORSDOF 4
ENDMDL
