@<TRIPOS>MOLECULE
/home/cewinharhar/GITHUB/reincatalyze/data/processed/docking_pred/2023-Apr-25-2140_maxeplen10_maxtrainstep200_exh16_gamma099_lrac3e-4_lrcr1e-3/b393d0f0af23d36e99ef7bf88514b4beffd0378d_ligand_2.pdbqt
 12 12 0 0 0
SMALL
GASTEIGER

@<TRIPOS>ATOM
      1  C          5.4290    2.8820    0.0060 C.3     1  UNL1        0.1270
      2  C          6.2370    3.8610    0.7780 C.2     1  UNL1        0.3030
      3  O          6.9220    4.7750    0.2530 O.2     1  UNL1       -0.2520
      4  O          6.2480    3.7770    2.1630 O.3     1  UNL1       -0.4810
      5  H          6.7830    3.0010    2.5600 H       1  UNL1        0.2960
      6  C          4.9150    1.8180    0.9310 C.3     1  UNL1        0.0470
      7  C          5.7120    0.5940    0.9460 C.2     1  UNL1       -0.0470
      8  C          6.4340    0.1390   -0.1300 C.2     1  UNL1        0.0040
      9  C          5.7530   -0.1550    2.0950 C.2     1  UNL1        0.0040
     10  C          7.1790   -1.0160   -0.0980 C.2     1  UNL1        0.0000
     11  C          6.4880   -1.3160    2.1620 C.2     1  UNL1        0.0000
     12  C          7.2150   -1.7630    1.0600 C.2     1  UNL1        0.0000
@<TRIPOS>BOND
     1     8    10    1
     2     8     7    2
     3    10    12    2
     4     1     2    1
     5     1     6    1
     6     3     2    2
     7     2     4    1
     8     6     7    1
     9     7     9    1
    10    12    11    1
    11     9    11    2
    12     4     5    1
