@<TRIPOS>MOLECULE
/home/cewinharhar/GITHUB/reincatalyze/data/processed/docking_pred/2023-Apr-25-2140_maxeplen10_maxtrainstep200_exh16_gamma099_lrac3e-4_lrcr1e-3/b393d0f0af23d36e99ef7bf88514b4beffd0378d_ligand_2.pdbqt
 12 12 0 0 0
SMALL
GASTEIGER

@<TRIPOS>ATOM
      1  C          8.2430    0.2770   -2.1150 C.3     1  UNL1        0.1270
      2  C          9.3920    0.3700   -1.1780 C.2     1  UNL1        0.3030
      3  O          9.5280   -0.3570   -0.1610 O.2     1  UNL1       -0.2520
      4  O         10.3840    1.3070   -1.4240 O.3     1  UNL1       -0.4810
      5  H         10.8560    1.6870   -0.6000 H       1  UNL1        0.2960
      6  C          7.1530   -0.5420   -1.4900 C.3     1  UNL1        0.0470
      7  C          6.3680    0.1660   -0.4810 C.2     1  UNL1       -0.0470
      8  C          5.7860    1.3920   -0.6870 C.2     1  UNL1        0.0040
      9  C          6.1940   -0.4160    0.7510 C.2     1  UNL1        0.0040
     10  C          5.0510    2.0440    0.2740 C.2     1  UNL1        0.0000
     11  C          5.4660    0.2090    1.7360 C.2     1  UNL1        0.0000
     12  C          4.8810    1.4540    1.5080 C.2     1  UNL1        0.0000
@<TRIPOS>BOND
     1     1     6    1
     2     1     2    1
     3     6     7    1
     4     4     2    1
     5     4     5    1
     6     2     3    2
     7     8     7    2
     8     8    10    1
     9     7     9    1
    10    10    12    2
    11     9    11    2
    12    12    11    1
