@<TRIPOS>MOLECULE
/home/cewinharhar/GITHUB/reincatalyze/data/processed/docking_pred/2023-Apr-25-2140_maxeplen10_maxtrainstep200_exh16_gamma099_lrac3e-4_lrcr1e-3/b393d0f0af23d36e99ef7bf88514b4beffd0378d_ligand_2.pdbqt
 12 12 0 0 0
SMALL
GASTEIGER

@<TRIPOS>ATOM
      1  C          8.4420   -0.5450   -2.2380 C.3     1  UNL1        0.1270
      2  C          8.5230   -1.8580   -2.9300 C.2     1  UNL1        0.3030
      3  O          9.5950   -2.4870   -3.1170 O.2     1  UNL1       -0.2520
      4  O          7.3560   -2.4390   -3.4030 O.3     1  UNL1       -0.4810
      5  H          6.6160   -1.7920   -3.6850 H       1  UNL1        0.2960
      6  C          7.0140   -0.0880   -2.1990 C.3     1  UNL1        0.0470
      7  C          6.4780    0.1030   -0.8530 C.2     1  UNL1       -0.0470
      8  C          5.8720    1.2610   -0.4290 C.2     1  UNL1        0.0040
      9  C          6.5770   -0.9240    0.0510 C.2     1  UNL1        0.0040
     10  C          5.3730    1.4230    0.8410 C.2     1  UNL1        0.0000
     11  C          6.0890   -0.7960    1.3310 C.2     1  UNL1        0.0000
     12  C          5.4770    0.3870    1.7440 C.2     1  UNL1        0.0000
@<TRIPOS>BOND
     1     5     4    1
     2     4     2    1
     3     3     2    2
     4     2     1    1
     5     1     6    1
     6     6     7    1
     7     7     8    2
     8     7     9    1
     9     8    10    1
    10     9    11    2
    11    10    12    2
    12    11    12    1
