MODEL 1
REMARK VINA RESULT:      -6.9      0.000      0.000
REMARK SMILES O=C(O)CCc1ccccc1
REMARK SMILES IDX 4 1 2 2 1 3 3 4 5 6 6 7 7 8 11 9 8 10 10 11 9 12
REMARK H PARENT 3 5
REMARK Flexibility Score: inf
ROOT
ATOM      1  C   UNL     1       5.055   1.843   0.725  1.00  0.00     0.127 C 
ENDROOT
BRANCH   1   2
ATOM      2  C   UNL     1       4.585   1.157   1.957  1.00  0.00     0.303 C 
ATOM      3  O   UNL     1       5.167   0.171   2.476  1.00  0.00    -0.252 OA
BRANCH   2   4
ATOM      4  O   UNL     1       3.438   1.618   2.585  1.00  0.00    -0.481 OA
ATOM      5  H   UNL     1       2.559   1.188   2.286  1.00  0.00     0.296 HD
ENDBRANCH   2   4
ENDBRANCH   1   2
BRANCH   1   6
ATOM      6  C   UNL     1       6.556   1.844   0.696  1.00  0.00     0.047 C 
BRANCH   6   7
ATOM      7  C   UNL     1       7.139   1.029  -0.366  1.00  0.00    -0.047 A 
ATOM      8  C   UNL     1       6.442   0.079  -1.071  1.00  0.00     0.004 A 
ATOM      9  C   UNL     1       8.461   1.211  -0.691  1.00  0.00     0.004 A 
ATOM     10  C   UNL     1       7.007  -0.680  -2.069  1.00  0.00     0.000 A 
ATOM     11  C   UNL     1       9.059   0.469  -1.683  1.00  0.00     0.000 A 
ATOM     12  C   UNL     1       8.335  -0.491  -2.388  1.00  0.00     0.000 A 
ENDBRANCH   6   7
ENDBRANCH   1   6
TORSDOF 4
ENDMDL
MODEL 2
REMARK VINA RESULT:      -6.9      3.190      5.020
REMARK SMILES O=C(O)CCc1ccccc1
REMARK SMILES IDX 4 1 2 2 1 3 3 4 5 6 6 7 7 8 11 9 8 10 10 11 9 12
REMARK H PARENT 3 5
REMARK Flexibility Score: inf
ROOT
ATOM      1  C   UNL     1       7.247  -1.150  -2.022  1.00  0.00     0.127 C 
ENDROOT
BRANCH   1   2
ATOM      2  C   UNL     1       8.705  -1.141  -2.313  1.00  0.00     0.303 C 
ATOM      3  O   UNL     1       9.493  -0.245  -1.916  1.00  0.00    -0.252 OA
BRANCH   2   4
ATOM      4  O   UNL     1       9.246  -2.174  -3.063  1.00  0.00    -0.481 OA
ATOM      5  H   UNL     1       8.691  -2.484  -3.864  1.00  0.00     0.296 HD
ENDBRANCH   2   4
ENDBRANCH   1   2
BRANCH   1   6
ATOM      6  C   UNL     1       6.763   0.259  -1.848  1.00  0.00     0.047 C 
BRANCH   6   7
ATOM      7  C   UNL     1       6.173   0.538  -0.541  1.00  0.00    -0.047 A 
ATOM      8  C   UNL     1       6.250  -0.318   0.530  1.00  0.00     0.004 A 
ATOM      9  C   UNL     1       5.498   1.719  -0.357  1.00  0.00     0.004 A 
ATOM     10  C   UNL     1       5.689  -0.040   1.754  1.00  0.00     0.000 A 
ATOM     11  C   UNL     1       4.923   2.029   0.854  1.00  0.00     0.000 A 
ATOM     12  C   UNL     1       5.012   1.148   1.931  1.00  0.00     0.000 A 
ENDBRANCH   6   7
ENDBRANCH   1   6
TORSDOF 4
ENDMDL
MODEL 3
REMARK VINA RESULT:      -6.9      3.204      5.034
REMARK SMILES O=C(O)CCc1ccccc1
REMARK SMILES IDX 4 1 2 2 1 3 3 4 5 6 6 7 7 8 11 9 8 10 10 11 9 12
REMARK H PARENT 3 5
REMARK Flexibility Score: inf
ROOT
ATOM      1  C   UNL     1       7.298  -1.184  -1.895  1.00  0.00     0.127 C 
ENDROOT
BRANCH   1   2
ATOM      2  C   UNL     1       8.735  -1.138  -2.273  1.00  0.00     0.303 C 
ATOM      3  O   UNL     1       9.524  -0.227  -1.917  1.00  0.00    -0.252 OA
BRANCH   2   4
ATOM      4  O   UNL     1       9.253  -2.152  -3.064  1.00  0.00    -0.481 OA
ATOM      5  H   UNL     1       8.662  -2.979  -3.177  1.00  0.00     0.296 HD
ENDBRANCH   2   4
ENDBRANCH   1   2
BRANCH   1   6
ATOM      6  C   UNL     1       6.746   0.211  -1.857  1.00  0.00     0.047 C 
BRANCH   6   7
ATOM      7  C   UNL     1       6.145   0.588  -0.580  1.00  0.00    -0.047 A 
ATOM      8  C   UNL     1       5.464   1.762  -0.373  1.00  0.00     0.004 A 
ATOM      9  C   UNL     1       6.258  -0.271   0.485  1.00  0.00     0.004 A 
ATOM     10  C   UNL     1       4.904   2.102   0.835  1.00  0.00     0.000 A 
ATOM     11  C   UNL     1       5.711   0.037   1.709  1.00  0.00     0.000 A 
ATOM     12  C   UNL     1       5.023   1.234   1.900  1.00  0.00     0.000 A 
ENDBRANCH   6   7
ENDBRANCH   1   6
TORSDOF 4
ENDMDL
MODEL 4
REMARK VINA RESULT:      -6.8      2.717      4.661
REMARK SMILES O=C(O)CCc1ccccc1
REMARK SMILES IDX 4 1 2 2 1 3 3 4 5 6 6 7 7 8 11 9 8 10 10 11 9 12
REMARK H PARENT 3 5
REMARK Flexibility Score: inf
ROOT
ATOM      1  C   UNL     1       8.091   0.289  -2.021  1.00  0.00     0.127 C 
ENDROOT
BRANCH   1   2
ATOM      2  C   UNL     1       9.288   0.322  -1.140  1.00  0.00     0.303 C 
ATOM      3  O   UNL     1       9.439  -0.418  -0.135  1.00  0.00    -0.252 OA
BRANCH   2   4
ATOM      4  O   UNL     1      10.309   1.215  -1.429  1.00  0.00    -0.481 OA
ATOM      5  H   UNL     1      11.260   0.871  -1.281  1.00  0.00     0.296 HD
ENDBRANCH   2   4
ENDBRANCH   1   2
BRANCH   1   6
ATOM      6  C   UNL     1       7.023  -0.548  -1.382  1.00  0.00     0.047 C 
BRANCH   6   7
ATOM      7  C   UNL     1       6.296   0.119  -0.305  1.00  0.00    -0.047 A 
ATOM      8  C   UNL     1       6.121  -0.419   0.946  1.00  0.00     0.004 A 
ATOM      9  C   UNL     1       5.750   1.356  -0.542  1.00  0.00     0.004 A 
ATOM     10  C   UNL     1       5.434   0.223   1.949  1.00  0.00     0.000 A 
ATOM     11  C   UNL     1       5.056   2.027   0.439  1.00  0.00     0.000 A 
ATOM     12  C   UNL     1       4.888   1.465   1.703  1.00  0.00     0.000 A 
ENDBRANCH   6   7
ENDBRANCH   1   6
TORSDOF 4
ENDMDL
MODEL 5
REMARK VINA RESULT:      -6.5      3.296      4.716
REMARK SMILES O=C(O)CCc1ccccc1
REMARK SMILES IDX 4 1 2 2 1 3 3 4 5 6 6 7 7 8 11 9 8 10 10 11 9 12
REMARK H PARENT 3 5
REMARK Flexibility Score: inf
ROOT
ATOM      1  C   UNL     1       8.175  -1.616   1.032  1.00  0.00     0.127 C 
ENDROOT
BRANCH   1   2
ATOM      2  C   UNL     1       8.433  -2.779   0.144  1.00  0.00     0.303 C 
ATOM      3  O   UNL     1       9.003  -3.835   0.518  1.00  0.00    -0.252 OA
BRANCH   2   4
ATOM      4  O   UNL     1       8.027  -2.714  -1.181  1.00  0.00    -0.481 OA
ATOM      5  H   UNL     1       8.582  -2.108  -1.790  1.00  0.00     0.296 HD
ENDBRANCH   2   4
ENDBRANCH   1   2
BRANCH   1   6
ATOM      6  C   UNL     1       6.705  -1.523   1.319  1.00  0.00     0.047 C 
BRANCH   6   7
ATOM      7  C   UNL     1       6.102  -0.239   0.968  1.00  0.00    -0.047 A 
ATOM      8  C   UNL     1       6.238   0.359  -0.261  1.00  0.00     0.004 A 
ATOM      9  C   UNL     1       5.352   0.420   1.910  1.00  0.00     0.004 A 
ATOM     10  C   UNL     1       5.663   1.567  -0.574  1.00  0.00     0.000 A 
ATOM     11  C   UNL     1       4.763   1.631   1.631  1.00  0.00     0.000 A 
ATOM     12  C   UNL     1       4.913   2.223   0.378  1.00  0.00     0.000 A 
ENDBRANCH   6   7
ENDBRANCH   1   6
TORSDOF 4
ENDMDL
