@<TRIPOS>MOLECULE
/home/cewinharhar/GITHUB/reincatalyze/data/processed/docking_pred/2023-Apr-25-2140_maxeplen10_maxtrainstep200_exh16_gamma099_lrac3e-4_lrcr1e-3/b3efa5aa79561967f2a1346927635c3d7bfec8a2_ligand_2.pdbqt
 12 12 0 0 0
SMALL
GASTEIGER

@<TRIPOS>ATOM
      1  C          7.2980   -1.1840   -1.8950 C.3     1  UNL1        0.1270
      2  C          8.7350   -1.1380   -2.2730 C.2     1  UNL1        0.3030
      3  O          9.5240   -0.2270   -1.9170 O.2     1  UNL1       -0.2520
      4  O          9.2530   -2.1520   -3.0640 O.3     1  UNL1       -0.4810
      5  H          8.6620   -2.9790   -3.1770 H       1  UNL1        0.2960
      6  C          6.7460    0.2110   -1.8570 C.3     1  UNL1        0.0470
      7  C          6.1450    0.5880   -0.5800 C.2     1  UNL1       -0.0470
      8  C          5.4640    1.7620   -0.3730 C.2     1  UNL1        0.0040
      9  C          6.2580   -0.2710    0.4850 C.2     1  UNL1        0.0040
     10  C          4.9040    2.1020    0.8350 C.2     1  UNL1        0.0000
     11  C          5.7110    0.0370    1.7090 C.2     1  UNL1        0.0000
     12  C          5.0230    1.2340    1.9000 C.2     1  UNL1        0.0000
@<TRIPOS>BOND
     1     5     4    1
     2     4     2    1
     3     2     3    2
     4     2     1    1
     5     1     6    1
     6     6     7    1
     7     7     8    2
     8     7     9    1
     9     8    10    1
    10     9    11    2
    11    10    12    2
    12    11    12    1
