@<TRIPOS>MOLECULE
/home/cewinharhar/GITHUB/reincatalyze/data/processed/docking_pred/2023-Apr-25-2140_maxeplen10_maxtrainstep200_exh16_gamma099_lrac3e-4_lrcr1e-3/b3efa5aa79561967f2a1346927635c3d7bfec8a2_ligand_2.pdbqt
 12 12 0 0 0
SMALL
GASTEIGER

@<TRIPOS>ATOM
      1  C          8.1750   -1.6160    1.0320 C.3     1  UNL1        0.1270
      2  C          8.4330   -2.7790    0.1440 C.2     1  UNL1        0.3030
      3  O          9.0030   -3.8350    0.5180 O.2     1  UNL1       -0.2520
      4  O          8.0270   -2.7140   -1.1810 O.3     1  UNL1       -0.4810
      5  H          8.5820   -2.1080   -1.7900 H       1  UNL1        0.2960
      6  C          6.7050   -1.5230    1.3190 C.3     1  UNL1        0.0470
      7  C          6.1020   -0.2390    0.9680 C.2     1  UNL1       -0.0470
      8  C          6.2380    0.3590   -0.2610 C.2     1  UNL1        0.0040
      9  C          5.3520    0.4200    1.9100 C.2     1  UNL1        0.0040
     10  C          5.6630    1.5670   -0.5740 C.2     1  UNL1        0.0000
     11  C          4.7630    1.6310    1.6310 C.2     1  UNL1        0.0000
     12  C          4.9130    2.2230    0.3780 C.2     1  UNL1        0.0000
@<TRIPOS>BOND
     1     5     4    1
     2     4     2    1
     3    10     8    1
     4    10    12    2
     5     8     7    2
     6     2     3    2
     7     2     1    1
     8    12    11    1
     9     7     6    1
    10     7     9    1
    11     1     6    1
    12    11     9    2
