@<TRIPOS>MOLECULE
/home/cewinharhar/GITHUB/reincatalyze/data/processed/docking_pred/2023-Apr-25-2140_maxeplen10_maxtrainstep200_exh16_gamma099_lrac3e-4_lrcr1e-3/b3efa5aa79561967f2a1346927635c3d7bfec8a2_ligand_2.pdbqt
 12 12 0 0 0
SMALL
GASTEIGER

@<TRIPOS>ATOM
      1  C          7.2470   -1.1500   -2.0220 C.3     1  UNL1        0.1270
      2  C          8.7050   -1.1410   -2.3130 C.2     1  UNL1        0.3030
      3  O          9.4930   -0.2450   -1.9160 O.2     1  UNL1       -0.2520
      4  O          9.2460   -2.1740   -3.0630 O.3     1  UNL1       -0.4810
      5  H          8.6910   -2.4840   -3.8640 H       1  UNL1        0.2960
      6  C          6.7630    0.2590   -1.8480 C.3     1  UNL1        0.0470
      7  C          6.1730    0.5380   -0.5410 C.2     1  UNL1       -0.0470
      8  C          6.2500   -0.3180    0.5300 C.2     1  UNL1        0.0040
      9  C          5.4980    1.7190   -0.3570 C.2     1  UNL1        0.0040
     10  C          5.6890   -0.0400    1.7540 C.2     1  UNL1        0.0000
     11  C          4.9230    2.0290    0.8540 C.2     1  UNL1        0.0000
     12  C          5.0120    1.1480    1.9310 C.2     1  UNL1        0.0000
@<TRIPOS>BOND
     1     5     4    1
     2     4     2    1
     3     2     1    1
     4     2     3    2
     5     1     6    1
     6     6     7    1
     7     7     9    2
     8     7     8    1
     9     9    11    1
    10     8    10    2
    11    11    12    2
    12    10    12    1
