@<TRIPOS>MOLECULE
/home/cewinharhar/GITHUB/reincatalyze/data/processed/docking_pred/2023-Apr-25-2140_maxeplen10_maxtrainstep200_exh16_gamma099_lrac3e-4_lrcr1e-3/b3efa5aa79561967f2a1346927635c3d7bfec8a2_ligand_2.pdbqt
 12 12 0 0 0
SMALL
GASTEIGER

@<TRIPOS>ATOM
      1  C          8.0910    0.2890   -2.0210 C.3     1  UNL1        0.1270
      2  C          9.2880    0.3220   -1.1400 C.2     1  UNL1        0.3030
      3  O          9.4390   -0.4180   -0.1350 O.2     1  UNL1       -0.2520
      4  O         10.3090    1.2150   -1.4290 O.3     1  UNL1       -0.4810
      5  H         11.2600    0.8710   -1.2810 H       1  UNL1        0.2960
      6  C          7.0230   -0.5480   -1.3820 C.3     1  UNL1        0.0470
      7  C          6.2960    0.1190   -0.3050 C.2     1  UNL1       -0.0470
      8  C          6.1210   -0.4190    0.9460 C.2     1  UNL1        0.0040
      9  C          5.7500    1.3560   -0.5420 C.2     1  UNL1        0.0040
     10  C          5.4340    0.2230    1.9490 C.2     1  UNL1        0.0000
     11  C          5.0560    2.0270    0.4390 C.2     1  UNL1        0.0000
     12  C          4.8880    1.4650    1.7030 C.2     1  UNL1        0.0000
@<TRIPOS>BOND
     1     1     6    1
     2     1     2    1
     3     4     5    1
     4     4     2    1
     5     6     7    1
     6     2     3    2
     7     9     7    2
     8     9    11    1
     9     7     8    1
    10    11    12    2
    11     8    10    2
    12    12    10    1
