@<TRIPOS>MOLECULE
/home/cewinharhar/GITHUB/reincatalyze/data/processed/docking_pred/2023-Apr-25-2140_maxeplen10_maxtrainstep200_exh16_gamma099_lrac3e-4_lrcr1e-3/b3efa5aa79561967f2a1346927635c3d7bfec8a2_ligand_2.pdbqt
 12 12 0 0 0
SMALL
GASTEIGER

@<TRIPOS>ATOM
      1  C          5.0550    1.8430    0.7250 C.3     1  UNL1        0.1270
      2  C          4.5850    1.1570    1.9570 C.2     1  UNL1        0.3030
      3  O          5.1670    0.1710    2.4760 O.2     1  UNL1       -0.2520
      4  O          3.4380    1.6180    2.5850 O.3     1  UNL1       -0.4810
      5  H          2.5590    1.1880    2.2860 H       1  UNL1        0.2960
      6  C          6.5560    1.8440    0.6960 C.3     1  UNL1        0.0470
      7  C          7.1390    1.0290   -0.3660 C.2     1  UNL1       -0.0470
      8  C          6.4420    0.0790   -1.0710 C.2     1  UNL1        0.0040
      9  C          8.4610    1.2110   -0.6910 C.2     1  UNL1        0.0040
     10  C          7.0070   -0.6800   -2.0690 C.2     1  UNL1        0.0000
     11  C          9.0590    0.4690   -1.6830 C.2     1  UNL1        0.0000
     12  C          8.3350   -0.4910   -2.3880 C.2     1  UNL1        0.0000
@<TRIPOS>BOND
     1    12    10    2
     2    12    11    1
     3    10     8    1
     4    11     9    2
     5     8     7    2
     6     9     7    1
     7     7     6    1
     8     6     1    1
     9     1     2    1
    10     2     3    2
    11     2     4    1
    12     5     4    1
