@<TRIPOS>MOLECULE
/home/cewinharhar/GITHUB/reincatalyze/data/processed/docking_pred/2023-Apr-25-2140_maxeplen10_maxtrainstep200_exh16_gamma099_lrac3e-4_lrcr1e-3/b8d8050f43b71ccf975db7ed0a80e234855f027b_ligand_2.pdbqt
 12 12 0 0 0
SMALL
GASTEIGER

@<TRIPOS>ATOM
      1  C          8.4270   -0.5290   -2.2480 C.3     1  UNL1        0.1270
      2  C          8.4900   -1.8530   -2.9200 C.2     1  UNL1        0.3030
      3  O          9.5480   -2.5160   -3.0660 O.2     1  UNL1       -0.2520
      4  O          7.3210   -2.4070   -3.4200 O.3     1  UNL1       -0.4810
      5  H          7.0840   -3.3400   -3.0760 H       1  UNL1        0.2960
      6  C          6.9990   -0.0750   -2.1720 C.3     1  UNL1        0.0470
      7  C          6.4770    0.0520   -0.8130 C.2     1  UNL1       -0.0470
      8  C          6.5630   -0.9390    0.1340 C.2     1  UNL1        0.0040
      9  C          5.8620    1.2230   -0.4470 C.2     1  UNL1        0.0040
     10  C          6.0670   -0.8030    1.4080 C.2     1  UNL1        0.0000
     11  C          5.3530    1.3930    0.8200 C.2     1  UNL1        0.0000
     12  C          5.4500    0.3760    1.7690 C.2     1  UNL1        0.0000
@<TRIPOS>BOND
     1     4     5    1
     2     4     2    1
     3     3     2    2
     4     2     1    1
     5     1     6    1
     6     6     7    1
     7     7     9    2
     8     7     8    1
     9     9    11    1
    10     8    10    2
    11    11    12    2
    12    10    12    1
