@<TRIPOS>MOLECULE
/home/cewinharhar/GITHUB/reincatalyze/data/processed/docking_pred/2023-Apr-25-2140_maxeplen10_maxtrainstep200_exh16_gamma099_lrac3e-4_lrcr1e-3/b8d8050f43b71ccf975db7ed0a80e234855f027b_ligand_2.pdbqt
 12 12 0 0 0
SMALL
GASTEIGER

@<TRIPOS>ATOM
      1  C          5.0270    1.7870    0.6920 C.3     1  UNL1        0.1270
      2  C          4.5940    1.0580    1.9120 C.2     1  UNL1        0.3030
      3  O          5.2860    0.1800    2.4870 O.2     1  UNL1       -0.2520
      4  O          3.3560    1.3500    2.4640 O.3     1  UNL1       -0.4810
      5  H          2.5460    0.9470    1.9870 H       1  UNL1        0.2960
      6  C          6.5240    1.8890    0.6760 C.3     1  UNL1        0.0470
      7  C          7.1730    1.0990   -0.3680 C.2     1  UNL1       -0.0470
      8  C          8.5110    1.1800   -0.6670 C.2     1  UNL1        0.0040
      9  C          6.4150    0.2210   -1.1010 C.2     1  UNL1        0.0040
     10  C          9.1050    0.4290   -1.6530 C.2     1  UNL1        0.0000
     11  C          6.9760   -0.5460   -2.0960 C.2     1  UNL1        0.0000
     12  C          8.3370   -0.4500   -2.3850 C.2     1  UNL1        0.0000
@<TRIPOS>BOND
     1    12    11    2
     2    12    10    1
     3    11     9    1
     4    10     8    2
     5     9     7    2
     6     8     7    1
     7     7     6    1
     8     6     1    1
     9     1     2    1
    10     2     4    1
    11     2     3    2
    12     5     4    1
