@<TRIPOS>MOLECULE
/home/cewinharhar/GITHUB/reincatalyze/data/processed/docking_pred/2023-Apr-25-2140_maxeplen10_maxtrainstep200_exh16_gamma099_lrac3e-4_lrcr1e-3/b8d8050f43b71ccf975db7ed0a80e234855f027b_ligand_2.pdbqt
 12 12 0 0 0
SMALL
GASTEIGER

@<TRIPOS>ATOM
      1  C          8.4130   -0.5770   -2.1920 C.3     1  UNL1        0.1270
      2  C          8.4900   -1.8750   -2.9100 C.2     1  UNL1        0.3030
      3  O          9.5580   -2.5110   -3.0950 O.2     1  UNL1       -0.2520
      4  O          7.3250   -2.4340   -3.4130 O.3     1  UNL1       -0.4810
      5  H          6.7760   -2.9940   -2.7570 H       1  UNL1        0.2960
      6  C          6.9860   -0.1120   -2.1520 C.3     1  UNL1        0.0470
      7  C          6.4520    0.0810   -0.8060 C.2     1  UNL1       -0.0470
      8  C          5.8210    1.2290   -0.3920 C.2     1  UNL1        0.0040
      9  C          6.5800   -0.9330    0.1100 C.2     1  UNL1        0.0040
     10  C          5.3240    1.3940    0.8790 C.2     1  UNL1        0.0000
     11  C          6.0950   -0.8010    1.3910 C.2     1  UNL1        0.0000
     12  C          5.4570    0.3710    1.7930 C.2     1  UNL1        0.0000
@<TRIPOS>BOND
     1     4     2    1
     2     4     5    1
     3     3     2    2
     4     2     1    1
     5     1     6    1
     6     6     7    1
     7     7     8    2
     8     7     9    1
     9     8    10    1
    10     9    11    2
    11    10    12    2
    12    11    12    1
