@<TRIPOS>MOLECULE
/home/cewinharhar/GITHUB/reincatalyze/data/processed/docking_pred/2023-Apr-25-2140_maxeplen10_maxtrainstep200_exh16_gamma099_lrac3e-4_lrcr1e-3/b8d8050f43b71ccf975db7ed0a80e234855f027b_ligand_2.pdbqt
 12 12 0 0 0
SMALL
GASTEIGER

@<TRIPOS>ATOM
      1  C          8.5210    0.6640   -1.7140 C.3     1  UNL1        0.1270
      2  C          9.6440    0.2850   -0.8170 C.2     1  UNL1        0.3030
      3  O          9.5270   -0.4930    0.1630 O.2     1  UNL1       -0.2520
      4  O         10.9040    0.8120   -1.0620 O.3     1  UNL1       -0.4810
      5  H         11.6280    0.5760   -0.3800 H       1  UNL1        0.2960
      6  C          7.3270   -0.1910   -1.4060 C.3     1  UNL1        0.0470
      7  C          6.4300    0.3650   -0.3950 C.2     1  UNL1       -0.0470
      8  C          5.7740    1.5630   -0.5310 C.2     1  UNL1        0.0040
      9  C          6.2220   -0.3400    0.7650 C.2     1  UNL1        0.0040
     10  C          4.9340    2.0720    0.4310 C.2     1  UNL1        0.0000
     11  C          5.3890    0.1400    1.7490 C.2     1  UNL1        0.0000
     12  C          4.7310    1.3590    1.5920 C.2     1  UNL1        0.0000
@<TRIPOS>BOND
     1     1     6    1
     2     1     2    1
     3     6     7    1
     4     4     2    1
     5     4     5    1
     6     2     3    2
     7     8     7    2
     8     8    10    1
     9     7     9    1
    10    10    12    2
    11     9    11    2
    12    12    11    1
