@<TRIPOS>MOLECULE
/home/cewinharhar/GITHUB/reincatalyze/data/processed/docking_pred/2023-Apr-25-2140_maxeplen10_maxtrainstep200_exh16_gamma099_lrac3e-4_lrcr1e-3/b8d8050f43b71ccf975db7ed0a80e234855f027b_ligand_2.pdbqt
 12 12 0 0 0
SMALL
GASTEIGER

@<TRIPOS>ATOM
      1  C          8.0760   -0.8640   -1.9820 C.3     1  UNL1        0.1270
      2  C          8.3690   -2.0060   -2.8860 C.2     1  UNL1        0.3030
      3  O          9.5260   -2.4420   -3.1130 O.2     1  UNL1       -0.2520
      4  O          7.3150   -2.6430   -3.5250 O.3     1  UNL1       -0.4810
      5  H          7.3470   -2.6460   -4.5470 H       1  UNL1        0.2960
      6  C          7.2530   -1.3430   -0.8220 C.3     1  UNL1        0.0470
      7  C          6.4710   -0.2980   -0.1640 C.2     1  UNL1       -0.0470
      8  C          6.0260   -0.3790    1.1320 C.2     1  UNL1        0.0040
      9  C          6.1540    0.8360   -0.8700 C.2     1  UNL1        0.0040
     10  C          5.2920    0.6140    1.7360 C.2     1  UNL1        0.0000
     11  C          5.4200    1.8490   -0.2970 C.2     1  UNL1        0.0000
     12  C          4.9770    1.7490    1.0210 C.2     1  UNL1        0.0000
@<TRIPOS>BOND
     1     5     4    1
     2     4     2    1
     3     3     2    2
     4     2     1    1
     5     1     6    1
     6     9    11    1
     7     9     7    2
     8     6     7    1
     9    11    12    2
    10     7     8    1
    11    12    10    1
    12     8    10    2
