@<TRIPOS>MOLECULE
/home/cewinharhar/GITHUB/reincatalyze/data/processed/docking_pred/2023-Apr-25-2140_maxeplen10_maxtrainstep200_exh16_gamma099_lrac3e-4_lrcr1e-3/be159ddb300952c005bf82764a5ce22912cca304_ligand_2.pdbqt
 12 12 0 0 0
SMALL
GASTEIGER

@<TRIPOS>ATOM
      1  C          8.2220    0.2640   -2.2430 C.3     1  UNL1        0.1270
      2  C          9.3270    0.3640   -1.2540 C.2     1  UNL1        0.3030
      3  O          9.4470   -0.3940   -0.2580 O.2     1  UNL1       -0.2520
      4  O         10.2920    1.3450   -1.4240 O.3     1  UNL1       -0.4810
      5  H         10.6260    1.7980   -0.5700 H       1  UNL1        0.2960
      6  C          7.0680   -0.4730   -1.6300 C.3     1  UNL1        0.0470
      7  C          6.3180    0.2960   -0.6390 C.2     1  UNL1       -0.0470
      8  C          6.1140   -0.1180    0.6550 C.2     1  UNL1        0.0040
      9  C          5.7800    1.5040   -1.0060 C.2     1  UNL1        0.0040
     10  C          5.4060    0.6180    1.5740 C.2     1  UNL1        0.0000
     11  C          5.0650    2.2670   -0.1120 C.2     1  UNL1        0.0000
     12  C          4.8690    1.8300    1.1970 C.2     1  UNL1        0.0000
@<TRIPOS>BOND
     1     1     6    1
     2     1     2    1
     3     6     7    1
     4     4     2    1
     5     4     5    1
     6     2     3    2
     7     9     7    2
     8     9    11    1
     9     7     8    1
    10    11    12    2
    11     8    10    2
    12    12    10    1
