@<TRIPOS>MOLECULE
/home/cewinharhar/GITHUB/reincatalyze/data/processed/docking_pred/2023-Apr-25-2140_maxeplen10_maxtrainstep200_exh16_gamma099_lrac3e-4_lrcr1e-3/be159ddb300952c005bf82764a5ce22912cca304_ligand_2.pdbqt
 12 12 0 0 0
SMALL
GASTEIGER

@<TRIPOS>ATOM
      1  C          7.9360   -2.1560    0.8470 C.3     1  UNL1        0.1270
      2  C          8.7550   -3.2980    0.3640 C.2     1  UNL1        0.3030
      3  O          9.6420   -3.8650    1.0520 O.2     1  UNL1       -0.2520
      4  O          8.5430   -3.7820   -0.9180 O.3     1  UNL1       -0.4810
      5  H          9.2330   -3.5080   -1.6210 H       1  UNL1        0.2960
      6  C          7.3430   -1.4350   -0.3280 C.3     1  UNL1        0.0470
      7  C          6.5230   -0.2790    0.0250 C.2     1  UNL1       -0.0470
      8  C          6.2640    0.7640   -0.8310 C.2     1  UNL1        0.0040
      9  C          5.9710   -0.2160    1.2800 C.2     1  UNL1        0.0040
     10  C          5.4890    1.8450   -0.4830 C.2     1  UNL1        0.0000
     11  C          5.1920    0.8510    1.6620 C.2     1  UNL1        0.0000
     12  C          4.9400    1.9010    0.7800 C.2     1  UNL1        0.0000
@<TRIPOS>BOND
     1     5     4    1
     2     4     2    1
     3     8    10    1
     4     8     7    2
     5    10    12    2
     6     6     7    1
     7     6     1    1
     8     7     9    1
     9     2     1    1
    10     2     3    2
    11    12    11    1
    12     9    11    2
