@<TRIPOS>MOLECULE
/home/cewinharhar/GITHUB/reincatalyze/data/processed/docking_pred/2023-Apr-25-2140_maxeplen10_maxtrainstep200_exh16_gamma099_lrac3e-4_lrcr1e-3/be159ddb300952c005bf82764a5ce22912cca304_ligand_2.pdbqt
 12 12 0 0 0
SMALL
GASTEIGER

@<TRIPOS>ATOM
      1  C          5.0330    1.7680    0.7020 C.3     1  UNL1        0.1270
      2  C          4.5920    1.0420    1.9220 C.2     1  UNL1        0.3030
      3  O          5.2770    0.1600    2.4990 O.2     1  UNL1       -0.2520
      4  O          3.3550    1.3440    2.4710 O.3     1  UNL1       -0.4810
      5  H          3.1800    2.3320    2.6680 H       1  UNL1        0.2960
      6  C          6.5300    1.8630    0.6910 C.3     1  UNL1        0.0470
      7  C          7.1770    1.0840   -0.3620 C.2     1  UNL1       -0.0470
      8  C          8.5110    1.1820   -0.6750 C.2     1  UNL1        0.0040
      9  C          6.4220    0.2000   -1.0910 C.2     1  UNL1        0.0040
     10  C          9.1040    0.4410   -1.6700 C.2     1  UNL1        0.0000
     11  C          6.9820   -0.5560   -2.0940 C.2     1  UNL1        0.0000
     12  C          8.3380   -0.4440   -2.3970 C.2     1  UNL1        0.0000
@<TRIPOS>BOND
     1    12    11    2
     2    12    10    1
     3    11     9    1
     4    10     8    2
     5     9     7    2
     6     8     7    1
     7     7     6    1
     8     6     1    1
     9     1     2    1
    10     2     4    1
    11     2     3    2
    12     4     5    1
