@<TRIPOS>MOLECULE
/home/cewinharhar/GITHUB/reincatalyze/data/processed/docking_pred/2023-Apr-25-2140_maxeplen10_maxtrainstep200_exh16_gamma099_lrac3e-4_lrcr1e-3/be159ddb300952c005bf82764a5ce22912cca304_ligand_2.pdbqt
 12 12 0 0 0
SMALL
GASTEIGER

@<TRIPOS>ATOM
      1  C          8.4120   -0.5950   -2.1600 C.3     1  UNL1        0.1270
      2  C          8.3620   -1.8760   -2.9110 C.2     1  UNL1        0.3030
      3  O          7.2960   -2.4350   -3.2740 O.2     1  UNL1       -0.2520
      4  O          9.5520   -2.5070   -3.2400 O.3     1  UNL1       -0.4810
      5  H          9.7110   -2.6730   -4.2370 H       1  UNL1        0.2960
      6  C          7.0350   -0.0020   -2.0910 C.3     1  UNL1        0.0470
      7  C          6.4810    0.0820   -0.7420 C.2     1  UNL1       -0.0470
      8  C          6.5780   -0.9240    0.1880 C.2     1  UNL1        0.0040
      9  C          5.8220    1.2260   -0.3670 C.2     1  UNL1        0.0040
     10  C          6.0500   -0.8280    1.4540 C.2     1  UNL1        0.0000
     11  C          5.2810    1.3560    0.8920 C.2     1  UNL1        0.0000
     12  C          5.3890    0.3240    1.8230 C.2     1  UNL1        0.0000
@<TRIPOS>BOND
     1     5     4    1
     2     3     2    2
     3     4     2    1
     4     2     1    1
     5     1     6    1
     6     6     7    1
     7     7     9    2
     8     7     8    1
     9     9    11    1
    10     8    10    2
    11    11    12    2
    12    10    12    1
