MODEL 1
REMARK VINA RESULT:      -7.4      0.000      0.000
REMARK SMILES O=C(O)CCc1ccccc1
REMARK SMILES IDX 4 1 2 2 1 3 3 4 5 6 6 7 7 8 11 9 8 10 10 11 9 12
REMARK H PARENT 3 5
REMARK Flexibility Score: inf
ROOT
ATOM      1  C   UNL     1       8.441  -0.604  -2.167  1.00  0.00     0.127 C 
ENDROOT
BRANCH   1   2
ATOM      2  C   UNL     1       8.495  -1.895  -2.901  1.00  0.00     0.303 C 
ATOM      3  O   UNL     1       9.553  -2.541  -3.107  1.00  0.00    -0.252 OA
BRANCH   2   4
ATOM      4  O   UNL     1       7.317  -2.434  -3.396  1.00  0.00    -0.481 OA
ATOM      5  H   UNL     1       7.193  -3.440  -3.262  1.00  0.00     0.296 HD
ENDBRANCH   2   4
ENDBRANCH   1   2
BRANCH   1   6
ATOM      6  C   UNL     1       7.030  -0.094  -2.157  1.00  0.00     0.047 C 
BRANCH   6   7
ATOM      7  C   UNL     1       6.470   0.108  -0.822  1.00  0.00    -0.047 A 
ATOM      8  C   UNL     1       5.831   1.257  -0.427  1.00  0.00     0.004 A 
ATOM      9  C   UNL     1       6.582  -0.901   0.102  1.00  0.00     0.004 A 
ATOM     10  C   UNL     1       5.310   1.430   0.833  1.00  0.00     0.000 A 
ATOM     11  C   UNL     1       6.073  -0.762   1.372  1.00  0.00     0.000 A 
ATOM     12  C   UNL     1       5.426   0.412   1.755  1.00  0.00     0.000 A 
ENDBRANCH   6   7
ENDBRANCH   1   6
TORSDOF 4
ENDMDL
MODEL 2
REMARK VINA RESULT:      -7.3      0.105      1.722
REMARK SMILES O=C(O)CCc1ccccc1
REMARK SMILES IDX 4 1 2 2 1 3 3 4 5 6 6 7 7 8 11 9 8 10 10 11 9 12
REMARK H PARENT 3 5
REMARK Flexibility Score: inf
ROOT
ATOM      1  C   UNL     1       8.412  -0.595  -2.160  1.00  0.00     0.127 C 
ENDROOT
BRANCH   1   2
ATOM      2  C   UNL     1       8.362  -1.876  -2.911  1.00  0.00     0.303 C 
ATOM      3  O   UNL     1       7.296  -2.435  -3.274  1.00  0.00    -0.252 OA
BRANCH   2   4
ATOM      4  O   UNL     1       9.552  -2.507  -3.240  1.00  0.00    -0.481 OA
ATOM      5  H   UNL     1       9.711  -2.673  -4.237  1.00  0.00     0.296 HD
ENDBRANCH   2   4
ENDBRANCH   1   2
BRANCH   1   6
ATOM      6  C   UNL     1       7.035  -0.002  -2.091  1.00  0.00     0.047 C 
BRANCH   6   7
ATOM      7  C   UNL     1       6.481   0.082  -0.742  1.00  0.00    -0.047 A 
ATOM      8  C   UNL     1       6.578  -0.924   0.188  1.00  0.00     0.004 A 
ATOM      9  C   UNL     1       5.822   1.226  -0.367  1.00  0.00     0.004 A 
ATOM     10  C   UNL     1       6.050  -0.828   1.454  1.00  0.00     0.000 A 
ATOM     11  C   UNL     1       5.281   1.356   0.892  1.00  0.00     0.000 A 
ATOM     12  C   UNL     1       5.389   0.324   1.823  1.00  0.00     0.000 A 
ENDBRANCH   6   7
ENDBRANCH   1   6
TORSDOF 4
ENDMDL
MODEL 3
REMARK VINA RESULT:      -6.8      3.334      5.034
REMARK SMILES O=C(O)CCc1ccccc1
REMARK SMILES IDX 4 1 2 2 1 3 3 4 5 6 6 7 7 8 11 9 8 10 10 11 9 12
REMARK H PARENT 3 5
REMARK Flexibility Score: inf
ROOT
ATOM      1  C   UNL     1       5.033   1.768   0.702  1.00  0.00     0.127 C 
ENDROOT
BRANCH   1   2
ATOM      2  C   UNL     1       4.592   1.042   1.922  1.00  0.00     0.303 C 
ATOM      3  O   UNL     1       5.277   0.160   2.499  1.00  0.00    -0.252 OA
BRANCH   2   4
ATOM      4  O   UNL     1       3.355   1.344   2.471  1.00  0.00    -0.481 OA
ATOM      5  H   UNL     1       3.180   2.332   2.668  1.00  0.00     0.296 HD
ENDBRANCH   2   4
ENDBRANCH   1   2
BRANCH   1   6
ATOM      6  C   UNL     1       6.530   1.863   0.691  1.00  0.00     0.047 C 
BRANCH   6   7
ATOM      7  C   UNL     1       7.177   1.084  -0.362  1.00  0.00    -0.047 A 
ATOM      8  C   UNL     1       8.511   1.182  -0.675  1.00  0.00     0.004 A 
ATOM      9  C   UNL     1       6.422   0.200  -1.091  1.00  0.00     0.004 A 
ATOM     10  C   UNL     1       9.104   0.441  -1.670  1.00  0.00     0.000 A 
ATOM     11  C   UNL     1       6.982  -0.556  -2.094  1.00  0.00     0.000 A 
ATOM     12  C   UNL     1       8.338  -0.444  -2.397  1.00  0.00     0.000 A 
ENDBRANCH   6   7
ENDBRANCH   1   6
TORSDOF 4
ENDMDL
MODEL 4
REMARK VINA RESULT:      -6.6      1.926      2.640
REMARK SMILES O=C(O)CCc1ccccc1
REMARK SMILES IDX 4 1 2 2 1 3 3 4 5 6 6 7 7 8 11 9 8 10 10 11 9 12
REMARK H PARENT 3 5
REMARK Flexibility Score: inf
ROOT
ATOM      1  C   UNL     1       8.222   0.264  -2.243  1.00  0.00     0.127 C 
ENDROOT
BRANCH   1   2
ATOM      2  C   UNL     1       9.327   0.364  -1.254  1.00  0.00     0.303 C 
ATOM      3  O   UNL     1       9.447  -0.394  -0.258  1.00  0.00    -0.252 OA
BRANCH   2   4
ATOM      4  O   UNL     1      10.292   1.345  -1.424  1.00  0.00    -0.481 OA
ATOM      5  H   UNL     1      10.626   1.798  -0.570  1.00  0.00     0.296 HD
ENDBRANCH   2   4
ENDBRANCH   1   2
BRANCH   1   6
ATOM      6  C   UNL     1       7.068  -0.473  -1.630  1.00  0.00     0.047 C 
BRANCH   6   7
ATOM      7  C   UNL     1       6.318   0.296  -0.639  1.00  0.00    -0.047 A 
ATOM      8  C   UNL     1       6.114  -0.118   0.655  1.00  0.00     0.004 A 
ATOM      9  C   UNL     1       5.780   1.504  -1.006  1.00  0.00     0.004 A 
ATOM     10  C   UNL     1       5.406   0.618   1.574  1.00  0.00     0.000 A 
ATOM     11  C   UNL     1       5.065   2.267  -0.112  1.00  0.00     0.000 A 
ATOM     12  C   UNL     1       4.869   1.830   1.197  1.00  0.00     0.000 A 
ENDBRANCH   6   7
ENDBRANCH   1   6
TORSDOF 4
ENDMDL
MODEL 5
REMARK VINA RESULT:      -6.6      2.005      2.535
REMARK SMILES O=C(O)CCc1ccccc1
REMARK SMILES IDX 4 1 2 2 1 3 3 4 5 6 6 7 7 8 11 9 8 10 10 11 9 12
REMARK H PARENT 3 5
REMARK Flexibility Score: inf
ROOT
ATOM      1  C   UNL     1       7.936  -2.156   0.847  1.00  0.00     0.127 C 
ENDROOT
BRANCH   1   2
ATOM      2  C   UNL     1       8.755  -3.298   0.364  1.00  0.00     0.303 C 
ATOM      3  O   UNL     1       9.642  -3.865   1.052  1.00  0.00    -0.252 OA
BRANCH   2   4
ATOM      4  O   UNL     1       8.543  -3.782  -0.918  1.00  0.00    -0.481 OA
ATOM      5  H   UNL     1       9.233  -3.508  -1.621  1.00  0.00     0.296 HD
ENDBRANCH   2   4
ENDBRANCH   1   2
BRANCH   1   6
ATOM      6  C   UNL     1       7.343  -1.435  -0.328  1.00  0.00     0.047 C 
BRANCH   6   7
ATOM      7  C   UNL     1       6.523  -0.279   0.025  1.00  0.00    -0.047 A 
ATOM      8  C   UNL     1       6.264   0.764  -0.831  1.00  0.00     0.004 A 
ATOM      9  C   UNL     1       5.971  -0.216   1.280  1.00  0.00     0.004 A 
ATOM     10  C   UNL     1       5.489   1.845  -0.483  1.00  0.00     0.000 A 
ATOM     11  C   UNL     1       5.192   0.851   1.662  1.00  0.00     0.000 A 
ATOM     12  C   UNL     1       4.940   1.901   0.780  1.00  0.00     0.000 A 
ENDBRANCH   6   7
ENDBRANCH   1   6
TORSDOF 4
ENDMDL
