@<TRIPOS>MOLECULE
/home/cewinharhar/GITHUB/reincatalyze/data/processed/docking_pred/2023-Apr-25-2140_maxeplen10_maxtrainstep200_exh16_gamma099_lrac3e-4_lrcr1e-3/be159ddb300952c005bf82764a5ce22912cca304_ligand_2.pdbqt
 12 12 0 0 0
SMALL
GASTEIGER

@<TRIPOS>ATOM
      1  C          8.4410   -0.6040   -2.1670 C.3     1  UNL1        0.1270
      2  C          8.4950   -1.8950   -2.9010 C.2     1  UNL1        0.3030
      3  O          9.5530   -2.5410   -3.1070 O.2     1  UNL1       -0.2520
      4  O          7.3170   -2.4340   -3.3960 O.3     1  UNL1       -0.4810
      5  H          7.1930   -3.4400   -3.2620 H       1  UNL1        0.2960
      6  C          7.0300   -0.0940   -2.1570 C.3     1  UNL1        0.0470
      7  C          6.4700    0.1080   -0.8220 C.2     1  UNL1       -0.0470
      8  C          5.8310    1.2570   -0.4270 C.2     1  UNL1        0.0040
      9  C          6.5820   -0.9010    0.1020 C.2     1  UNL1        0.0040
     10  C          5.3100    1.4300    0.8330 C.2     1  UNL1        0.0000
     11  C          6.0730   -0.7620    1.3720 C.2     1  UNL1        0.0000
     12  C          5.4260    0.4120    1.7550 C.2     1  UNL1        0.0000
@<TRIPOS>BOND
     1     4     5    1
     2     4     2    1
     3     3     2    2
     4     2     1    1
     5     1     6    1
     6     6     7    1
     7     7     8    2
     8     7     9    1
     9     8    10    1
    10     9    11    2
    11    10    12    2
    12    11    12    1
