MODEL 1
REMARK VINA RESULT:      -7.4      0.000      0.000
REMARK SMILES O=C(O)CCc1ccccc1
REMARK SMILES IDX 4 1 2 2 1 3 3 4 5 6 6 7 7 8 11 9 8 10 10 11 9 12
REMARK H PARENT 3 5
REMARK Flexibility Score: inf
ROOT
ATOM      1  C   UNL     1       8.515  -0.593  -2.180  1.00  0.00     0.127 C 
ENDROOT
BRANCH   1   2
ATOM      2  C   UNL     1       8.516  -1.896  -2.896  1.00  0.00     0.303 C 
ATOM      3  O   UNL     1       9.540  -2.609  -3.051  1.00  0.00    -0.252 OA
BRANCH   2   4
ATOM      4  O   UNL     1       7.327  -2.369  -3.429  1.00  0.00    -0.481 OA
ATOM      5  H   UNL     1       6.616  -2.658  -2.754  1.00  0.00     0.296 HD
ENDBRANCH   2   4
ENDBRANCH   1   2
BRANCH   1   6
ATOM      6  C   UNL     1       7.118  -0.045  -2.143  1.00  0.00     0.047 C 
BRANCH   6   7
ATOM      7  C   UNL     1       6.549   0.068  -0.802  1.00  0.00    -0.047 A 
ATOM      8  C   UNL     1       6.680  -0.896   0.168  1.00  0.00     0.004 A 
ATOM      9  C   UNL     1       5.838   1.196  -0.477  1.00  0.00     0.004 A 
ATOM     10  C   UNL     1       6.138  -0.773   1.425  1.00  0.00     0.000 A 
ATOM     11  C   UNL     1       5.281   1.352   0.771  1.00  0.00     0.000 A 
ATOM     12  C   UNL     1       5.426   0.363   1.743  1.00  0.00     0.000 A 
ENDBRANCH   6   7
ENDBRANCH   1   6
TORSDOF 4
ENDMDL
MODEL 2
REMARK VINA RESULT:      -7.3      0.110      1.426
REMARK SMILES O=C(O)CCc1ccccc1
REMARK SMILES IDX 4 1 2 2 1 3 3 4 5 6 6 7 7 8 11 9 8 10 10 11 9 12
REMARK H PARENT 3 5
REMARK Flexibility Score: inf
ROOT
ATOM      1  C   UNL     1       8.435  -0.529  -2.271  1.00  0.00     0.127 C 
ENDROOT
BRANCH   1   2
ATOM      2  C   UNL     1       8.505  -1.859  -2.929  1.00  0.00     0.303 C 
ATOM      3  O   UNL     1       9.566  -2.520  -3.064  1.00  0.00    -0.252 OA
BRANCH   2   4
ATOM      4  O   UNL     1       7.340  -2.421  -3.430  1.00  0.00    -0.481 OA
ATOM      5  H   UNL     1       7.068  -3.321  -3.028  1.00  0.00     0.296 HD
ENDBRANCH   2   4
ENDBRANCH   1   2
BRANCH   1   6
ATOM      6  C   UNL     1       7.005  -0.078  -2.206  1.00  0.00     0.047 C 
BRANCH   6   7
ATOM      7  C   UNL     1       6.484   0.085  -0.851  1.00  0.00    -0.047 A 
ATOM      8  C   UNL     1       5.859   1.223  -0.404  1.00  0.00     0.004 A 
ATOM      9  C   UNL     1       6.619  -0.952   0.039  1.00  0.00     0.004 A 
ATOM     10  C   UNL     1       5.374   1.359   0.875  1.00  0.00     0.000 A 
ATOM     11  C   UNL     1       6.146  -0.850   1.327  1.00  0.00     0.000 A 
ATOM     12  C   UNL     1       5.514   0.314   1.763  1.00  0.00     0.000 A 
ENDBRANCH   6   7
ENDBRANCH   1   6
TORSDOF 4
ENDMDL
MODEL 3
REMARK VINA RESULT:      -7.3      0.624      1.606
REMARK SMILES O=C(O)CCc1ccccc1
REMARK SMILES IDX 4 1 2 2 1 3 3 4 5 6 6 7 7 8 11 9 8 10 10 11 9 12
REMARK H PARENT 3 5
REMARK Flexibility Score: inf
ROOT
ATOM      1  C   UNL     1       8.243  -0.884  -1.936  1.00  0.00     0.127 C 
ENDROOT
BRANCH   1   2
ATOM      2  C   UNL     1       8.417  -2.008  -2.892  1.00  0.00     0.303 C 
ATOM      3  O   UNL     1       9.529  -2.522  -3.176  1.00  0.00    -0.252 OA
BRANCH   2   4
ATOM      4  O   UNL     1       7.298  -2.536  -3.518  1.00  0.00    -0.481 OA
ATOM      5  H   UNL     1       6.657  -3.063  -2.921  1.00  0.00     0.296 HD
ENDBRANCH   2   4
ENDBRANCH   1   2
BRANCH   1   6
ATOM      6  C   UNL     1       7.378  -1.329  -0.794  1.00  0.00     0.047 C 
BRANCH   6   7
ATOM      7  C   UNL     1       6.558  -0.271  -0.210  1.00  0.00    -0.047 A 
ATOM      8  C   UNL     1       6.173   0.860  -0.887  1.00  0.00     0.004 A 
ATOM      9  C   UNL     1       6.140  -0.399   1.092  1.00  0.00     0.004 A 
ATOM     10  C   UNL     1       5.400   1.846  -0.322  1.00  0.00     0.000 A 
ATOM     11  C   UNL     1       5.366   0.570   1.689  1.00  0.00     0.000 A 
ATOM     12  C   UNL     1       4.985   1.711   0.985  1.00  0.00     0.000 A 
ENDBRANCH   6   7
ENDBRANCH   1   6
TORSDOF 4
ENDMDL
MODEL 4
REMARK VINA RESULT:      -6.8      3.364      5.065
REMARK SMILES O=C(O)CCc1ccccc1
REMARK SMILES IDX 4 1 2 2 1 3 3 4 5 6 6 7 7 8 11 9 8 10 10 11 9 12
REMARK H PARENT 3 5
REMARK Flexibility Score: inf
ROOT
ATOM      1  C   UNL     1       4.981   1.819   0.702  1.00  0.00     0.127 C 
ENDROOT
BRANCH   1   2
ATOM      2  C   UNL     1       4.488   1.101   1.907  1.00  0.00     0.303 C 
ATOM      3  O   UNL     1       5.118   0.175   2.477  1.00  0.00    -0.252 OA
BRANCH   2   4
ATOM      4  O   UNL     1       3.264   1.462   2.448  1.00  0.00    -0.481 OA
ATOM      5  H   UNL     1       2.891   0.839   3.168  1.00  0.00     0.296 HD
ENDBRANCH   2   4
ENDBRANCH   1   2
BRANCH   1   6
ATOM      6  C   UNL     1       6.480   1.878   0.734  1.00  0.00     0.047 C 
BRANCH   6   7
ATOM      7  C   UNL     1       7.137   1.117  -0.326  1.00  0.00    -0.047 A 
ATOM      8  C   UNL     1       8.473   1.220  -0.624  1.00  0.00     0.004 A 
ATOM      9  C   UNL     1       6.388   0.246  -1.077  1.00  0.00     0.004 A 
ATOM     10  C   UNL     1       9.076   0.496  -1.626  1.00  0.00     0.000 A 
ATOM     11  C   UNL     1       6.958  -0.494  -2.087  1.00  0.00     0.000 A 
ATOM     12  C   UNL     1       8.317  -0.377  -2.375  1.00  0.00     0.000 A 
ENDBRANCH   6   7
ENDBRANCH   1   6
TORSDOF 4
ENDMDL
MODEL 5
REMARK VINA RESULT:      -6.7      3.832      4.940
REMARK SMILES O=C(O)CCc1ccccc1
REMARK SMILES IDX 4 1 2 2 1 3 3 4 5 6 6 7 7 8 11 9 8 10 10 11 9 12
REMARK H PARENT 3 5
REMARK Flexibility Score: inf
ROOT
ATOM      1  C   UNL     1       5.475   2.873  -0.034  1.00  0.00     0.127 C 
ENDROOT
BRANCH   1   2
ATOM      2  C   UNL     1       6.222   3.898   0.742  1.00  0.00     0.303 C 
ATOM      3  O   UNL     1       6.955   4.775   0.220  1.00  0.00    -0.252 OA
BRANCH   2   4
ATOM      4  O   UNL     1       6.114   3.902   2.124  1.00  0.00    -0.481 OA
ATOM      5  H   UNL     1       5.917   4.808   2.555  1.00  0.00     0.296 HD
ENDBRANCH   2   4
ENDBRANCH   1   2
BRANCH   1   6
ATOM      6  C   UNL     1       4.920   1.843   0.905  1.00  0.00     0.047 C 
BRANCH   6   7
ATOM      7  C   UNL     1       5.688   0.602   0.963  1.00  0.00    -0.047 A 
ATOM      8  C   UNL     1       5.798  -0.178   2.089  1.00  0.00     0.004 A 
ATOM      9  C   UNL     1       6.345   0.176  -0.164  1.00  0.00     0.004 A 
ATOM     10  C   UNL     1       6.525  -1.343   2.126  1.00  0.00     0.000 A 
ATOM     11  C   UNL     1       7.083  -0.985  -0.163  1.00  0.00     0.000 A 
ATOM     12  C   UNL     1       7.182  -1.763   0.990  1.00  0.00     0.000 A 
ENDBRANCH   6   7
ENDBRANCH   1   6
TORSDOF 4
ENDMDL
