@<TRIPOS>MOLECULE
/home/cewinharhar/GITHUB/reincatalyze/data/processed/docking_pred/2023-Apr-25-2140_maxeplen10_maxtrainstep200_exh16_gamma099_lrac3e-4_lrcr1e-3/bef029ec7f2d3d0301694813bb63cef4e6663bb8_ligand_2.pdbqt
 12 12 0 0 0
SMALL
GASTEIGER

@<TRIPOS>ATOM
      1  C          5.4750    2.8730   -0.0340 C.3     1  UNL1        0.1270
      2  C          6.2220    3.8980    0.7420 C.2     1  UNL1        0.3030
      3  O          6.9550    4.7750    0.2200 O.2     1  UNL1       -0.2520
      4  O          6.1140    3.9020    2.1240 O.3     1  UNL1       -0.4810
      5  H          5.9170    4.8080    2.5550 H       1  UNL1        0.2960
      6  C          4.9200    1.8430    0.9050 C.3     1  UNL1        0.0470
      7  C          5.6880    0.6020    0.9630 C.2     1  UNL1       -0.0470
      8  C          5.7980   -0.1780    2.0890 C.2     1  UNL1        0.0040
      9  C          6.3450    0.1760   -0.1640 C.2     1  UNL1        0.0040
     10  C          6.5250   -1.3430    2.1260 C.2     1  UNL1        0.0000
     11  C          7.0830   -0.9850   -0.1630 C.2     1  UNL1        0.0000
     12  C          7.1820   -1.7630    0.9900 C.2     1  UNL1        0.0000
@<TRIPOS>BOND
     1     9    11    1
     2     9     7    2
     3    11    12    2
     4     1     2    1
     5     1     6    1
     6     3     2    2
     7     2     4    1
     8     6     7    1
     9     7     8    1
    10    12    10    1
    11     8    10    2
    12     4     5    1
