@<TRIPOS>MOLECULE
/home/cewinharhar/GITHUB/reincatalyze/data/processed/docking_pred/2023-Apr-25-2140_maxeplen10_maxtrainstep200_exh16_gamma099_lrac3e-4_lrcr1e-3/bef029ec7f2d3d0301694813bb63cef4e6663bb8_ligand_2.pdbqt
 12 12 0 0 0
SMALL
GASTEIGER

@<TRIPOS>ATOM
      1  C          8.4350   -0.5290   -2.2710 C.3     1  UNL1        0.1270
      2  C          8.5050   -1.8590   -2.9290 C.2     1  UNL1        0.3030
      3  O          9.5660   -2.5200   -3.0640 O.2     1  UNL1       -0.2520
      4  O          7.3400   -2.4210   -3.4300 O.3     1  UNL1       -0.4810
      5  H          7.0680   -3.3210   -3.0280 H       1  UNL1        0.2960
      6  C          7.0050   -0.0780   -2.2060 C.3     1  UNL1        0.0470
      7  C          6.4840    0.0850   -0.8510 C.2     1  UNL1       -0.0470
      8  C          5.8590    1.2230   -0.4040 C.2     1  UNL1        0.0040
      9  C          6.6190   -0.9520    0.0390 C.2     1  UNL1        0.0040
     10  C          5.3740    1.3590    0.8750 C.2     1  UNL1        0.0000
     11  C          6.1460   -0.8500    1.3270 C.2     1  UNL1        0.0000
     12  C          5.5140    0.3140    1.7630 C.2     1  UNL1        0.0000
@<TRIPOS>BOND
     1     4     5    1
     2     4     2    1
     3     3     2    2
     4     2     1    1
     5     1     6    1
     6     6     7    1
     7     7     8    2
     8     7     9    1
     9     8    10    1
    10     9    11    2
    11    10    12    2
    12    11    12    1
