@<TRIPOS>MOLECULE
/home/cewinharhar/GITHUB/reincatalyze/data/processed/docking_pred/2023-Apr-25-2140_maxeplen10_maxtrainstep200_exh16_gamma099_lrac3e-4_lrcr1e-3/bef029ec7f2d3d0301694813bb63cef4e6663bb8_ligand_2.pdbqt
 12 12 0 0 0
SMALL
GASTEIGER

@<TRIPOS>ATOM
      1  C          4.9810    1.8190    0.7020 C.3     1  UNL1        0.1270
      2  C          4.4880    1.1010    1.9070 C.2     1  UNL1        0.3030
      3  O          5.1180    0.1750    2.4770 O.2     1  UNL1       -0.2520
      4  O          3.2640    1.4620    2.4480 O.3     1  UNL1       -0.4810
      5  H          2.8910    0.8390    3.1680 H       1  UNL1        0.2960
      6  C          6.4800    1.8780    0.7340 C.3     1  UNL1        0.0470
      7  C          7.1370    1.1170   -0.3260 C.2     1  UNL1       -0.0470
      8  C          8.4730    1.2200   -0.6240 C.2     1  UNL1        0.0040
      9  C          6.3880    0.2460   -1.0770 C.2     1  UNL1        0.0040
     10  C          9.0760    0.4960   -1.6260 C.2     1  UNL1        0.0000
     11  C          6.9580   -0.4940   -2.0870 C.2     1  UNL1        0.0000
     12  C          8.3170   -0.3770   -2.3750 C.2     1  UNL1        0.0000
@<TRIPOS>BOND
     1    12    11    2
     2    12    10    1
     3    11     9    1
     4    10     8    2
     5     9     7    2
     6     8     7    1
     7     7     6    1
     8     1     6    1
     9     1     2    1
    10     2     4    1
    11     2     3    2
    12     4     5    1
