@<TRIPOS>MOLECULE
/home/cewinharhar/GITHUB/reincatalyze/data/processed/docking_pred/2023-Apr-25-2140_maxeplen10_maxtrainstep200_exh16_gamma099_lrac3e-4_lrcr1e-3/bef029ec7f2d3d0301694813bb63cef4e6663bb8_ligand_2.pdbqt
 12 12 0 0 0
SMALL
GASTEIGER

@<TRIPOS>ATOM
      1  C          8.5150   -0.5930   -2.1800 C.3     1  UNL1        0.1270
      2  C          8.5160   -1.8960   -2.8960 C.2     1  UNL1        0.3030
      3  O          9.5400   -2.6090   -3.0510 O.2     1  UNL1       -0.2520
      4  O          7.3270   -2.3690   -3.4290 O.3     1  UNL1       -0.4810
      5  H          6.6160   -2.6580   -2.7540 H       1  UNL1        0.2960
      6  C          7.1180   -0.0450   -2.1430 C.3     1  UNL1        0.0470
      7  C          6.5490    0.0680   -0.8020 C.2     1  UNL1       -0.0470
      8  C          6.6800   -0.8960    0.1680 C.2     1  UNL1        0.0040
      9  C          5.8380    1.1960   -0.4770 C.2     1  UNL1        0.0040
     10  C          6.1380   -0.7730    1.4250 C.2     1  UNL1        0.0000
     11  C          5.2810    1.3520    0.7710 C.2     1  UNL1        0.0000
     12  C          5.4260    0.3630    1.7430 C.2     1  UNL1        0.0000
@<TRIPOS>BOND
     1     4     2    1
     2     4     5    1
     3     3     2    2
     4     2     1    1
     5     1     6    1
     6     6     7    1
     7     7     9    2
     8     7     8    1
     9     9    11    1
    10     8    10    2
    11    11    12    2
    12    10    12    1
