@<TRIPOS>MOLECULE
/home/cewinharhar/GITHUB/reincatalyze/data/processed/docking_pred/2023-Apr-25-2140_maxeplen10_maxtrainstep200_exh16_gamma099_lrac3e-4_lrcr1e-3/bef029ec7f2d3d0301694813bb63cef4e6663bb8_ligand_2.pdbqt
 12 12 0 0 0
SMALL
GASTEIGER

@<TRIPOS>ATOM
      1  C          8.2430   -0.8840   -1.9360 C.3     1  UNL1        0.1270
      2  C          8.4170   -2.0080   -2.8920 C.2     1  UNL1        0.3030
      3  O          9.5290   -2.5220   -3.1760 O.2     1  UNL1       -0.2520
      4  O          7.2980   -2.5360   -3.5180 O.3     1  UNL1       -0.4810
      5  H          6.6570   -3.0630   -2.9210 H       1  UNL1        0.2960
      6  C          7.3780   -1.3290   -0.7940 C.3     1  UNL1        0.0470
      7  C          6.5580   -0.2710   -0.2100 C.2     1  UNL1       -0.0470
      8  C          6.1730    0.8600   -0.8870 C.2     1  UNL1        0.0040
      9  C          6.1400   -0.3990    1.0920 C.2     1  UNL1        0.0040
     10  C          5.4000    1.8460   -0.3220 C.2     1  UNL1        0.0000
     11  C          5.3660    0.5700    1.6890 C.2     1  UNL1        0.0000
     12  C          4.9850    1.7110    0.9850 C.2     1  UNL1        0.0000
@<TRIPOS>BOND
     1     4     5    1
     2     4     2    1
     3     3     2    2
     4     2     1    1
     5     1     6    1
     6     8    10    1
     7     8     7    2
     8     6     7    1
     9    10    12    2
    10     7     9    1
    11    12    11    1
    12     9    11    2
