@<TRIPOS>MOLECULE
/home/cewinharhar/GITHUB/reincatalyze/data/processed/docking_pred/2023-Apr-25-2140_maxeplen10_maxtrainstep200_exh16_gamma099_lrac3e-4_lrcr1e-3/bf1bd72bf83e0bbc7f208f1f88a3802cf16c22f1_ligand_2.pdbqt
 12 12 0 0 0
SMALL
GASTEIGER

@<TRIPOS>ATOM
      1  C          5.3990    2.8750    0.0860 C.3     1  UNL1        0.1270
      2  C          6.2010    3.8390    0.8830 C.2     1  UNL1        0.3030
      3  O          6.2230    3.8620    2.1400 O.2     1  UNL1       -0.2520
      4  O          6.9790    4.7750    0.2190 O.3     1  UNL1       -0.4810
      5  H          6.9520    5.7260    0.5920 H       1  UNL1        0.2960
      6  C          4.9080    1.7740    0.9790 C.3     1  UNL1        0.0470
      7  C          5.7350    0.5690    0.9630 C.2     1  UNL1       -0.0470
      8  C          6.5080    0.1870   -0.1060 C.2     1  UNL1        0.0040
      9  C          5.7510   -0.2390    2.0730 C.2     1  UNL1        0.0040
     10  C          7.2800   -0.9500   -0.1050 C.2     1  UNL1        0.0000
     11  C          6.5110   -1.3850    2.1080 C.2     1  UNL1        0.0000
     12  C          7.2900   -1.7560    1.0130 C.2     1  UNL1        0.0000
@<TRIPOS>BOND
     1     8    10    1
     2     8     7    2
     3    10    12    2
     4     1     2    1
     5     1     6    1
     6     4     5    1
     7     4     2    1
     8     2     3    2
     9     7     6    1
    10     7     9    1
    11    12    11    1
    12     9    11    2
