@<TRIPOS>MOLECULE
/home/cewinharhar/GITHUB/reincatalyze/data/processed/docking_pred/2023-Apr-25-2140_maxeplen10_maxtrainstep200_exh16_gamma099_lrac3e-4_lrcr1e-3/bf1bd72bf83e0bbc7f208f1f88a3802cf16c22f1_ligand_2.pdbqt
 12 12 0 0 0
SMALL
GASTEIGER

@<TRIPOS>ATOM
      1  C          8.4090   -0.5550   -2.2110 C.3     1  UNL1        0.1270
      2  C          8.3500   -1.8560   -2.9280 C.2     1  UNL1        0.3030
      3  O          7.2800   -2.4180   -3.2730 O.2     1  UNL1       -0.2520
      4  O          9.5360   -2.5020   -3.2430 O.3     1  UNL1       -0.4810
      5  H         10.2140   -1.9570   -3.7790 H       1  UNL1        0.2960
      6  C          7.0270    0.0210   -2.1090 C.3     1  UNL1        0.0470
      7  C          6.4960    0.0780   -0.7490 C.2     1  UNL1       -0.0470
      8  C          6.5950   -0.9520    0.1540 C.2     1  UNL1        0.0040
      9  C          5.8560    1.2190   -0.3340 C.2     1  UNL1        0.0040
     10  C          6.0900   -0.8820    1.4300 C.2     1  UNL1        0.0000
     11  C          5.3370    1.3230    0.9360 C.2     1  UNL1        0.0000
     12  C          5.4480    0.2670    1.8390 C.2     1  UNL1        0.0000
@<TRIPOS>BOND
     1     5     4    1
     2     3     2    2
     3     4     2    1
     4     2     1    1
     5     1     6    1
     6     6     7    1
     7     7     9    2
     8     7     8    1
     9     9    11    1
    10     8    10    2
    11    11    12    2
    12    10    12    1
