MODEL 1
REMARK VINA RESULT:      -7.4      0.000      0.000
REMARK SMILES O=C(O)CCc1ccccc1
REMARK SMILES IDX 4 1 2 2 1 3 3 4 5 6 6 7 7 8 11 9 8 10 10 11 9 12
REMARK H PARENT 3 5
REMARK Flexibility Score: inf
ROOT
ATOM      1  C   UNL     1       8.444  -0.592  -2.183  1.00  0.00     0.127 C 
ENDROOT
BRANCH   1   2
ATOM      2  C   UNL     1       8.507  -1.884  -2.914  1.00  0.00     0.303 C 
ATOM      3  O   UNL     1       9.564  -2.541  -3.088  1.00  0.00    -0.252 OA
BRANCH   2   4
ATOM      4  O   UNL     1       7.339  -2.412  -3.443  1.00  0.00    -0.481 OA
ATOM      5  H   UNL     1       6.466  -2.060  -3.043  1.00  0.00     0.296 HD
ENDBRANCH   2   4
ENDBRANCH   1   2
BRANCH   1   6
ATOM      6  C   UNL     1       7.024  -0.109  -2.142  1.00  0.00     0.047 C 
BRANCH   6   7
ATOM      7  C   UNL     1       6.480   0.055  -0.796  1.00  0.00    -0.047 A 
ATOM      8  C   UNL     1       5.819   1.181  -0.371  1.00  0.00     0.004 A 
ATOM      9  C   UNL     1       6.632  -0.966   0.108  1.00  0.00     0.004 A 
ATOM     10  C   UNL     1       5.314   1.319   0.900  1.00  0.00     0.000 A 
ATOM     11  C   UNL     1       6.139  -0.862   1.389  1.00  0.00     0.000 A 
ATOM     12  C   UNL     1       5.470   0.289   1.802  1.00  0.00     0.000 A 
ENDBRANCH   6   7
ENDBRANCH   1   6
TORSDOF 4
ENDMDL
MODEL 2
REMARK VINA RESULT:      -7.3      0.107      1.720
REMARK SMILES O=C(O)CCc1ccccc1
REMARK SMILES IDX 4 1 2 2 1 3 3 4 5 6 6 7 7 8 11 9 8 10 10 11 9 12
REMARK H PARENT 3 5
REMARK Flexibility Score: inf
ROOT
ATOM      1  C   UNL     1       8.409  -0.555  -2.211  1.00  0.00     0.127 C 
ENDROOT
BRANCH   1   2
ATOM      2  C   UNL     1       8.350  -1.856  -2.928  1.00  0.00     0.303 C 
ATOM      3  O   UNL     1       7.280  -2.418  -3.273  1.00  0.00    -0.252 OA
BRANCH   2   4
ATOM      4  O   UNL     1       9.536  -2.502  -3.243  1.00  0.00    -0.481 OA
ATOM      5  H   UNL     1      10.214  -1.957  -3.779  1.00  0.00     0.296 HD
ENDBRANCH   2   4
ENDBRANCH   1   2
BRANCH   1   6
ATOM      6  C   UNL     1       7.027   0.021  -2.109  1.00  0.00     0.047 C 
BRANCH   6   7
ATOM      7  C   UNL     1       6.496   0.078  -0.749  1.00  0.00    -0.047 A 
ATOM      8  C   UNL     1       6.595  -0.952   0.154  1.00  0.00     0.004 A 
ATOM      9  C   UNL     1       5.856   1.219  -0.334  1.00  0.00     0.004 A 
ATOM     10  C   UNL     1       6.090  -0.882   1.430  1.00  0.00     0.000 A 
ATOM     11  C   UNL     1       5.337   1.323   0.936  1.00  0.00     0.000 A 
ATOM     12  C   UNL     1       5.448   0.267   1.839  1.00  0.00     0.000 A 
ENDBRANCH   6   7
ENDBRANCH   1   6
TORSDOF 4
ENDMDL
MODEL 3
REMARK VINA RESULT:      -6.8      3.361      5.050
REMARK SMILES O=C(O)CCc1ccccc1
REMARK SMILES IDX 4 1 2 2 1 3 3 4 5 6 6 7 7 8 11 9 8 10 10 11 9 12
REMARK H PARENT 3 5
REMARK Flexibility Score: inf
ROOT
ATOM      1  C   UNL     1       4.996   1.799   0.691  1.00  0.00     0.127 C 
ENDROOT
BRANCH   1   2
ATOM      2  C   UNL     1       4.581   1.065   1.915  1.00  0.00     0.303 C 
ATOM      3  O   UNL     1       5.285   0.191   2.481  1.00  0.00    -0.252 OA
BRANCH   2   4
ATOM      4  O   UNL     1       3.348   1.349   2.481  1.00  0.00    -0.481 OA
ATOM      5  H   UNL     1       3.103   0.812   3.316  1.00  0.00     0.296 HD
ENDBRANCH   2   4
ENDBRANCH   1   2
BRANCH   1   6
ATOM      6  C   UNL     1       6.490   1.929   0.668  1.00  0.00     0.047 C 
BRANCH   6   7
ATOM      7  C   UNL     1       7.150   1.139  -0.368  1.00  0.00    -0.047 A 
ATOM      8  C   UNL     1       8.496   1.198  -0.634  1.00  0.00     0.004 A 
ATOM      9  C   UNL     1       6.394   0.283  -1.131  1.00  0.00     0.004 A 
ATOM     10  C   UNL     1       9.101   0.447  -1.614  1.00  0.00     0.000 A 
ATOM     11  C   UNL     1       6.966  -0.482  -2.120  1.00  0.00     0.000 A 
ATOM     12  C   UNL     1       8.335  -0.409  -2.375  1.00  0.00     0.000 A 
ENDBRANCH   6   7
ENDBRANCH   1   6
TORSDOF 4
ENDMDL
MODEL 4
REMARK VINA RESULT:      -6.7      1.948      2.640
REMARK SMILES O=C(O)CCc1ccccc1
REMARK SMILES IDX 4 1 2 2 1 3 3 4 5 6 6 7 7 8 11 9 8 10 10 11 9 12
REMARK H PARENT 3 5
REMARK Flexibility Score: inf
ROOT
ATOM      1  C   UNL     1       8.246   0.217  -2.173  1.00  0.00     0.127 C 
ENDROOT
BRANCH   1   2
ATOM      2  C   UNL     1       9.366   0.344  -1.204  1.00  0.00     0.303 C 
ATOM      3  O   UNL     1       9.496  -0.379  -0.184  1.00  0.00    -0.252 OA
BRANCH   2   4
ATOM      4  O   UNL     1      10.336   1.310  -1.424  1.00  0.00    -0.481 OA
ATOM      5  H   UNL     1      11.188   0.992  -1.890  1.00  0.00     0.296 HD
ENDBRANCH   2   4
ENDBRANCH   1   2
BRANCH   1   6
ATOM      6  C   UNL     1       7.125  -0.556  -1.542  1.00  0.00     0.047 C 
BRANCH   6   7
ATOM      7  C   UNL     1       6.359   0.194  -0.549  1.00  0.00    -0.047 A 
ATOM      8  C   UNL     1       6.128  -0.248   0.731  1.00  0.00     0.004 A 
ATOM      9  C   UNL     1       5.832   1.412  -0.900  1.00  0.00     0.004 A 
ATOM     10  C   UNL     1       5.405   0.471   1.653  1.00  0.00     0.000 A 
ATOM     11  C   UNL     1       5.102   2.157  -0.002  1.00  0.00     0.000 A 
ATOM     12  C   UNL     1       4.879   1.692   1.293  1.00  0.00     0.000 A 
ENDBRANCH   6   7
ENDBRANCH   1   6
TORSDOF 4
ENDMDL
MODEL 5
REMARK VINA RESULT:      -6.6      3.827      4.964
REMARK SMILES O=C(O)CCc1ccccc1
REMARK SMILES IDX 4 1 2 2 1 3 3 4 5 6 6 7 7 8 11 9 8 10 10 11 9 12
REMARK H PARENT 3 5
REMARK Flexibility Score: inf
ROOT
ATOM      1  C   UNL     1       5.399   2.875   0.086  1.00  0.00     0.127 C 
ENDROOT
BRANCH   1   2
ATOM      2  C   UNL     1       6.201   3.839   0.883  1.00  0.00     0.303 C 
ATOM      3  O   UNL     1       6.223   3.862   2.140  1.00  0.00    -0.252 OA
BRANCH   2   4
ATOM      4  O   UNL     1       6.979   4.775   0.219  1.00  0.00    -0.481 OA
ATOM      5  H   UNL     1       6.952   5.726   0.592  1.00  0.00     0.296 HD
ENDBRANCH   2   4
ENDBRANCH   1   2
BRANCH   1   6
ATOM      6  C   UNL     1       4.908   1.774   0.979  1.00  0.00     0.047 C 
BRANCH   6   7
ATOM      7  C   UNL     1       5.735   0.569   0.963  1.00  0.00    -0.047 A 
ATOM      8  C   UNL     1       6.508   0.187  -0.106  1.00  0.00     0.004 A 
ATOM      9  C   UNL     1       5.751  -0.239   2.073  1.00  0.00     0.004 A 
ATOM     10  C   UNL     1       7.280  -0.950  -0.105  1.00  0.00     0.000 A 
ATOM     11  C   UNL     1       6.511  -1.385   2.108  1.00  0.00     0.000 A 
ATOM     12  C   UNL     1       7.290  -1.756   1.013  1.00  0.00     0.000 A 
ENDBRANCH   6   7
ENDBRANCH   1   6
TORSDOF 4
ENDMDL
