@<TRIPOS>MOLECULE
/home/cewinharhar/GITHUB/reincatalyze/data/processed/docking_pred/2023-Apr-25-2140_maxeplen10_maxtrainstep200_exh16_gamma099_lrac3e-4_lrcr1e-3/bf1bd72bf83e0bbc7f208f1f88a3802cf16c22f1_ligand_2.pdbqt
 12 12 0 0 0
SMALL
GASTEIGER

@<TRIPOS>ATOM
      1  C          4.9960    1.7990    0.6910 C.3     1  UNL1        0.1270
      2  C          4.5810    1.0650    1.9150 C.2     1  UNL1        0.3030
      3  O          5.2850    0.1910    2.4810 O.2     1  UNL1       -0.2520
      4  O          3.3480    1.3490    2.4810 O.3     1  UNL1       -0.4810
      5  H          3.1030    0.8120    3.3160 H       1  UNL1        0.2960
      6  C          6.4900    1.9290    0.6680 C.3     1  UNL1        0.0470
      7  C          7.1500    1.1390   -0.3680 C.2     1  UNL1       -0.0470
      8  C          8.4960    1.1980   -0.6340 C.2     1  UNL1        0.0040
      9  C          6.3940    0.2830   -1.1310 C.2     1  UNL1        0.0040
     10  C          9.1010    0.4470   -1.6140 C.2     1  UNL1        0.0000
     11  C          6.9660   -0.4820   -2.1200 C.2     1  UNL1        0.0000
     12  C          8.3350   -0.4090   -2.3750 C.2     1  UNL1        0.0000
@<TRIPOS>BOND
     1    12    11    2
     2    12    10    1
     3    11     9    1
     4    10     8    2
     5     9     7    2
     6     8     7    1
     7     7     6    1
     8     6     1    1
     9     1     2    1
    10     2     3    2
    11     2     4    1
    12     4     5    1
