@<TRIPOS>MOLECULE
/home/cewinharhar/GITHUB/reincatalyze/data/processed/docking_pred/2023-Apr-25-2140_maxeplen10_maxtrainstep200_exh16_gamma099_lrac3e-4_lrcr1e-3/bf1bd72bf83e0bbc7f208f1f88a3802cf16c22f1_ligand_2.pdbqt
 12 12 0 0 0
SMALL
GASTEIGER

@<TRIPOS>ATOM
      1  C          8.2460    0.2170   -2.1730 C.3     1  UNL1        0.1270
      2  C          9.3660    0.3440   -1.2040 C.2     1  UNL1        0.3030
      3  O          9.4960   -0.3790   -0.1840 O.2     1  UNL1       -0.2520
      4  O         10.3360    1.3100   -1.4240 O.3     1  UNL1       -0.4810
      5  H         11.1880    0.9920   -1.8900 H       1  UNL1        0.2960
      6  C          7.1250   -0.5560   -1.5420 C.3     1  UNL1        0.0470
      7  C          6.3590    0.1940   -0.5490 C.2     1  UNL1       -0.0470
      8  C          6.1280   -0.2480    0.7310 C.2     1  UNL1        0.0040
      9  C          5.8320    1.4120   -0.9000 C.2     1  UNL1        0.0040
     10  C          5.4050    0.4710    1.6530 C.2     1  UNL1        0.0000
     11  C          5.1020    2.1570   -0.0020 C.2     1  UNL1        0.0000
     12  C          4.8790    1.6920    1.2930 C.2     1  UNL1        0.0000
@<TRIPOS>BOND
     1     1     6    1
     2     1     2    1
     3     5     4    1
     4     6     7    1
     5     4     2    1
     6     2     3    2
     7     9     7    2
     8     9    11    1
     9     7     8    1
    10    11    12    2
    11     8    10    2
    12    12    10    1
