@<TRIPOS>MOLECULE
/home/cewinharhar/GITHUB/reincatalyze/data/processed/docking_pred/2023-Apr-25-2140_maxeplen10_maxtrainstep200_exh16_gamma099_lrac3e-4_lrcr1e-3/bf1bd72bf83e0bbc7f208f1f88a3802cf16c22f1_ligand_2.pdbqt
 12 12 0 0 0
SMALL
GASTEIGER

@<TRIPOS>ATOM
      1  C          8.4440   -0.5920   -2.1830 C.3     1  UNL1        0.1270
      2  C          8.5070   -1.8840   -2.9140 C.2     1  UNL1        0.3030
      3  O          9.5640   -2.5410   -3.0880 O.2     1  UNL1       -0.2520
      4  O          7.3390   -2.4120   -3.4430 O.3     1  UNL1       -0.4810
      5  H          6.4660   -2.0600   -3.0430 H       1  UNL1        0.2960
      6  C          7.0240   -0.1090   -2.1420 C.3     1  UNL1        0.0470
      7  C          6.4800    0.0550   -0.7960 C.2     1  UNL1       -0.0470
      8  C          5.8190    1.1810   -0.3710 C.2     1  UNL1        0.0040
      9  C          6.6320   -0.9660    0.1080 C.2     1  UNL1        0.0040
     10  C          5.3140    1.3190    0.9000 C.2     1  UNL1        0.0000
     11  C          6.1390   -0.8620    1.3890 C.2     1  UNL1        0.0000
     12  C          5.4700    0.2890    1.8020 C.2     1  UNL1        0.0000
@<TRIPOS>BOND
     1     4     5    1
     2     4     2    1
     3     3     2    2
     4     2     1    1
     5     1     6    1
     6     6     7    1
     7     7     8    2
     8     7     9    1
     9     8    10    1
    10     9    11    2
    11    10    12    2
    12    11    12    1
