@<TRIPOS>MOLECULE
/home/cewinharhar/GITHUB/reincatalyze/data/processed/docking_pred/2023-Apr-25-2140_maxeplen10_maxtrainstep200_exh16_gamma099_lrac3e-4_lrcr1e-3/bfaa3bc067c86e8b5ef89a85d12e30cfe25fe09e_ligand_2.pdbqt
 12 12 0 0 0
SMALL
GASTEIGER

@<TRIPOS>ATOM
      1  C          5.0180    1.7620    0.7030 C.3     1  UNL1        0.1270
      2  C          4.5910    1.0320    1.9250 C.2     1  UNL1        0.3030
      3  O          5.2860    0.1520    2.4950 O.2     1  UNL1       -0.2520
      4  O          3.3570    1.3250    2.4850 O.3     1  UNL1       -0.4810
      5  H          2.6050    0.6620    2.2840 H       1  UNL1        0.2960
      6  C          6.5140    1.8770    0.6870 C.3     1  UNL1        0.0470
      7  C          7.1680    1.0990   -0.3620 C.2     1  UNL1       -0.0470
      8  C          8.5080    1.1810   -0.6530 C.2     1  UNL1        0.0040
      9  C          6.4140    0.2300   -1.1100 C.2     1  UNL1        0.0040
     10  C          9.1070    0.4410   -1.6430 C.2     1  UNL1        0.0000
     11  C          6.9810   -0.5260   -2.1110 C.2     1  UNL1        0.0000
     12  C          8.3430   -0.4290   -2.3900 C.2     1  UNL1        0.0000
@<TRIPOS>BOND
     1    12    11    2
     2    12    10    1
     3    11     9    1
     4    10     8    2
     5     9     7    2
     6     8     7    1
     7     7     6    1
     8     6     1    1
     9     1     2    1
    10     2     4    1
    11     2     3    2
    12     5     4    1
