@<TRIPOS>MOLECULE
/home/cewinharhar/GITHUB/reincatalyze/data/processed/docking_pred/2023-Apr-25-2140_maxeplen10_maxtrainstep200_exh16_gamma099_lrac3e-4_lrcr1e-3/bfaa3bc067c86e8b5ef89a85d12e30cfe25fe09e_ligand_2.pdbqt
 12 12 0 0 0
SMALL
GASTEIGER

@<TRIPOS>ATOM
      1  C          5.3420    2.9110    0.0660 C.3     1  UNL1        0.1270
      2  C          6.2900    3.7850    0.8050 C.2     1  UNL1        0.3030
      3  O          6.8740    4.7750    0.2950 O.2     1  UNL1       -0.2520
      4  O          6.5580    3.5080    2.1370 O.3     1  UNL1       -0.4810
      5  H          7.4480    3.8590    2.4980 H       1  UNL1        0.2960
      6  C          5.1350    1.6380    0.8330 C.3     1  UNL1        0.0470
      7  C          5.9720    0.5250    0.3930 C.2     1  UNL1       -0.0470
      8  C          6.4140   -0.4750    1.2240 C.2     1  UNL1        0.0040
      9  C          6.3480    0.4600   -0.9260 C.2     1  UNL1        0.0040
     10  C          7.2020   -1.5150    0.7930 C.2     1  UNL1        0.0000
     11  C          7.1370   -0.5670   -1.3910 C.2     1  UNL1        0.0000
     12  C          7.5750   -1.5730   -0.5320 C.2     1  UNL1        0.0000
@<TRIPOS>BOND
     1    11     9    1
     2    11    12    2
     3     9     7    2
     4    12    10    1
     5     1     2    1
     6     1     6    1
     7     3     2    2
     8     7     6    1
     9     7     8    1
    10    10     8    2
    11     2     4    1
    12     4     5    1
