MODEL 1
REMARK VINA RESULT:      -7.4      0.000      0.000
REMARK SMILES O=C(O)CCc1ccccc1
REMARK SMILES IDX 4 1 2 2 1 3 3 4 5 6 6 7 7 8 11 9 8 10 10 11 9 12
REMARK H PARENT 3 5
REMARK Flexibility Score: inf
ROOT
ATOM      1  C   UNL     1       8.448  -0.568  -2.207  1.00  0.00     0.127 C 
ENDROOT
BRANCH   1   2
ATOM      2  C   UNL     1       8.506  -1.872  -2.917  1.00  0.00     0.303 C 
ATOM      3  O   UNL     1       9.562  -2.533  -3.086  1.00  0.00    -0.252 OA
BRANCH   2   4
ATOM      4  O   UNL     1       7.335  -2.408  -3.430  1.00  0.00    -0.481 OA
ATOM      5  H   UNL     1       6.724  -1.757  -3.929  1.00  0.00     0.296 HD
ENDBRANCH   2   4
ENDBRANCH   1   2
BRANCH   1   6
ATOM      6  C   UNL     1       7.024  -0.099  -2.138  1.00  0.00     0.047 C 
BRANCH   6   7
ATOM      7  C   UNL     1       6.494   0.022  -0.782  1.00  0.00    -0.047 A 
ATOM      8  C   UNL     1       6.593  -0.964   0.169  1.00  0.00     0.004 A 
ATOM      9  C   UNL     1       5.857   1.183  -0.421  1.00  0.00     0.004 A 
ATOM     10  C   UNL     1       6.089  -0.833   1.441  1.00  0.00     0.000 A 
ATOM     11  C   UNL     1       5.339   1.348   0.843  1.00  0.00     0.000 A 
ATOM     12  C   UNL     1       5.450   0.335   1.795  1.00  0.00     0.000 A 
ENDBRANCH   6   7
ENDBRANCH   1   6
TORSDOF 4
ENDMDL
MODEL 2
REMARK VINA RESULT:      -7.3      0.066      1.427
REMARK SMILES O=C(O)CCc1ccccc1
REMARK SMILES IDX 4 1 2 2 1 3 3 4 5 6 6 7 7 8 11 9 8 10 10 11 9 12
REMARK H PARENT 3 5
REMARK Flexibility Score: inf
ROOT
ATOM      1  C   UNL     1       8.443  -0.563  -2.220  1.00  0.00     0.127 C 
ENDROOT
BRANCH   1   2
ATOM      2  C   UNL     1       8.514  -1.869  -2.926  1.00  0.00     0.303 C 
ATOM      3  O   UNL     1       9.580  -2.510  -3.109  1.00  0.00    -0.252 OA
BRANCH   2   4
ATOM      4  O   UNL     1       7.345  -2.430  -3.418  1.00  0.00    -0.481 OA
ATOM      5  H   UNL     1       6.478  -1.953  -3.164  1.00  0.00     0.296 HD
ENDBRANCH   2   4
ENDBRANCH   1   2
BRANCH   1   6
ATOM      6  C   UNL     1       7.020  -0.090  -2.188  1.00  0.00     0.047 C 
BRANCH   6   7
ATOM      7  C   UNL     1       6.475   0.096  -0.845  1.00  0.00    -0.047 A 
ATOM      8  C   UNL     1       5.832   1.237  -0.432  1.00  0.00     0.004 A 
ATOM      9  C   UNL     1       6.608  -0.919   0.070  1.00  0.00     0.004 A 
ATOM     10  C   UNL     1       5.325   1.395   0.836  1.00  0.00     0.000 A 
ATOM     11  C   UNL     1       6.114  -0.794   1.348  1.00  0.00     0.000 A 
ATOM     12  C   UNL     1       5.463   0.371   1.748  1.00  0.00     0.000 A 
ENDBRANCH   6   7
ENDBRANCH   1   6
TORSDOF 4
ENDMDL
MODEL 3
REMARK VINA RESULT:      -6.7      3.346      5.049
REMARK SMILES O=C(O)CCc1ccccc1
REMARK SMILES IDX 4 1 2 2 1 3 3 4 5 6 6 7 7 8 11 9 8 10 10 11 9 12
REMARK H PARENT 3 5
REMARK Flexibility Score: inf
ROOT
ATOM      1  C   UNL     1       5.018   1.762   0.703  1.00  0.00     0.127 C 
ENDROOT
BRANCH   1   2
ATOM      2  C   UNL     1       4.591   1.032   1.925  1.00  0.00     0.303 C 
ATOM      3  O   UNL     1       5.286   0.152   2.495  1.00  0.00    -0.252 OA
BRANCH   2   4
ATOM      4  O   UNL     1       3.357   1.325   2.485  1.00  0.00    -0.481 OA
ATOM      5  H   UNL     1       2.605   0.662   2.284  1.00  0.00     0.296 HD
ENDBRANCH   2   4
ENDBRANCH   1   2
BRANCH   1   6
ATOM      6  C   UNL     1       6.514   1.877   0.687  1.00  0.00     0.047 C 
BRANCH   6   7
ATOM      7  C   UNL     1       7.168   1.099  -0.362  1.00  0.00    -0.047 A 
ATOM      8  C   UNL     1       8.508   1.181  -0.653  1.00  0.00     0.004 A 
ATOM      9  C   UNL     1       6.414   0.230  -1.110  1.00  0.00     0.004 A 
ATOM     10  C   UNL     1       9.107   0.441  -1.643  1.00  0.00     0.000 A 
ATOM     11  C   UNL     1       6.981  -0.526  -2.111  1.00  0.00     0.000 A 
ATOM     12  C   UNL     1       8.343  -0.429  -2.390  1.00  0.00     0.000 A 
ENDBRANCH   6   7
ENDBRANCH   1   6
TORSDOF 4
ENDMDL
MODEL 4
REMARK VINA RESULT:      -6.7      1.956      2.673
REMARK SMILES O=C(O)CCc1ccccc1
REMARK SMILES IDX 4 1 2 2 1 3 3 4 5 6 6 7 7 8 11 9 8 10 10 11 9 12
REMARK H PARENT 3 5
REMARK Flexibility Score: inf
ROOT
ATOM      1  C   UNL     1       8.292   0.241  -2.210  1.00  0.00     0.127 C 
ENDROOT
BRANCH   1   2
ATOM      2  C   UNL     1       9.394   0.349  -1.217  1.00  0.00     0.303 C 
ATOM      3  O   UNL     1       9.489  -0.376  -0.194  1.00  0.00    -0.252 OA
BRANCH   2   4
ATOM      4  O   UNL     1      10.384   1.299  -1.416  1.00  0.00    -0.481 OA
ATOM      5  H   UNL     1      10.604   1.521  -2.390  1.00  0.00     0.296 HD
ENDBRANCH   2   4
ENDBRANCH   1   2
BRANCH   1   6
ATOM      6  C   UNL     1       7.128  -0.472  -1.588  1.00  0.00     0.047 C 
BRANCH   6   7
ATOM      7  C   UNL     1       6.344   0.343  -0.663  1.00  0.00    -0.047 A 
ATOM      8  C   UNL     1       5.802   1.562  -0.990  1.00  0.00     0.004 A 
ATOM      9  C   UNL     1       6.129  -0.121   0.611  1.00  0.00     0.004 A 
ATOM     10  C   UNL     1       5.067   2.317  -0.108  1.00  0.00     0.000 A 
ATOM     11  C   UNL     1       5.398   0.609   1.520  1.00  0.00     0.000 A 
ATOM     12  C   UNL     1       4.855   1.844   1.169  1.00  0.00     0.000 A 
ENDBRANCH   6   7
ENDBRANCH   1   6
TORSDOF 4
ENDMDL
MODEL 5
REMARK VINA RESULT:      -6.5      3.711      4.896
REMARK SMILES O=C(O)CCc1ccccc1
REMARK SMILES IDX 4 1 2 2 1 3 3 4 5 6 6 7 7 8 11 9 8 10 10 11 9 12
REMARK H PARENT 3 5
REMARK Flexibility Score: inf
ROOT
ATOM      1  C   UNL     1       5.342   2.911   0.066  1.00  0.00     0.127 C 
ENDROOT
BRANCH   1   2
ATOM      2  C   UNL     1       6.290   3.785   0.805  1.00  0.00     0.303 C 
ATOM      3  O   UNL     1       6.874   4.775   0.295  1.00  0.00    -0.252 OA
BRANCH   2   4
ATOM      4  O   UNL     1       6.558   3.508   2.137  1.00  0.00    -0.481 OA
ATOM      5  H   UNL     1       7.448   3.859   2.498  1.00  0.00     0.296 HD
ENDBRANCH   2   4
ENDBRANCH   1   2
BRANCH   1   6
ATOM      6  C   UNL     1       5.135   1.638   0.833  1.00  0.00     0.047 C 
BRANCH   6   7
ATOM      7  C   UNL     1       5.972   0.525   0.393  1.00  0.00    -0.047 A 
ATOM      8  C   UNL     1       6.414  -0.475   1.224  1.00  0.00     0.004 A 
ATOM      9  C   UNL     1       6.348   0.460  -0.926  1.00  0.00     0.004 A 
ATOM     10  C   UNL     1       7.202  -1.515   0.793  1.00  0.00     0.000 A 
ATOM     11  C   UNL     1       7.137  -0.567  -1.391  1.00  0.00     0.000 A 
ATOM     12  C   UNL     1       7.575  -1.573  -0.532  1.00  0.00     0.000 A 
ENDBRANCH   6   7
ENDBRANCH   1   6
TORSDOF 4
ENDMDL
