@<TRIPOS>MOLECULE
/home/cewinharhar/GITHUB/reincatalyze/data/processed/docking_pred/2023-Apr-25-2140_maxeplen10_maxtrainstep200_exh16_gamma099_lrac3e-4_lrcr1e-3/bfaa3bc067c86e8b5ef89a85d12e30cfe25fe09e_ligand_2.pdbqt
 12 12 0 0 0
SMALL
GASTEIGER

@<TRIPOS>ATOM
      1  C          8.2920    0.2410   -2.2100 C.3     1  UNL1        0.1270
      2  C          9.3940    0.3490   -1.2170 C.2     1  UNL1        0.3030
      3  O          9.4890   -0.3760   -0.1940 O.2     1  UNL1       -0.2520
      4  O         10.3840    1.2990   -1.4160 O.3     1  UNL1       -0.4810
      5  H         10.6040    1.5210   -2.3900 H       1  UNL1        0.2960
      6  C          7.1280   -0.4720   -1.5880 C.3     1  UNL1        0.0470
      7  C          6.3440    0.3430   -0.6630 C.2     1  UNL1       -0.0470
      8  C          5.8020    1.5620   -0.9900 C.2     1  UNL1        0.0040
      9  C          6.1290   -0.1210    0.6110 C.2     1  UNL1        0.0040
     10  C          5.0670    2.3170   -0.1080 C.2     1  UNL1        0.0000
     11  C          5.3980    0.6090    1.5200 C.2     1  UNL1        0.0000
     12  C          4.8550    1.8440    1.1690 C.2     1  UNL1        0.0000
@<TRIPOS>BOND
     1     5     4    1
     2     1     6    1
     3     1     2    1
     4     6     7    1
     5     4     2    1
     6     2     3    2
     7     8     7    2
     8     8    10    1
     9     7     9    1
    10    10    12    2
    11     9    11    2
    12    12    11    1
