@<TRIPOS>MOLECULE
/home/cewinharhar/GITHUB/reincatalyze/data/processed/docking_pred/2023-Apr-25-2140_maxeplen10_maxtrainstep200_exh16_gamma099_lrac3e-4_lrcr1e-3/bfaa3bc067c86e8b5ef89a85d12e30cfe25fe09e_ligand_2.pdbqt
 12 12 0 0 0
SMALL
GASTEIGER

@<TRIPOS>ATOM
      1  C          8.4430   -0.5630   -2.2200 C.3     1  UNL1        0.1270
      2  C          8.5140   -1.8690   -2.9260 C.2     1  UNL1        0.3030
      3  O          9.5800   -2.5100   -3.1090 O.2     1  UNL1       -0.2520
      4  O          7.3450   -2.4300   -3.4180 O.3     1  UNL1       -0.4810
      5  H          6.4780   -1.9530   -3.1640 H       1  UNL1        0.2960
      6  C          7.0200   -0.0900   -2.1880 C.3     1  UNL1        0.0470
      7  C          6.4750    0.0960   -0.8450 C.2     1  UNL1       -0.0470
      8  C          5.8320    1.2370   -0.4320 C.2     1  UNL1        0.0040
      9  C          6.6080   -0.9190    0.0700 C.2     1  UNL1        0.0040
     10  C          5.3250    1.3950    0.8360 C.2     1  UNL1        0.0000
     11  C          6.1140   -0.7940    1.3480 C.2     1  UNL1        0.0000
     12  C          5.4630    0.3710    1.7480 C.2     1  UNL1        0.0000
@<TRIPOS>BOND
     1     4     5    1
     2     4     2    1
     3     3     2    2
     4     2     1    1
     5     1     6    1
     6     6     7    1
     7     7     8    2
     8     7     9    1
     9     8    10    1
    10     9    11    2
    11    10    12    2
    12    11    12    1
