@<TRIPOS>MOLECULE
/home/cewinharhar/GITHUB/reincatalyze/data/processed/docking_pred/2023-Apr-25-2140_maxeplen10_maxtrainstep200_exh16_gamma099_lrac3e-4_lrcr1e-3/bfaa3bc067c86e8b5ef89a85d12e30cfe25fe09e_ligand_2.pdbqt
 12 12 0 0 0
SMALL
GASTEIGER

@<TRIPOS>ATOM
      1  C          8.4480   -0.5680   -2.2070 C.3     1  UNL1        0.1270
      2  C          8.5060   -1.8720   -2.9170 C.2     1  UNL1        0.3030
      3  O          9.5620   -2.5330   -3.0860 O.2     1  UNL1       -0.2520
      4  O          7.3350   -2.4080   -3.4300 O.3     1  UNL1       -0.4810
      5  H          6.7240   -1.7570   -3.9290 H       1  UNL1        0.2960
      6  C          7.0240   -0.0990   -2.1380 C.3     1  UNL1        0.0470
      7  C          6.4940    0.0220   -0.7820 C.2     1  UNL1       -0.0470
      8  C          6.5930   -0.9640    0.1690 C.2     1  UNL1        0.0040
      9  C          5.8570    1.1830   -0.4210 C.2     1  UNL1        0.0040
     10  C          6.0890   -0.8330    1.4410 C.2     1  UNL1        0.0000
     11  C          5.3390    1.3480    0.8430 C.2     1  UNL1        0.0000
     12  C          5.4500    0.3350    1.7950 C.2     1  UNL1        0.0000
@<TRIPOS>BOND
     1     5     4    1
     2     4     2    1
     3     3     2    2
     4     2     1    1
     5     1     6    1
     6     6     7    1
     7     7     9    2
     8     7     8    1
     9     9    11    1
    10     8    10    2
    11    11    12    2
    12    10    12    1
