@<TRIPOS>MOLECULE
/home/cewinharhar/GITHUB/reincatalyze/data/processed/docking_pred/2023-Apr-25-2140_maxeplen10_maxtrainstep200_exh16_gamma099_lrac3e-4_lrcr1e-3/c584487daa348165e33ca71579c90fd99cb4babd_ligand_2.pdbqt
 12 12 0 0 0
SMALL
GASTEIGER

@<TRIPOS>ATOM
      1  C          5.0050    1.7650    0.6750 C.3     1  UNL1        0.1270
      2  C          4.5970    1.0500    1.9120 C.2     1  UNL1        0.3030
      3  O          5.3090    0.1930    2.4940 O.2     1  UNL1       -0.2520
      4  O          3.3610    1.3320    2.4730 O.3     1  UNL1       -0.4810
      5  H          2.5910    1.4740    1.8150 H       1  UNL1        0.2960
      6  C          6.4990    1.9070    0.6500 C.3     1  UNL1        0.0470
      7  C          7.1630    1.1130   -0.3810 C.2     1  UNL1       -0.0470
      8  C          8.5070    1.1870   -0.6550 C.2     1  UNL1        0.0040
      9  C          6.4140    0.2390   -1.1290 C.2     1  UNL1        0.0040
     10  C          9.1160    0.4320   -1.6290 C.2     1  UNL1        0.0000
     11  C          6.9910   -0.5310   -2.1130 C.2     1  UNL1        0.0000
     12  C          8.3570   -0.4440   -2.3750 C.2     1  UNL1        0.0000
@<TRIPOS>BOND
     1    12    11    2
     2    12    10    1
     3    11     9    1
     4    10     8    2
     5     9     7    2
     6     8     7    1
     7     7     6    1
     8     6     1    1
     9     1     2    1
    10     5     4    1
    11     2     4    1
    12     2     3    2
