@<TRIPOS>MOLECULE
/home/cewinharhar/GITHUB/reincatalyze/data/processed/docking_pred/2023-Apr-25-2140_maxeplen10_maxtrainstep200_exh16_gamma099_lrac3e-4_lrcr1e-3/c584487daa348165e33ca71579c90fd99cb4babd_ligand_2.pdbqt
 12 12 0 0 0
SMALL
GASTEIGER

@<TRIPOS>ATOM
      1  C          8.2660   -1.0030   -1.7810 C.3     1  UNL1        0.1270
      2  C          8.4490   -2.0380   -2.8320 C.2     1  UNL1        0.3030
      3  O          9.5660   -2.5060   -3.1680 O.2     1  UNL1       -0.2520
      4  O          7.3320   -2.5290   -3.4910 O.3     1  UNL1       -0.4810
      5  H          6.5220   -2.7390   -2.9040 H       1  UNL1        0.2960
      6  C          7.1590   -1.4190   -0.8570 C.3     1  UNL1        0.0470
      7  C          6.4350   -0.3080   -0.2440 C.2     1  UNL1       -0.0470
      8  C          6.1140    0.8520   -0.9050 C.2     1  UNL1        0.0040
      9  C          6.0450   -0.4150    1.0680 C.2     1  UNL1        0.0040
     10  C          5.4310    1.8880   -0.3120 C.2     1  UNL1        0.0000
     11  C          5.3610    0.6020    1.6920 C.2     1  UNL1        0.0000
     12  C          5.0440    1.7730    1.0050 C.2     1  UNL1        0.0000
@<TRIPOS>BOND
     1     4     5    1
     2     4     2    1
     3     3     2    2
     4     2     1    1
     5     1     6    1
     6     8    10    1
     7     8     7    2
     8     6     7    1
     9    10    12    2
    10     7     9    1
    11    12    11    1
    12     9    11    2
