@<TRIPOS>MOLECULE
/home/cewinharhar/GITHUB/reincatalyze/data/processed/docking_pred/2023-Apr-25-2140_maxeplen10_maxtrainstep200_exh16_gamma099_lrac3e-4_lrcr1e-3/c584487daa348165e33ca71579c90fd99cb4babd_ligand_2.pdbqt
 12 12 0 0 0
SMALL
GASTEIGER

@<TRIPOS>ATOM
      1  C          8.4430   -0.5300   -2.2690 C.3     1  UNL1        0.1270
      2  C          8.5090   -1.8650   -2.9210 C.2     1  UNL1        0.3030
      3  O          9.5710   -2.5220   -3.0680 O.2     1  UNL1       -0.2520
      4  O          7.3390   -2.4350   -3.4000 O.3     1  UNL1       -0.4810
      5  H          7.4050   -3.4120   -3.6960 H       1  UNL1        0.2960
      6  C          7.0140   -0.0800   -2.1960 C.3     1  UNL1        0.0470
      7  C          6.4920    0.0540   -0.8370 C.2     1  UNL1       -0.0470
      8  C          6.5750   -0.9330    0.1140 C.2     1  UNL1        0.0040
      9  C          5.8800    1.2280   -0.4760 C.2     1  UNL1        0.0040
     10  C          6.0790   -0.7910    1.3880 C.2     1  UNL1        0.0000
     11  C          5.3710    1.4040    0.7900 C.2     1  UNL1        0.0000
     12  C          5.4650    0.3910    1.7430 C.2     1  UNL1        0.0000
@<TRIPOS>BOND
     1     5     4    1
     2     4     2    1
     3     3     2    2
     4     2     1    1
     5     1     6    1
     6     6     7    1
     7     7     9    2
     8     7     8    1
     9     9    11    1
    10     8    10    2
    11    11    12    2
    12    10    12    1
