@<TRIPOS>MOLECULE
/home/cewinharhar/GITHUB/reincatalyze/data/processed/docking_pred/2023-Apr-25-2140_maxeplen10_maxtrainstep200_exh16_gamma099_lrac3e-4_lrcr1e-3/c584487daa348165e33ca71579c90fd99cb4babd_ligand_2.pdbqt
 12 12 0 0 0
SMALL
GASTEIGER

@<TRIPOS>ATOM
      1  C          8.2270    0.2410   -2.2450 C.3     1  UNL1        0.1270
      2  C          9.3360    0.3510   -1.2620 C.2     1  UNL1        0.3030
      3  O          9.4560   -0.3910   -0.2540 O.2     1  UNL1       -0.2520
      4  O         10.3070    1.3220   -1.4520 O.3     1  UNL1       -0.4810
      5  H         10.1020    2.0270   -2.1650 H       1  UNL1        0.2960
      6  C          7.0860   -0.5140   -1.6280 C.3     1  UNL1        0.0470
      7  C          6.3330    0.2400   -0.6280 C.2     1  UNL1       -0.0470
      8  C          6.1180   -0.1970    0.6560 C.2     1  UNL1        0.0040
      9  C          5.8030    1.4570   -0.9770 C.2     1  UNL1        0.0040
     10  C          5.4070    0.5250    1.5850 C.2     1  UNL1        0.0000
     11  C          5.0850    2.2060   -0.0730 C.2     1  UNL1        0.0000
     12  C          4.8780    1.7460    1.2270 C.2     1  UNL1        0.0000
@<TRIPOS>BOND
     1     1     6    1
     2     1     2    1
     3     5     4    1
     4     6     7    1
     5     4     2    1
     6     2     3    2
     7     9     7    2
     8     9    11    1
     9     7     8    1
    10    11    12    2
    11     8    10    2
    12    12    10    1
