MODEL 1
REMARK VINA RESULT:      -7.4      0.000      0.000
REMARK SMILES O=C(O)CCc1ccccc1
REMARK SMILES IDX 4 1 2 2 1 3 3 4 5 6 6 7 7 8 11 9 8 10 10 11 9 12
REMARK H PARENT 3 5
REMARK Flexibility Score: inf
ROOT
ATOM      1  C   UNL     1       8.443  -0.530  -2.269  1.00  0.00     0.127 C 
ENDROOT
BRANCH   1   2
ATOM      2  C   UNL     1       8.509  -1.865  -2.921  1.00  0.00     0.303 C 
ATOM      3  O   UNL     1       9.571  -2.522  -3.068  1.00  0.00    -0.252 OA
BRANCH   2   4
ATOM      4  O   UNL     1       7.339  -2.435  -3.400  1.00  0.00    -0.481 OA
ATOM      5  H   UNL     1       7.405  -3.412  -3.696  1.00  0.00     0.296 HD
ENDBRANCH   2   4
ENDBRANCH   1   2
BRANCH   1   6
ATOM      6  C   UNL     1       7.014  -0.080  -2.196  1.00  0.00     0.047 C 
BRANCH   6   7
ATOM      7  C   UNL     1       6.492   0.054  -0.837  1.00  0.00    -0.047 A 
ATOM      8  C   UNL     1       6.575  -0.933   0.114  1.00  0.00     0.004 A 
ATOM      9  C   UNL     1       5.880   1.228  -0.476  1.00  0.00     0.004 A 
ATOM     10  C   UNL     1       6.079  -0.791   1.388  1.00  0.00     0.000 A 
ATOM     11  C   UNL     1       5.371   1.404   0.790  1.00  0.00     0.000 A 
ATOM     12  C   UNL     1       5.465   0.391   1.743  1.00  0.00     0.000 A 
ENDBRANCH   6   7
ENDBRANCH   1   6
TORSDOF 4
ENDMDL
MODEL 2
REMARK VINA RESULT:      -7.3      0.097      1.428
REMARK SMILES O=C(O)CCc1ccccc1
REMARK SMILES IDX 4 1 2 2 1 3 3 4 5 6 6 7 7 8 11 9 8 10 10 11 9 12
REMARK H PARENT 3 5
REMARK Flexibility Score: inf
ROOT
ATOM      1  C   UNL     1       8.391  -0.554  -2.226  1.00  0.00     0.127 C 
ENDROOT
BRANCH   1   2
ATOM      2  C   UNL     1       8.495  -1.870  -2.909  1.00  0.00     0.303 C 
ATOM      3  O   UNL     1       9.575  -2.493  -3.069  1.00  0.00    -0.252 OA
BRANCH   2   4
ATOM      4  O   UNL     1       7.343  -2.461  -3.405  1.00  0.00    -0.481 OA
ATOM      5  H   UNL     1       7.449  -3.409  -3.775  1.00  0.00     0.296 HD
ENDBRANCH   2   4
ENDBRANCH   1   2
BRANCH   1   6
ATOM      6  C   UNL     1       6.949  -0.143  -2.152  1.00  0.00     0.047 C 
BRANCH   6   7
ATOM      7  C   UNL     1       6.440   0.033  -0.794  1.00  0.00    -0.047 A 
ATOM      8  C   UNL     1       5.813   1.172  -0.354  1.00  0.00     0.004 A 
ATOM      9  C   UNL     1       6.591  -0.992   0.107  1.00  0.00     0.004 A 
ATOM     10  C   UNL     1       5.340   1.321   0.928  1.00  0.00     0.000 A 
ATOM     11  C   UNL     1       6.130  -0.877   1.399  1.00  0.00     0.000 A 
ATOM     12  C   UNL     1       5.495   0.288   1.827  1.00  0.00     0.000 A 
ENDBRANCH   6   7
ENDBRANCH   1   6
TORSDOF 4
ENDMDL
MODEL 3
REMARK VINA RESULT:      -7.2      0.684      1.617
REMARK SMILES O=C(O)CCc1ccccc1
REMARK SMILES IDX 4 1 2 2 1 3 3 4 5 6 6 7 7 8 11 9 8 10 10 11 9 12
REMARK H PARENT 3 5
REMARK Flexibility Score: inf
ROOT
ATOM      1  C   UNL     1       8.266  -1.003  -1.781  1.00  0.00     0.127 C 
ENDROOT
BRANCH   1   2
ATOM      2  C   UNL     1       8.449  -2.038  -2.832  1.00  0.00     0.303 C 
ATOM      3  O   UNL     1       9.566  -2.506  -3.168  1.00  0.00    -0.252 OA
BRANCH   2   4
ATOM      4  O   UNL     1       7.332  -2.529  -3.491  1.00  0.00    -0.481 OA
ATOM      5  H   UNL     1       6.522  -2.739  -2.904  1.00  0.00     0.296 HD
ENDBRANCH   2   4
ENDBRANCH   1   2
BRANCH   1   6
ATOM      6  C   UNL     1       7.159  -1.419  -0.857  1.00  0.00     0.047 C 
BRANCH   6   7
ATOM      7  C   UNL     1       6.435  -0.308  -0.244  1.00  0.00    -0.047 A 
ATOM      8  C   UNL     1       6.114   0.852  -0.905  1.00  0.00     0.004 A 
ATOM      9  C   UNL     1       6.045  -0.415   1.068  1.00  0.00     0.004 A 
ATOM     10  C   UNL     1       5.431   1.888  -0.312  1.00  0.00     0.000 A 
ATOM     11  C   UNL     1       5.361   0.602   1.692  1.00  0.00     0.000 A 
ATOM     12  C   UNL     1       5.044   1.773   1.005  1.00  0.00     0.000 A 
ENDBRANCH   6   7
ENDBRANCH   1   6
TORSDOF 4
ENDMDL
MODEL 4
REMARK VINA RESULT:      -6.7      3.337      5.037
REMARK SMILES O=C(O)CCc1ccccc1
REMARK SMILES IDX 4 1 2 2 1 3 3 4 5 6 6 7 7 8 11 9 8 10 10 11 9 12
REMARK H PARENT 3 5
REMARK Flexibility Score: inf
ROOT
ATOM      1  C   UNL     1       5.005   1.765   0.675  1.00  0.00     0.127 C 
ENDROOT
BRANCH   1   2
ATOM      2  C   UNL     1       4.597   1.050   1.912  1.00  0.00     0.303 C 
ATOM      3  O   UNL     1       5.309   0.193   2.494  1.00  0.00    -0.252 OA
BRANCH   2   4
ATOM      4  O   UNL     1       3.361   1.332   2.473  1.00  0.00    -0.481 OA
ATOM      5  H   UNL     1       2.591   1.474   1.815  1.00  0.00     0.296 HD
ENDBRANCH   2   4
ENDBRANCH   1   2
BRANCH   1   6
ATOM      6  C   UNL     1       6.499   1.907   0.650  1.00  0.00     0.047 C 
BRANCH   6   7
ATOM      7  C   UNL     1       7.163   1.113  -0.381  1.00  0.00    -0.047 A 
ATOM      8  C   UNL     1       8.507   1.187  -0.655  1.00  0.00     0.004 A 
ATOM      9  C   UNL     1       6.414   0.239  -1.129  1.00  0.00     0.004 A 
ATOM     10  C   UNL     1       9.116   0.432  -1.629  1.00  0.00     0.000 A 
ATOM     11  C   UNL     1       6.991  -0.531  -2.113  1.00  0.00     0.000 A 
ATOM     12  C   UNL     1       8.357  -0.444  -2.375  1.00  0.00     0.000 A 
ENDBRANCH   6   7
ENDBRANCH   1   6
TORSDOF 4
ENDMDL
MODEL 5
REMARK VINA RESULT:      -6.7      1.909      2.262
REMARK SMILES O=C(O)CCc1ccccc1
REMARK SMILES IDX 4 1 2 2 1 3 3 4 5 6 6 7 7 8 11 9 8 10 10 11 9 12
REMARK H PARENT 3 5
REMARK Flexibility Score: inf
ROOT
ATOM      1  C   UNL     1       8.227   0.241  -2.245  1.00  0.00     0.127 C 
ENDROOT
BRANCH   1   2
ATOM      2  C   UNL     1       9.336   0.351  -1.262  1.00  0.00     0.303 C 
ATOM      3  O   UNL     1       9.456  -0.391  -0.254  1.00  0.00    -0.252 OA
BRANCH   2   4
ATOM      4  O   UNL     1      10.307   1.322  -1.452  1.00  0.00    -0.481 OA
ATOM      5  H   UNL     1      10.102   2.027  -2.165  1.00  0.00     0.296 HD
ENDBRANCH   2   4
ENDBRANCH   1   2
BRANCH   1   6
ATOM      6  C   UNL     1       7.086  -0.514  -1.628  1.00  0.00     0.047 C 
BRANCH   6   7
ATOM      7  C   UNL     1       6.333   0.240  -0.628  1.00  0.00    -0.047 A 
ATOM      8  C   UNL     1       6.118  -0.197   0.656  1.00  0.00     0.004 A 
ATOM      9  C   UNL     1       5.803   1.457  -0.977  1.00  0.00     0.004 A 
ATOM     10  C   UNL     1       5.407   0.525   1.585  1.00  0.00     0.000 A 
ATOM     11  C   UNL     1       5.085   2.206  -0.073  1.00  0.00     0.000 A 
ATOM     12  C   UNL     1       4.878   1.746   1.227  1.00  0.00     0.000 A 
ENDBRANCH   6   7
ENDBRANCH   1   6
TORSDOF 4
ENDMDL
