@<TRIPOS>MOLECULE
/home/cewinharhar/GITHUB/reincatalyze/data/processed/docking_pred/2023-Apr-25-2140_maxeplen10_maxtrainstep200_exh16_gamma099_lrac3e-4_lrcr1e-3/c584487daa348165e33ca71579c90fd99cb4babd_ligand_2.pdbqt
 12 12 0 0 0
SMALL
GASTEIGER

@<TRIPOS>ATOM
      1  C          8.3910   -0.5540   -2.2260 C.3     1  UNL1        0.1270
      2  C          8.4950   -1.8700   -2.9090 C.2     1  UNL1        0.3030
      3  O          9.5750   -2.4930   -3.0690 O.2     1  UNL1       -0.2520
      4  O          7.3430   -2.4610   -3.4050 O.3     1  UNL1       -0.4810
      5  H          7.4490   -3.4090   -3.7750 H       1  UNL1        0.2960
      6  C          6.9490   -0.1430   -2.1520 C.3     1  UNL1        0.0470
      7  C          6.4400    0.0330   -0.7940 C.2     1  UNL1       -0.0470
      8  C          5.8130    1.1720   -0.3540 C.2     1  UNL1        0.0040
      9  C          6.5910   -0.9920    0.1070 C.2     1  UNL1        0.0040
     10  C          5.3400    1.3210    0.9280 C.2     1  UNL1        0.0000
     11  C          6.1300   -0.8770    1.3990 C.2     1  UNL1        0.0000
     12  C          5.4950    0.2880    1.8270 C.2     1  UNL1        0.0000
@<TRIPOS>BOND
     1     5     4    1
     2     4     2    1
     3     3     2    2
     4     2     1    1
     5     1     6    1
     6     6     7    1
     7     7     8    2
     8     7     9    1
     9     8    10    1
    10     9    11    2
    11    10    12    2
    12    11    12    1
