@<TRIPOS>MOLECULE
/home/cewinharhar/GITHUB/reincatalyze/data/processed/docking_pred/2023-Apr-25-2140_maxeplen10_maxtrainstep200_exh16_gamma099_lrac3e-4_lrcr1e-3/c8a10dea28a77dd5a54e6b3bff917c6d12aef46d_ligand_2.pdbqt
 12 12 0 0 0
SMALL
GASTEIGER

@<TRIPOS>ATOM
      1  C          8.3370   -1.0350   -1.6890 C.3     1  UNL1        0.1270
      2  C          8.3260   -2.0260   -2.7970 C.2     1  UNL1        0.3030
      3  O          7.2790   -2.4550   -3.3440 O.2     1  UNL1       -0.2520
      4  O          9.5340   -2.5170   -3.2680 O.3     1  UNL1       -0.4810
      5  H          9.5850   -2.6920   -4.2750 H       1  UNL1        0.2960
      6  C          7.3240   -1.4310   -0.6550 C.3     1  UNL1        0.0470
      7  C          6.5260   -0.3220   -0.1360 C.2     1  UNL1       -0.0470
      8  C          6.2020    0.7940   -0.8670 C.2     1  UNL1        0.0040
      9  C          6.0670   -0.3850    1.1560 C.2     1  UNL1        0.0040
     10  C          5.4500    1.8280   -0.3620 C.2     1  UNL1        0.0000
     11  C          5.3130    0.6320    1.6940 C.2     1  UNL1        0.0000
     12  C          4.9930    1.7580    0.9360 C.2     1  UNL1        0.0000
@<TRIPOS>BOND
     1     5     4    1
     2     3     2    2
     3     4     2    1
     4     2     1    1
     5     1     6    1
     6     8    10    1
     7     8     7    2
     8     6     7    1
     9    10    12    2
    10     7     9    1
    11    12    11    1
    12     9    11    2
