MODEL 1
REMARK VINA RESULT:      -7.4      0.000      0.000
REMARK SMILES O=C(O)CCc1ccccc1
REMARK SMILES IDX 4 1 2 2 1 3 3 4 5 6 6 7 7 8 11 9 8 10 10 11 9 12
REMARK H PARENT 3 5
REMARK Flexibility Score: inf
ROOT
ATOM      1  C   UNL     1       8.463  -0.608  -2.158  1.00  0.00     0.127 C 
ENDROOT
BRANCH   1   2
ATOM      2  C   UNL     1       8.522  -1.889  -2.910  1.00  0.00     0.303 C 
ATOM      3  O   UNL     1       9.583  -2.528  -3.125  1.00  0.00    -0.252 OA
BRANCH   2   4
ATOM      4  O   UNL     1       7.346  -2.426  -3.412  1.00  0.00    -0.481 OA
ATOM      5  H   UNL     1       6.907  -1.909  -4.177  1.00  0.00     0.296 HD
ENDBRANCH   2   4
ENDBRANCH   1   2
BRANCH   1   6
ATOM      6  C   UNL     1       7.047  -0.113  -2.125  1.00  0.00     0.047 C 
BRANCH   6   7
ATOM      7  C   UNL     1       6.492   0.041  -0.782  1.00  0.00    -0.047 A 
ATOM      8  C   UNL     1       6.582  -0.919   0.197  1.00  0.00     0.004 A 
ATOM      9  C   UNL     1       5.840   1.206  -0.464  1.00  0.00     0.004 A 
ATOM     10  C   UNL     1       6.054  -0.757   1.455  1.00  0.00     0.000 A 
ATOM     11  C   UNL     1       5.299   1.401   0.786  1.00  0.00     0.000 A 
ATOM     12  C   UNL     1       5.400   0.416   1.767  1.00  0.00     0.000 A 
ENDBRANCH   6   7
ENDBRANCH   1   6
TORSDOF 4
ENDMDL
MODEL 2
REMARK VINA RESULT:      -7.4      0.072      1.426
REMARK SMILES O=C(O)CCc1ccccc1
REMARK SMILES IDX 4 1 2 2 1 3 3 4 5 6 6 7 7 8 11 9 8 10 10 11 9 12
REMARK H PARENT 3 5
REMARK Flexibility Score: inf
ROOT
ATOM      1  C   UNL     1       8.437  -0.555  -2.202  1.00  0.00     0.127 C 
ENDROOT
BRANCH   1   2
ATOM      2  C   UNL     1       8.524  -1.853  -2.921  1.00  0.00     0.303 C 
ATOM      3  O   UNL     1       9.598  -2.476  -3.115  1.00  0.00    -0.252 OA
BRANCH   2   4
ATOM      4  O   UNL     1       7.361  -2.426  -3.412  1.00  0.00    -0.481 OA
ATOM      5  H   UNL     1       7.454  -2.953  -4.283  1.00  0.00     0.296 HD
ENDBRANCH   2   4
ENDBRANCH   1   2
BRANCH   1   6
ATOM      6  C   UNL     1       7.008  -0.098  -2.166  1.00  0.00     0.047 C 
BRANCH   6   7
ATOM      7  C   UNL     1       6.470   0.095  -0.822  1.00  0.00    -0.047 A 
ATOM      8  C   UNL     1       5.837   1.242  -0.409  1.00  0.00     0.004 A 
ATOM      9  C   UNL     1       6.596  -0.920   0.094  1.00  0.00     0.004 A 
ATOM     10  C   UNL     1       5.337   1.407   0.861  1.00  0.00     0.000 A 
ATOM     11  C   UNL     1       6.107  -0.789   1.374  1.00  0.00     0.000 A 
ATOM     12  C   UNL     1       5.468   0.383   1.774  1.00  0.00     0.000 A 
ENDBRANCH   6   7
ENDBRANCH   1   6
TORSDOF 4
ENDMDL
MODEL 3
REMARK VINA RESULT:      -7.1      0.690      1.884
REMARK SMILES O=C(O)CCc1ccccc1
REMARK SMILES IDX 4 1 2 2 1 3 3 4 5 6 6 7 7 8 11 9 8 10 10 11 9 12
REMARK H PARENT 3 5
REMARK Flexibility Score: inf
ROOT
ATOM      1  C   UNL     1       8.337  -1.035  -1.689  1.00  0.00     0.127 C 
ENDROOT
BRANCH   1   2
ATOM      2  C   UNL     1       8.326  -2.026  -2.797  1.00  0.00     0.303 C 
ATOM      3  O   UNL     1       7.279  -2.455  -3.344  1.00  0.00    -0.252 OA
BRANCH   2   4
ATOM      4  O   UNL     1       9.534  -2.517  -3.268  1.00  0.00    -0.481 OA
ATOM      5  H   UNL     1       9.585  -2.692  -4.275  1.00  0.00     0.296 HD
ENDBRANCH   2   4
ENDBRANCH   1   2
BRANCH   1   6
ATOM      6  C   UNL     1       7.324  -1.431  -0.655  1.00  0.00     0.047 C 
BRANCH   6   7
ATOM      7  C   UNL     1       6.526  -0.322  -0.136  1.00  0.00    -0.047 A 
ATOM      8  C   UNL     1       6.202   0.794  -0.867  1.00  0.00     0.004 A 
ATOM      9  C   UNL     1       6.067  -0.385   1.156  1.00  0.00     0.004 A 
ATOM     10  C   UNL     1       5.450   1.828  -0.362  1.00  0.00     0.000 A 
ATOM     11  C   UNL     1       5.313   0.632   1.694  1.00  0.00     0.000 A 
ATOM     12  C   UNL     1       4.993   1.758   0.936  1.00  0.00     0.000 A 
ENDBRANCH   6   7
ENDBRANCH   1   6
TORSDOF 4
ENDMDL
MODEL 4
REMARK VINA RESULT:      -6.8      3.365      5.071
REMARK SMILES O=C(O)CCc1ccccc1
REMARK SMILES IDX 4 1 2 2 1 3 3 4 5 6 6 7 7 8 11 9 8 10 10 11 9 12
REMARK H PARENT 3 5
REMARK Flexibility Score: inf
ROOT
ATOM      1  C   UNL     1       4.994   1.806   0.684  1.00  0.00     0.127 C 
ENDROOT
BRANCH   1   2
ATOM      2  C   UNL     1       4.509   1.103   1.900  1.00  0.00     0.303 C 
ATOM      3  O   UNL     1       5.148   0.191   2.485  1.00  0.00    -0.252 OA
BRANCH   2   4
ATOM      4  O   UNL     1       3.282   1.461   2.437  1.00  0.00    -0.481 OA
ATOM      5  H   UNL     1       2.986   2.426   2.274  1.00  0.00     0.296 HD
ENDBRANCH   2   4
ENDBRANCH   1   2
BRANCH   1   6
ATOM      6  C   UNL     1       6.495   1.828   0.685  1.00  0.00     0.047 C 
BRANCH   6   7
ATOM      7  C   UNL     1       7.111   1.031  -0.373  1.00  0.00    -0.047 A 
ATOM      8  C   UNL     1       6.438   0.086  -1.108  1.00  0.00     0.004 A 
ATOM      9  C   UNL     1       8.439   1.225  -0.660  1.00  0.00     0.004 A 
ATOM     10  C   UNL     1       7.034  -0.656  -2.100  1.00  0.00     0.000 A 
ATOM     11  C   UNL     1       9.068   0.499  -1.646  1.00  0.00     0.000 A 
ATOM     12  C   UNL     1       8.368  -0.455  -2.382  1.00  0.00     0.000 A 
ENDBRANCH   6   7
ENDBRANCH   1   6
TORSDOF 4
ENDMDL
MODEL 5
REMARK VINA RESULT:      -6.6      2.021      2.299
REMARK SMILES O=C(O)CCc1ccccc1
REMARK SMILES IDX 4 1 2 2 1 3 3 4 5 6 6 7 7 8 11 9 8 10 10 11 9 12
REMARK H PARENT 3 5
REMARK Flexibility Score: inf
ROOT
ATOM      1  C   UNL     1       8.401   0.490  -1.875  1.00  0.00     0.127 C 
ENDROOT
BRANCH   1   2
ATOM      2  C   UNL     1       9.522   0.236  -0.933  1.00  0.00     0.303 C 
ATOM      3  O   UNL     1       9.443  -0.528   0.063  1.00  0.00    -0.252 OA
BRANCH   2   4
ATOM      4  O   UNL     1      10.737   0.870  -1.149  1.00  0.00    -0.481 OA
ATOM      5  H   UNL     1      11.406   0.368  -1.737  1.00  0.00     0.296 HD
ENDBRANCH   2   4
ENDBRANCH   1   2
BRANCH   1   6
ATOM      6  C   UNL     1       7.214  -0.335  -1.473  1.00  0.00     0.047 C 
BRANCH   6   7
ATOM      7  C   UNL     1       6.384   0.267  -0.433  1.00  0.00    -0.047 A 
ATOM      8  C   UNL     1       6.157  -0.309   0.793  1.00  0.00     0.004 A 
ATOM      9  C   UNL     1       5.788   1.479  -0.680  1.00  0.00     0.004 A 
ATOM     10  C   UNL     1       5.373   0.272   1.761  1.00  0.00     0.000 A 
ATOM     11  C   UNL     1       4.996   2.088   0.265  1.00  0.00     0.000 A 
ATOM     12  C   UNL     1       4.778   1.489   1.505  1.00  0.00     0.000 A 
ENDBRANCH   6   7
ENDBRANCH   1   6
TORSDOF 4
ENDMDL
