@<TRIPOS>MOLECULE
/home/cewinharhar/GITHUB/reincatalyze/data/processed/docking_pred/2023-Apr-25-2140_maxeplen10_maxtrainstep200_exh16_gamma099_lrac3e-4_lrcr1e-3/c8a10dea28a77dd5a54e6b3bff917c6d12aef46d_ligand_2.pdbqt
 12 12 0 0 0
SMALL
GASTEIGER

@<TRIPOS>ATOM
      1  C          8.4010    0.4900   -1.8750 C.3     1  UNL1        0.1270
      2  C          9.5220    0.2360   -0.9330 C.2     1  UNL1        0.3030
      3  O          9.4430   -0.5280    0.0630 O.2     1  UNL1       -0.2520
      4  O         10.7370    0.8700   -1.1490 O.3     1  UNL1       -0.4810
      5  H         11.4060    0.3680   -1.7370 H       1  UNL1        0.2960
      6  C          7.2140   -0.3350   -1.4730 C.3     1  UNL1        0.0470
      7  C          6.3840    0.2670   -0.4330 C.2     1  UNL1       -0.0470
      8  C          6.1570   -0.3090    0.7930 C.2     1  UNL1        0.0040
      9  C          5.7880    1.4790   -0.6800 C.2     1  UNL1        0.0040
     10  C          5.3730    0.2720    1.7610 C.2     1  UNL1        0.0000
     11  C          4.9960    2.0880    0.2650 C.2     1  UNL1        0.0000
     12  C          4.7780    1.4890    1.5050 C.2     1  UNL1        0.0000
@<TRIPOS>BOND
     1     1     6    1
     2     1     2    1
     3     5     4    1
     4     6     7    1
     5     4     2    1
     6     2     3    2
     7     9     7    2
     8     9    11    1
     9     7     8    1
    10    11    12    2
    11     8    10    2
    12    12    10    1
