@<TRIPOS>MOLECULE
/home/cewinharhar/GITHUB/reincatalyze/data/processed/docking_pred/2023-Apr-25-2140_maxeplen10_maxtrainstep200_exh16_gamma099_lrac3e-4_lrcr1e-3/c8a10dea28a77dd5a54e6b3bff917c6d12aef46d_ligand_2.pdbqt
 12 12 0 0 0
SMALL
GASTEIGER

@<TRIPOS>ATOM
      1  C          8.4370   -0.5550   -2.2020 C.3     1  UNL1        0.1270
      2  C          8.5240   -1.8530   -2.9210 C.2     1  UNL1        0.3030
      3  O          9.5980   -2.4760   -3.1150 O.2     1  UNL1       -0.2520
      4  O          7.3610   -2.4260   -3.4120 O.3     1  UNL1       -0.4810
      5  H          7.4540   -2.9530   -4.2830 H       1  UNL1        0.2960
      6  C          7.0080   -0.0980   -2.1660 C.3     1  UNL1        0.0470
      7  C          6.4700    0.0950   -0.8220 C.2     1  UNL1       -0.0470
      8  C          5.8370    1.2420   -0.4090 C.2     1  UNL1        0.0040
      9  C          6.5960   -0.9200    0.0940 C.2     1  UNL1        0.0040
     10  C          5.3370    1.4070    0.8610 C.2     1  UNL1        0.0000
     11  C          6.1070   -0.7890    1.3740 C.2     1  UNL1        0.0000
     12  C          5.4680    0.3830    1.7740 C.2     1  UNL1        0.0000
@<TRIPOS>BOND
     1     5     4    1
     2     4     2    1
     3     3     2    2
     4     2     1    1
     5     1     6    1
     6     6     7    1
     7     7     8    2
     8     7     9    1
     9     8    10    1
    10     9    11    2
    11    10    12    2
    12    11    12    1
