@<TRIPOS>MOLECULE
/home/cewinharhar/GITHUB/reincatalyze/data/processed/docking_pred/2023-Apr-25-2140_maxeplen10_maxtrainstep200_exh16_gamma099_lrac3e-4_lrcr1e-3/c8a10dea28a77dd5a54e6b3bff917c6d12aef46d_ligand_2.pdbqt
 12 12 0 0 0
SMALL
GASTEIGER

@<TRIPOS>ATOM
      1  C          8.4630   -0.6080   -2.1580 C.3     1  UNL1        0.1270
      2  C          8.5220   -1.8890   -2.9100 C.2     1  UNL1        0.3030
      3  O          9.5830   -2.5280   -3.1250 O.2     1  UNL1       -0.2520
      4  O          7.3460   -2.4260   -3.4120 O.3     1  UNL1       -0.4810
      5  H          6.9070   -1.9090   -4.1770 H       1  UNL1        0.2960
      6  C          7.0470   -0.1130   -2.1250 C.3     1  UNL1        0.0470
      7  C          6.4920    0.0410   -0.7820 C.2     1  UNL1       -0.0470
      8  C          6.5820   -0.9190    0.1970 C.2     1  UNL1        0.0040
      9  C          5.8400    1.2060   -0.4640 C.2     1  UNL1        0.0040
     10  C          6.0540   -0.7570    1.4550 C.2     1  UNL1        0.0000
     11  C          5.2990    1.4010    0.7860 C.2     1  UNL1        0.0000
     12  C          5.4000    0.4160    1.7670 C.2     1  UNL1        0.0000
@<TRIPOS>BOND
     1     5     4    1
     2     4     2    1
     3     3     2    2
     4     2     1    1
     5     1     6    1
     6     6     7    1
     7     7     9    2
     8     7     8    1
     9     9    11    1
    10     8    10    2
    11    11    12    2
    12    10    12    1
