@<TRIPOS>MOLECULE
/home/cewinharhar/GITHUB/reincatalyze/data/processed/docking_pred/2023-Apr-25-2140_maxeplen10_maxtrainstep200_exh16_gamma099_lrac3e-4_lrcr1e-3/c8a10dea28a77dd5a54e6b3bff917c6d12aef46d_ligand_2.pdbqt
 12 12 0 0 0
SMALL
GASTEIGER

@<TRIPOS>ATOM
      1  C          4.9940    1.8060    0.6840 C.3     1  UNL1        0.1270
      2  C          4.5090    1.1030    1.9000 C.2     1  UNL1        0.3030
      3  O          5.1480    0.1910    2.4850 O.2     1  UNL1       -0.2520
      4  O          3.2820    1.4610    2.4370 O.3     1  UNL1       -0.4810
      5  H          2.9860    2.4260    2.2740 H       1  UNL1        0.2960
      6  C          6.4950    1.8280    0.6850 C.3     1  UNL1        0.0470
      7  C          7.1110    1.0310   -0.3730 C.2     1  UNL1       -0.0470
      8  C          6.4380    0.0860   -1.1080 C.2     1  UNL1        0.0040
      9  C          8.4390    1.2250   -0.6600 C.2     1  UNL1        0.0040
     10  C          7.0340   -0.6560   -2.1000 C.2     1  UNL1        0.0000
     11  C          9.0680    0.4990   -1.6460 C.2     1  UNL1        0.0000
     12  C          8.3680   -0.4550   -2.3820 C.2     1  UNL1        0.0000
@<TRIPOS>BOND
     1    12    10    2
     2    12    11    1
     3    10     8    1
     4    11     9    2
     5     8     7    2
     6     9     7    1
     7     7     6    1
     8     1     6    1
     9     1     2    1
    10     2     4    1
    11     2     3    2
    12     5     4    1
