MODEL 1
REMARK VINA RESULT:      -7.4      0.000      0.000
REMARK SMILES O=C(O)CCc1ccccc1
REMARK SMILES IDX 4 1 2 2 1 3 3 4 5 6 6 7 7 8 11 9 8 10 10 11 9 12
REMARK H PARENT 3 5
REMARK Flexibility Score: inf
ROOT
ATOM      1  C   UNL     1       8.475  -0.639  -2.100  1.00  0.00     0.127 C 
ENDROOT
BRANCH   1   2
ATOM      2  C   UNL     1       8.527  -1.897  -2.889  1.00  0.00     0.303 C 
ATOM      3  O   UNL     1       9.587  -2.528  -3.133  1.00  0.00    -0.252 OA
BRANCH   2   4
ATOM      4  O   UNL     1       7.347  -2.421  -3.393  1.00  0.00    -0.481 OA
ATOM      5  H   UNL     1       6.872  -3.107  -2.801  1.00  0.00     0.296 HD
ENDBRANCH   2   4
ENDBRANCH   1   2
BRANCH   1   6
ATOM      6  C   UNL     1       7.080  -0.086  -2.133  1.00  0.00     0.047 C 
BRANCH   6   7
ATOM      7  C   UNL     1       6.486   0.134  -0.816  1.00  0.00    -0.047 A 
ATOM      8  C   UNL     1       5.802   1.272  -0.466  1.00  0.00     0.004 A 
ATOM      9  C   UNL     1       6.612  -0.845   0.139  1.00  0.00     0.004 A 
ATOM     10  C   UNL     1       5.249   1.462   0.778  1.00  0.00     0.000 A 
ATOM     11  C   UNL     1       6.072  -0.687   1.395  1.00  0.00     0.000 A 
ATOM     12  C   UNL     1       5.380   0.475   1.731  1.00  0.00     0.000 A 
ENDBRANCH   6   7
ENDBRANCH   1   6
TORSDOF 4
ENDMDL
MODEL 2
REMARK VINA RESULT:      -7.3      0.121      1.430
REMARK SMILES O=C(O)CCc1ccccc1
REMARK SMILES IDX 4 1 2 2 1 3 3 4 5 6 6 7 7 8 11 9 8 10 10 11 9 12
REMARK H PARENT 3 5
REMARK Flexibility Score: inf
ROOT
ATOM      1  C   UNL     1       8.425  -0.524  -2.287  1.00  0.00     0.127 C 
ENDROOT
BRANCH   1   2
ATOM      2  C   UNL     1       8.500  -1.870  -2.912  1.00  0.00     0.303 C 
ATOM      3  O   UNL     1       9.570  -2.512  -3.067  1.00  0.00    -0.252 OA
BRANCH   2   4
ATOM      4  O   UNL     1       7.331  -2.470  -3.355  1.00  0.00    -0.481 OA
ATOM      5  H   UNL     1       7.407  -3.451  -3.631  1.00  0.00     0.296 HD
ENDBRANCH   2   4
ENDBRANCH   1   2
BRANCH   1   6
ATOM      6  C   UNL     1       6.990  -0.095  -2.194  1.00  0.00     0.047 C 
BRANCH   6   7
ATOM      7  C   UNL     1       6.489   0.044  -0.829  1.00  0.00    -0.047 A 
ATOM      8  C   UNL     1       6.584  -0.939   0.125  1.00  0.00     0.004 A 
ATOM      9  C   UNL     1       5.885   1.221  -0.462  1.00  0.00     0.004 A 
ATOM     10  C   UNL     1       6.106  -0.791   1.405  1.00  0.00     0.000 A 
ATOM     11  C   UNL     1       5.395   1.404   0.811  1.00  0.00     0.000 A 
ATOM     12  C   UNL     1       5.501   0.394   1.765  1.00  0.00     0.000 A 
ENDBRANCH   6   7
ENDBRANCH   1   6
TORSDOF 4
ENDMDL
MODEL 3
REMARK VINA RESULT:      -6.7      3.323      5.051
REMARK SMILES O=C(O)CCc1ccccc1
REMARK SMILES IDX 4 1 2 2 1 3 3 4 5 6 6 7 7 8 11 9 8 10 10 11 9 12
REMARK H PARENT 3 5
REMARK Flexibility Score: inf
ROOT
ATOM      1  C   UNL     1       5.035   1.765   0.725  1.00  0.00     0.127 C 
ENDROOT
BRANCH   1   2
ATOM      2  C   UNL     1       4.602   1.017   1.934  1.00  0.00     0.303 C 
ATOM      3  O   UNL     1       5.291   0.126   2.491  1.00  0.00    -0.252 OA
BRANCH   2   4
ATOM      4  O   UNL     1       3.367   1.306   2.494  1.00  0.00    -0.481 OA
ATOM      5  H   UNL     1       3.359   1.466   3.504  1.00  0.00     0.296 HD
ENDBRANCH   2   4
ENDBRANCH   1   2
BRANCH   1   6
ATOM      6  C   UNL     1       6.534   1.822   0.683  1.00  0.00     0.047 C 
BRANCH   6   7
ATOM      7  C   UNL     1       7.139   1.020  -0.378  1.00  0.00    -0.047 A 
ATOM      8  C   UNL     1       6.453   0.091  -1.120  1.00  0.00     0.004 A 
ATOM      9  C   UNL     1       8.472   1.193  -0.660  1.00  0.00     0.004 A 
ATOM     10  C   UNL     1       7.038  -0.655  -2.115  1.00  0.00     0.000 A 
ATOM     11  C   UNL     1       9.090   0.462  -1.648  1.00  0.00     0.000 A 
ATOM     12  C   UNL     1       8.376  -0.476  -2.392  1.00  0.00     0.000 A 
ENDBRANCH   6   7
ENDBRANCH   1   6
TORSDOF 4
ENDMDL
MODEL 4
REMARK VINA RESULT:      -6.7      1.935      2.619
REMARK SMILES O=C(O)CCc1ccccc1
REMARK SMILES IDX 4 1 2 2 1 3 3 4 5 6 6 7 7 8 11 9 8 10 10 11 9 12
REMARK H PARENT 3 5
REMARK Flexibility Score: inf
ROOT
ATOM      1  C   UNL     1       8.265   0.173  -2.190  1.00  0.00     0.127 C 
ENDROOT
BRANCH   1   2
ATOM      2  C   UNL     1       9.372   0.339  -1.213  1.00  0.00     0.303 C 
ATOM      3  O   UNL     1       9.506  -0.363  -0.179  1.00  0.00    -0.252 OA
BRANCH   2   4
ATOM      4  O   UNL     1      10.324   1.322  -1.440  1.00  0.00    -0.481 OA
ATOM      5  H   UNL     1      11.074   1.078  -2.090  1.00  0.00     0.296 HD
ENDBRANCH   2   4
ENDBRANCH   1   2
BRANCH   1   6
ATOM      6  C   UNL     1       7.139  -0.582  -1.546  1.00  0.00     0.047 C 
BRANCH   6   7
ATOM      7  C   UNL     1       6.375   0.191  -0.570  1.00  0.00    -0.047 A 
ATOM      8  C   UNL     1       6.141  -0.222   0.719  1.00  0.00     0.004 A 
ATOM      9  C   UNL     1       5.853   1.404  -0.947  1.00  0.00     0.004 A 
ATOM     10  C   UNL     1       5.420   0.518   1.625  1.00  0.00     0.000 A 
ATOM     11  C   UNL     1       5.125   2.170  -0.066  1.00  0.00     0.000 A 
ATOM     12  C   UNL     1       4.899   1.734   1.238  1.00  0.00     0.000 A 
ENDBRANCH   6   7
ENDBRANCH   1   6
TORSDOF 4
ENDMDL
MODEL 5
REMARK VINA RESULT:      -6.5      1.925      2.831
REMARK SMILES O=C(O)CCc1ccccc1
REMARK SMILES IDX 4 1 2 2 1 3 3 4 5 6 6 7 7 8 11 9 8 10 10 11 9 12
REMARK H PARENT 3 5
REMARK Flexibility Score: inf
ROOT
ATOM      1  C   UNL     1       8.190  -1.665   1.197  1.00  0.00     0.127 C 
ENDROOT
BRANCH   1   2
ATOM      2  C   UNL     1       8.547  -2.875   0.411  1.00  0.00     0.303 C 
ATOM      3  O   UNL     1       9.228  -3.829   0.864  1.00  0.00    -0.252 OA
BRANCH   2   4
ATOM      4  O   UNL     1       8.110  -2.975  -0.901  1.00  0.00    -0.481 OA
ATOM      5  H   UNL     1       8.644  -2.445  -1.593  1.00  0.00     0.296 HD
ENDBRANCH   2   4
ENDBRANCH   1   2
BRANCH   1   6
ATOM      6  C   UNL     1       6.696  -1.539   1.269  1.00  0.00     0.047 C 
BRANCH   6   7
ATOM      7  C   UNL     1       6.173  -0.269   0.772  1.00  0.00    -0.047 A 
ATOM      8  C   UNL     1       5.431   0.602   1.532  1.00  0.00     0.004 A 
ATOM      9  C   UNL     1       6.427   0.088  -0.529  1.00  0.00     0.004 A 
ATOM     10  C   UNL     1       4.946   1.794   1.047  1.00  0.00     0.000 A 
ATOM     11  C   UNL     1       5.956   1.273  -1.047  1.00  0.00     0.000 A 
ATOM     12  C   UNL     1       5.206   2.145  -0.260  1.00  0.00     0.000 A 
ENDBRANCH   6   7
ENDBRANCH   1   6
TORSDOF 4
ENDMDL
