@<TRIPOS>MOLECULE
/home/cewinharhar/GITHUB/reincatalyze/data/processed/docking_pred/2023-Apr-25-2140_maxeplen10_maxtrainstep200_exh16_gamma099_lrac3e-4_lrcr1e-3/ca2511eb0ea692a115cf18c67ef7ccdfaa736476_ligand_2.pdbqt
 12 12 0 0 0
SMALL
GASTEIGER

@<TRIPOS>ATOM
      1  C          8.1900   -1.6650    1.1970 C.3     1  UNL1        0.1270
      2  C          8.5470   -2.8750    0.4110 C.2     1  UNL1        0.3030
      3  O          9.2280   -3.8290    0.8640 O.2     1  UNL1       -0.2520
      4  O          8.1100   -2.9750   -0.9010 O.3     1  UNL1       -0.4810
      5  H          8.6440   -2.4450   -1.5930 H       1  UNL1        0.2960
      6  C          6.6960   -1.5390    1.2690 C.3     1  UNL1        0.0470
      7  C          6.1730   -0.2690    0.7720 C.2     1  UNL1       -0.0470
      8  C          5.4310    0.6020    1.5320 C.2     1  UNL1        0.0040
      9  C          6.4270    0.0880   -0.5290 C.2     1  UNL1        0.0040
     10  C          4.9460    1.7940    1.0470 C.2     1  UNL1        0.0000
     11  C          5.9560    1.2730   -1.0470 C.2     1  UNL1        0.0000
     12  C          5.2060    2.1450   -0.2600 C.2     1  UNL1        0.0000
@<TRIPOS>BOND
     1     5     4    1
     2    11     9    1
     3    11    12    2
     4     4     2    1
     5     9     7    2
     6    12    10    1
     7     2     3    2
     8     2     1    1
     9     7     6    1
    10     7     8    1
    11    10     8    2
    12     1     6    1
