@<TRIPOS>MOLECULE
/home/cewinharhar/GITHUB/reincatalyze/data/processed/docking_pred/2023-Apr-25-2140_maxeplen10_maxtrainstep200_exh16_gamma099_lrac3e-4_lrcr1e-3/ca2511eb0ea692a115cf18c67ef7ccdfaa736476_ligand_2.pdbqt
 12 12 0 0 0
SMALL
GASTEIGER

@<TRIPOS>ATOM
      1  C          8.4250   -0.5240   -2.2870 C.3     1  UNL1        0.1270
      2  C          8.5000   -1.8700   -2.9120 C.2     1  UNL1        0.3030
      3  O          9.5700   -2.5120   -3.0670 O.2     1  UNL1       -0.2520
      4  O          7.3310   -2.4700   -3.3550 O.3     1  UNL1       -0.4810
      5  H          7.4070   -3.4510   -3.6310 H       1  UNL1        0.2960
      6  C          6.9900   -0.0950   -2.1940 C.3     1  UNL1        0.0470
      7  C          6.4890    0.0440   -0.8290 C.2     1  UNL1       -0.0470
      8  C          6.5840   -0.9390    0.1250 C.2     1  UNL1        0.0040
      9  C          5.8850    1.2210   -0.4620 C.2     1  UNL1        0.0040
     10  C          6.1060   -0.7910    1.4050 C.2     1  UNL1        0.0000
     11  C          5.3950    1.4040    0.8110 C.2     1  UNL1        0.0000
     12  C          5.5010    0.3940    1.7650 C.2     1  UNL1        0.0000
@<TRIPOS>BOND
     1     5     4    1
     2     4     2    1
     3     3     2    2
     4     2     1    1
     5     1     6    1
     6     6     7    1
     7     7     9    2
     8     7     8    1
     9     9    11    1
    10     8    10    2
    11    11    12    2
    12    10    12    1
