@<TRIPOS>MOLECULE
/home/cewinharhar/GITHUB/reincatalyze/data/processed/docking_pred/2023-Apr-25-2140_maxeplen10_maxtrainstep200_exh16_gamma099_lrac3e-4_lrcr1e-3/ca2511eb0ea692a115cf18c67ef7ccdfaa736476_ligand_2.pdbqt
 12 12 0 0 0
SMALL
GASTEIGER

@<TRIPOS>ATOM
      1  C          8.2650    0.1730   -2.1900 C.3     1  UNL1        0.1270
      2  C          9.3720    0.3390   -1.2130 C.2     1  UNL1        0.3030
      3  O          9.5060   -0.3630   -0.1790 O.2     1  UNL1       -0.2520
      4  O         10.3240    1.3220   -1.4400 O.3     1  UNL1       -0.4810
      5  H         11.0740    1.0780   -2.0900 H       1  UNL1        0.2960
      6  C          7.1390   -0.5820   -1.5460 C.3     1  UNL1        0.0470
      7  C          6.3750    0.1910   -0.5700 C.2     1  UNL1       -0.0470
      8  C          6.1410   -0.2220    0.7190 C.2     1  UNL1        0.0040
      9  C          5.8530    1.4040   -0.9470 C.2     1  UNL1        0.0040
     10  C          5.4200    0.5180    1.6250 C.2     1  UNL1        0.0000
     11  C          5.1250    2.1700   -0.0660 C.2     1  UNL1        0.0000
     12  C          4.8990    1.7340    1.2380 C.2     1  UNL1        0.0000
@<TRIPOS>BOND
     1     1     6    1
     2     1     2    1
     3     5     4    1
     4     6     7    1
     5     4     2    1
     6     2     3    2
     7     9     7    2
     8     9    11    1
     9     7     8    1
    10    11    12    2
    11     8    10    2
    12    12    10    1
