@<TRIPOS>MOLECULE
/home/cewinharhar/GITHUB/reincatalyze/data/processed/docking_pred/2023-Apr-25-2140_maxeplen10_maxtrainstep200_exh16_gamma099_lrac3e-4_lrcr1e-3/ca2511eb0ea692a115cf18c67ef7ccdfaa736476_ligand_2.pdbqt
 12 12 0 0 0
SMALL
GASTEIGER

@<TRIPOS>ATOM
      1  C          8.4750   -0.6390   -2.1000 C.3     1  UNL1        0.1270
      2  C          8.5270   -1.8970   -2.8890 C.2     1  UNL1        0.3030
      3  O          9.5870   -2.5280   -3.1330 O.2     1  UNL1       -0.2520
      4  O          7.3470   -2.4210   -3.3930 O.3     1  UNL1       -0.4810
      5  H          6.8720   -3.1070   -2.8010 H       1  UNL1        0.2960
      6  C          7.0800   -0.0860   -2.1330 C.3     1  UNL1        0.0470
      7  C          6.4860    0.1340   -0.8160 C.2     1  UNL1       -0.0470
      8  C          5.8020    1.2720   -0.4660 C.2     1  UNL1        0.0040
      9  C          6.6120   -0.8450    0.1390 C.2     1  UNL1        0.0040
     10  C          5.2490    1.4620    0.7780 C.2     1  UNL1        0.0000
     11  C          6.0720   -0.6870    1.3950 C.2     1  UNL1        0.0000
     12  C          5.3800    0.4750    1.7310 C.2     1  UNL1        0.0000
@<TRIPOS>BOND
     1     4     2    1
     2     4     5    1
     3     3     2    2
     4     2     1    1
     5     6     1    1
     6     6     7    1
     7     7     8    2
     8     7     9    1
     9     8    10    1
    10     9    11    2
    11    10    12    2
    12    11    12    1
