@<TRIPOS>MOLECULE
/home/cewinharhar/GITHUB/reincatalyze/data/processed/docking_pred/2023-Apr-25-2140_maxeplen10_maxtrainstep200_exh16_gamma099_lrac3e-4_lrcr1e-3/ca2511eb0ea692a115cf18c67ef7ccdfaa736476_ligand_2.pdbqt
 12 12 0 0 0
SMALL
GASTEIGER

@<TRIPOS>ATOM
      1  C          5.0350    1.7650    0.7250 C.3     1  UNL1        0.1270
      2  C          4.6020    1.0170    1.9340 C.2     1  UNL1        0.3030
      3  O          5.2910    0.1260    2.4910 O.2     1  UNL1       -0.2520
      4  O          3.3670    1.3060    2.4940 O.3     1  UNL1       -0.4810
      5  H          3.3590    1.4660    3.5040 H       1  UNL1        0.2960
      6  C          6.5340    1.8220    0.6830 C.3     1  UNL1        0.0470
      7  C          7.1390    1.0200   -0.3780 C.2     1  UNL1       -0.0470
      8  C          6.4530    0.0910   -1.1200 C.2     1  UNL1        0.0040
      9  C          8.4720    1.1930   -0.6600 C.2     1  UNL1        0.0040
     10  C          7.0380   -0.6550   -2.1150 C.2     1  UNL1        0.0000
     11  C          9.0900    0.4620   -1.6480 C.2     1  UNL1        0.0000
     12  C          8.3760   -0.4760   -2.3920 C.2     1  UNL1        0.0000
@<TRIPOS>BOND
     1    12    10    2
     2    12    11    1
     3    10     8    1
     4    11     9    2
     5     8     7    2
     6     9     7    1
     7     7     6    1
     8     6     1    1
     9     1     2    1
    10     2     3    2
    11     2     4    1
    12     4     5    1
