@<TRIPOS>MOLECULE
/home/cewinharhar/GITHUB/reincatalyze/data/processed/docking_pred/2023-Apr-25-2140_maxeplen10_maxtrainstep200_exh16_gamma099_lrac3e-4_lrcr1e-3/cc4a81c85f0f72a0e9860fd8246284f5ccc1e781_ligand_2.pdbqt
 12 12 0 0 0
SMALL
GASTEIGER

@<TRIPOS>ATOM
      1  C          8.4270   -0.5420   -2.2400 C.3     1  UNL1        0.1270
      2  C          8.4990   -1.8690   -2.9060 C.2     1  UNL1        0.3030
      3  O          9.5620   -2.5230   -3.0530 O.2     1  UNL1       -0.2520
      4  O          7.3340   -2.4350   -3.4020 O.3     1  UNL1       -0.4810
      5  H          7.4030   -3.4080   -3.7080 H       1  UNL1        0.2960
      6  C          6.9960   -0.0970   -2.1680 C.3     1  UNL1        0.0470
      7  C          6.4770    0.0530   -0.8110 C.2     1  UNL1       -0.0470
      8  C          6.5720   -0.9190    0.1550 C.2     1  UNL1        0.0040
      9  C          5.8550    1.2260   -0.4650 C.2     1  UNL1        0.0040
     10  C          6.0790   -0.7620    1.4280 C.2     1  UNL1        0.0000
     11  C          5.3480    1.4170    0.8000 C.2     1  UNL1        0.0000
     12  C          5.4550    0.4190    1.7670 C.2     1  UNL1        0.0000
@<TRIPOS>BOND
     1     5     4    1
     2     4     2    1
     3     3     2    2
     4     2     1    1
     5     1     6    1
     6     6     7    1
     7     7     9    2
     8     7     8    1
     9     9    11    1
    10     8    10    2
    11    11    12    2
    12    10    12    1
