@<TRIPOS>MOLECULE
/home/cewinharhar/GITHUB/reincatalyze/data/processed/docking_pred/2023-Apr-25-2140_maxeplen10_maxtrainstep200_exh16_gamma099_lrac3e-4_lrcr1e-3/cc4a81c85f0f72a0e9860fd8246284f5ccc1e781_ligand_2.pdbqt
 12 12 0 0 0
SMALL
GASTEIGER

@<TRIPOS>ATOM
      1  C          7.2930   -1.3600   -2.1560 C.3     1  UNL1        0.1270
      2  C          8.7400   -1.4120   -2.4930 C.2     1  UNL1        0.3030
      3  O          9.2680   -2.3240   -3.1780 O.2     1  UNL1       -0.2520
      4  O          9.5720   -0.4020   -2.0330 O.3     1  UNL1       -0.4810
      5  H          9.4120    0.5260   -2.4300 H       1  UNL1        0.2960
      6  C          7.1260   -1.3870   -0.6660 C.3     1  UNL1        0.0470
      7  C          6.3810   -0.2540   -0.1210 C.2     1  UNL1       -0.0470
      8  C          6.1110    0.8930   -0.8260 C.2     1  UNL1        0.0040
      9  C          5.9180   -0.3250    1.1690 C.2     1  UNL1        0.0040
     10  C          5.4080    1.9500   -0.2980 C.2     1  UNL1        0.0000
     11  C          5.2120    0.7150    1.7300 C.2     1  UNL1        0.0000
     12  C          4.9470    1.8710    0.9980 C.2     1  UNL1        0.0000
@<TRIPOS>BOND
     1     3     2    2
     2     2     1    1
     3     2     4    1
     4     5     4    1
     5     1     6    1
     6     8    10    1
     7     8     7    2
     8     6     7    1
     9    10    12    2
    10     7     9    1
    11    12    11    1
    12     9    11    2
