MODEL 1
REMARK VINA RESULT:      -7.4      0.000      0.000
REMARK SMILES O=C(O)CCc1ccccc1
REMARK SMILES IDX 4 1 2 2 1 3 3 4 5 6 6 7 7 8 11 9 8 10 10 11 9 12
REMARK H PARENT 3 5
REMARK Flexibility Score: inf
ROOT
ATOM      1  C   UNL     1       8.427  -0.542  -2.240  1.00  0.00     0.127 C 
ENDROOT
BRANCH   1   2
ATOM      2  C   UNL     1       8.499  -1.869  -2.906  1.00  0.00     0.303 C 
ATOM      3  O   UNL     1       9.562  -2.523  -3.053  1.00  0.00    -0.252 OA
BRANCH   2   4
ATOM      4  O   UNL     1       7.334  -2.435  -3.402  1.00  0.00    -0.481 OA
ATOM      5  H   UNL     1       7.403  -3.408  -3.708  1.00  0.00     0.296 HD
ENDBRANCH   2   4
ENDBRANCH   1   2
BRANCH   1   6
ATOM      6  C   UNL     1       6.996  -0.097  -2.168  1.00  0.00     0.047 C 
BRANCH   6   7
ATOM      7  C   UNL     1       6.477   0.053  -0.811  1.00  0.00    -0.047 A 
ATOM      8  C   UNL     1       6.572  -0.919   0.155  1.00  0.00     0.004 A 
ATOM      9  C   UNL     1       5.855   1.226  -0.465  1.00  0.00     0.004 A 
ATOM     10  C   UNL     1       6.079  -0.762   1.428  1.00  0.00     0.000 A 
ATOM     11  C   UNL     1       5.348   1.417   0.800  1.00  0.00     0.000 A 
ATOM     12  C   UNL     1       5.455   0.419   1.767  1.00  0.00     0.000 A 
ENDBRANCH   6   7
ENDBRANCH   1   6
TORSDOF 4
ENDMDL
MODEL 2
REMARK VINA RESULT:      -7.3      0.126      1.721
REMARK SMILES O=C(O)CCc1ccccc1
REMARK SMILES IDX 4 1 2 2 1 3 3 4 5 6 6 7 7 8 11 9 8 10 10 11 9 12
REMARK H PARENT 3 5
REMARK Flexibility Score: inf
ROOT
ATOM      1  C   UNL     1       8.433  -0.619  -2.125  1.00  0.00     0.127 C 
ENDROOT
BRANCH   1   2
ATOM      2  C   UNL     1       8.379  -1.890  -2.893  1.00  0.00     0.303 C 
ATOM      3  O   UNL     1       7.311  -2.444  -3.257  1.00  0.00    -0.252 OA
BRANCH   2   4
ATOM      4  O   UNL     1       9.568  -2.515  -3.239  1.00  0.00    -0.481 OA
ATOM      5  H   UNL     1       9.775  -3.388  -2.747  1.00  0.00     0.296 HD
ENDBRANCH   2   4
ENDBRANCH   1   2
BRANCH   1   6
ATOM      6  C   UNL     1       7.075   0.020  -2.119  1.00  0.00     0.047 C 
BRANCH   6   7
ATOM      7  C   UNL     1       6.488   0.179  -0.791  1.00  0.00    -0.047 A 
ATOM      8  C   UNL     1       5.796   1.295  -0.390  1.00  0.00     0.004 A 
ATOM      9  C   UNL     1       6.628  -0.837   0.121  1.00  0.00     0.004 A 
ATOM     10  C   UNL     1       5.250   1.429   0.864  1.00  0.00     0.000 A 
ATOM     11  C   UNL     1       6.095  -0.737   1.386  1.00  0.00     0.000 A 
ATOM     12  C   UNL     1       5.395   0.404   1.774  1.00  0.00     0.000 A 
ENDBRANCH   6   7
ENDBRANCH   1   6
TORSDOF 4
ENDMDL
MODEL 3
REMARK VINA RESULT:      -6.8      1.020      1.971
REMARK SMILES O=C(O)CCc1ccccc1
REMARK SMILES IDX 4 1 2 2 1 3 3 4 5 6 6 7 7 8 11 9 8 10 10 11 9 12
REMARK H PARENT 3 5
REMARK Flexibility Score: inf
ROOT
ATOM      1  C   UNL     1       7.293  -1.360  -2.156  1.00  0.00     0.127 C 
ENDROOT
BRANCH   1   2
ATOM      2  C   UNL     1       8.740  -1.412  -2.493  1.00  0.00     0.303 C 
ATOM      3  O   UNL     1       9.268  -2.324  -3.178  1.00  0.00    -0.252 OA
BRANCH   2   4
ATOM      4  O   UNL     1       9.572  -0.402  -2.033  1.00  0.00    -0.481 OA
ATOM      5  H   UNL     1       9.412   0.526  -2.430  1.00  0.00     0.296 HD
ENDBRANCH   2   4
ENDBRANCH   1   2
BRANCH   1   6
ATOM      6  C   UNL     1       7.126  -1.387  -0.666  1.00  0.00     0.047 C 
BRANCH   6   7
ATOM      7  C   UNL     1       6.381  -0.254  -0.121  1.00  0.00    -0.047 A 
ATOM      8  C   UNL     1       6.111   0.893  -0.826  1.00  0.00     0.004 A 
ATOM      9  C   UNL     1       5.918  -0.325   1.169  1.00  0.00     0.004 A 
ATOM     10  C   UNL     1       5.408   1.950  -0.298  1.00  0.00     0.000 A 
ATOM     11  C   UNL     1       5.212   0.715   1.730  1.00  0.00     0.000 A 
ATOM     12  C   UNL     1       4.947   1.871   0.998  1.00  0.00     0.000 A 
ENDBRANCH   6   7
ENDBRANCH   1   6
TORSDOF 4
ENDMDL
MODEL 4
REMARK VINA RESULT:      -6.7      3.332      5.020
REMARK SMILES O=C(O)CCc1ccccc1
REMARK SMILES IDX 4 1 2 2 1 3 3 4 5 6 6 7 7 8 11 9 8 10 10 11 9 12
REMARK H PARENT 3 5
REMARK Flexibility Score: inf
ROOT
ATOM      1  C   UNL     1       5.030   1.771   0.711  1.00  0.00     0.127 C 
ENDROOT
BRANCH   1   2
ATOM      2  C   UNL     1       4.598   1.031   1.925  1.00  0.00     0.303 C 
ATOM      3  O   UNL     1       5.290   0.145   2.490  1.00  0.00    -0.252 OA
BRANCH   2   4
ATOM      4  O   UNL     1       3.363   1.322   2.484  1.00  0.00    -0.481 OA
ATOM      5  H   UNL     1       2.671   0.569   2.459  1.00  0.00     0.296 HD
ENDBRANCH   2   4
ENDBRANCH   1   2
BRANCH   1   6
ATOM      6  C   UNL     1       6.529   1.832   0.669  1.00  0.00     0.047 C 
BRANCH   6   7
ATOM      7  C   UNL     1       7.137   1.023  -0.384  1.00  0.00    -0.047 A 
ATOM      8  C   UNL     1       6.454   0.085  -1.118  1.00  0.00     0.004 A 
ATOM      9  C   UNL     1       8.469   1.198  -0.669  1.00  0.00     0.004 A 
ATOM     10  C   UNL     1       7.042  -0.668  -2.106  1.00  0.00     0.000 A 
ATOM     11  C   UNL     1       9.090   0.461  -1.651  1.00  0.00     0.000 A 
ATOM     12  C   UNL     1       8.379  -0.486  -2.386  1.00  0.00     0.000 A 
ENDBRANCH   6   7
ENDBRANCH   1   6
TORSDOF 4
ENDMDL
MODEL 5
REMARK VINA RESULT:      -6.7      3.833      4.945
REMARK SMILES O=C(O)CCc1ccccc1
REMARK SMILES IDX 4 1 2 2 1 3 3 4 5 6 6 7 7 8 11 9 8 10 10 11 9 12
REMARK H PARENT 3 5
REMARK Flexibility Score: inf
ROOT
ATOM      1  C   UNL     1       5.572   2.898  -0.076  1.00  0.00     0.127 C 
ENDROOT
BRANCH   1   2
ATOM      2  C   UNL     1       6.322   3.864   0.769  1.00  0.00     0.303 C 
ATOM      3  O   UNL     1       7.058   4.773   0.309  1.00  0.00    -0.252 OA
BRANCH   2   4
ATOM      4  O   UNL     1       6.215   3.772   2.148  1.00  0.00    -0.481 OA
ATOM      5  H   UNL     1       6.596   4.557   2.681  1.00  0.00     0.296 HD
ENDBRANCH   2   4
ENDBRANCH   1   2
BRANCH   1   6
ATOM      6  C   UNL     1       4.964   1.839   0.795  1.00  0.00     0.047 C 
BRANCH   6   7
ATOM      7  C   UNL     1       5.727   0.595   0.856  1.00  0.00    -0.047 A 
ATOM      8  C   UNL     1       6.405   0.062  -0.213  1.00  0.00     0.004 A 
ATOM      9  C   UNL     1       5.779  -0.093   2.042  1.00  0.00     0.004 A 
ATOM     10  C   UNL     1       7.119  -1.110  -0.139  1.00  0.00     0.000 A 
ATOM     11  C   UNL     1       6.483  -1.270   2.152  1.00  0.00     0.000 A 
ATOM     12  C   UNL     1       7.166  -1.796   1.056  1.00  0.00     0.000 A 
ENDBRANCH   6   7
ENDBRANCH   1   6
TORSDOF 4
ENDMDL
