@<TRIPOS>MOLECULE
/home/cewinharhar/GITHUB/reincatalyze/data/processed/docking_pred/2023-Apr-25-2140_maxeplen10_maxtrainstep200_exh16_gamma099_lrac3e-4_lrcr1e-3/cc4a81c85f0f72a0e9860fd8246284f5ccc1e781_ligand_2.pdbqt
 12 12 0 0 0
SMALL
GASTEIGER

@<TRIPOS>ATOM
      1  C          5.5720    2.8980   -0.0760 C.3     1  UNL1        0.1270
      2  C          6.3220    3.8640    0.7690 C.2     1  UNL1        0.3030
      3  O          7.0580    4.7730    0.3090 O.2     1  UNL1       -0.2520
      4  O          6.2150    3.7720    2.1480 O.3     1  UNL1       -0.4810
      5  H          6.5960    4.5570    2.6810 H       1  UNL1        0.2960
      6  C          4.9640    1.8390    0.7950 C.3     1  UNL1        0.0470
      7  C          5.7270    0.5950    0.8560 C.2     1  UNL1       -0.0470
      8  C          6.4050    0.0620   -0.2130 C.2     1  UNL1        0.0040
      9  C          5.7790   -0.0930    2.0420 C.2     1  UNL1        0.0040
     10  C          7.1190   -1.1100   -0.1390 C.2     1  UNL1        0.0000
     11  C          6.4830   -1.2700    2.1520 C.2     1  UNL1        0.0000
     12  C          7.1660   -1.7960    1.0560 C.2     1  UNL1        0.0000
@<TRIPOS>BOND
     1     8    10    1
     2     8     7    2
     3    10    12    2
     4     1     2    1
     5     1     6    1
     6     3     2    2
     7     2     4    1
     8     6     7    1
     9     7     9    1
    10    12    11    1
    11     9    11    2
    12     4     5    1
