@<TRIPOS>MOLECULE
/home/cewinharhar/GITHUB/reincatalyze/data/processed/docking_pred/2023-Apr-25-2140_maxeplen10_maxtrainstep200_exh16_gamma099_lrac3e-4_lrcr1e-3/cc4a81c85f0f72a0e9860fd8246284f5ccc1e781_ligand_2.pdbqt
 12 12 0 0 0
SMALL
GASTEIGER

@<TRIPOS>ATOM
      1  C          5.0300    1.7710    0.7110 C.3     1  UNL1        0.1270
      2  C          4.5980    1.0310    1.9250 C.2     1  UNL1        0.3030
      3  O          5.2900    0.1450    2.4900 O.2     1  UNL1       -0.2520
      4  O          3.3630    1.3220    2.4840 O.3     1  UNL1       -0.4810
      5  H          2.6710    0.5690    2.4590 H       1  UNL1        0.2960
      6  C          6.5290    1.8320    0.6690 C.3     1  UNL1        0.0470
      7  C          7.1370    1.0230   -0.3840 C.2     1  UNL1       -0.0470
      8  C          6.4540    0.0850   -1.1180 C.2     1  UNL1        0.0040
      9  C          8.4690    1.1980   -0.6690 C.2     1  UNL1        0.0040
     10  C          7.0420   -0.6680   -2.1060 C.2     1  UNL1        0.0000
     11  C          9.0900    0.4610   -1.6510 C.2     1  UNL1        0.0000
     12  C          8.3790   -0.4860   -2.3860 C.2     1  UNL1        0.0000
@<TRIPOS>BOND
     1    12    10    2
     2    12    11    1
     3    10     8    1
     4    11     9    2
     5     8     7    2
     6     9     7    1
     7     7     6    1
     8     6     1    1
     9     1     2    1
    10     2     4    1
    11     2     3    2
    12     5     4    1
