@<TRIPOS>MOLECULE
/home/cewinharhar/GITHUB/reincatalyze/data/processed/docking_pred/2023-Apr-25-2140_maxeplen10_maxtrainstep200_exh16_gamma099_lrac3e-4_lrcr1e-3/cdc825ac9d1cfd0e1f917a20457d8153cb4f8d56_ligand_2.pdbqt
 12 12 0 0 0
SMALL
GASTEIGER

@<TRIPOS>ATOM
      1  C          8.1890    0.2780   -2.1330 C.3     1  UNL1        0.1270
      2  C          9.3490    0.3630   -1.2070 C.2     1  UNL1        0.3030
      3  O          9.4970   -0.3740   -0.2000 O.2     1  UNL1       -0.2520
      4  O         10.3370    1.3050   -1.4550 O.3     1  UNL1       -0.4810
      5  H         11.1610    0.9680   -1.9570 H       1  UNL1        0.2960
      6  C          7.1110   -0.5570   -1.5070 C.3     1  UNL1        0.0470
      7  C          6.3550    0.1210   -0.4570 C.2     1  UNL1       -0.0470
      8  C          6.1550   -0.4000    0.7980 C.2     1  UNL1        0.0040
      9  C          5.8070    1.3510   -0.7240 C.2     1  UNL1        0.0040
     10  C          5.4410    0.2520    1.7750 C.2     1  UNL1        0.0000
     11  C          5.0860    2.0310    0.2310 C.2     1  UNL1        0.0000
     12  C          4.8930    1.4860    1.4990 C.2     1  UNL1        0.0000
@<TRIPOS>BOND
     1     1     6    1
     2     1     2    1
     3     5     4    1
     4     6     7    1
     5     4     2    1
     6     2     3    2
     7     9     7    2
     8     9    11    1
     9     7     8    1
    10    11    12    2
    11     8    10    2
    12    12    10    1
