@<TRIPOS>MOLECULE
/home/cewinharhar/GITHUB/reincatalyze/data/processed/docking_pred/2023-Apr-25-2140_maxeplen10_maxtrainstep200_exh16_gamma099_lrac3e-4_lrcr1e-3/cdc825ac9d1cfd0e1f917a20457d8153cb4f8d56_ligand_2.pdbqt
 12 12 0 0 0
SMALL
GASTEIGER

@<TRIPOS>ATOM
      1  C          4.9950    1.8190    0.7040 C.3     1  UNL1        0.1270
      2  C          4.4980    1.1050    1.9090 C.2     1  UNL1        0.3030
      3  O          5.1280    0.1830    2.4870 O.2     1  UNL1       -0.2520
      4  O          3.2690    1.4630    2.4420 O.3     1  UNL1       -0.4810
      5  H          2.8510    2.3190    2.0690 H       1  UNL1        0.2960
      6  C          6.4940    1.8680    0.7350 C.3     1  UNL1        0.0470
      7  C          7.1450    1.1110   -0.3320 C.2     1  UNL1       -0.0470
      8  C          8.4790    1.2160   -0.6390 C.2     1  UNL1        0.0040
      9  C          6.3930    0.2400   -1.0800 C.2     1  UNL1        0.0040
     10  C          9.0760    0.4960   -1.6460 C.2     1  UNL1        0.0000
     11  C          6.9570   -0.4960   -2.0970 C.2     1  UNL1        0.0000
     12  C          8.3140   -0.3760   -2.3930 C.2     1  UNL1        0.0000
@<TRIPOS>BOND
     1    12    11    2
     2    12    10    1
     3    11     9    1
     4    10     8    2
     5     9     7    2
     6     8     7    1
     7     7     6    1
     8     1     6    1
     9     1     2    1
    10     2     4    1
    11     2     3    2
    12     5     4    1
