MODEL 1
REMARK VINA RESULT:      -7.3      0.000      0.000
REMARK SMILES O=C(O)CCc1ccccc1
REMARK SMILES IDX 4 1 2 2 1 3 3 4 5 6 6 7 7 8 11 9 8 10 10 11 9 12
REMARK H PARENT 3 5
REMARK Flexibility Score: inf
ROOT
ATOM      1  C   UNL     1       8.455  -0.574  -2.202  1.00  0.00     0.127 C 
ENDROOT
BRANCH   1   2
ATOM      2  C   UNL     1       8.519  -1.873  -2.921  1.00  0.00     0.303 C 
ATOM      3  O   UNL     1       9.581  -2.518  -3.112  1.00  0.00    -0.252 OA
BRANCH   2   4
ATOM      4  O   UNL     1       7.346  -2.423  -3.418  1.00  0.00    -0.481 OA
ATOM      5  H   UNL     1       6.781  -1.811  -4.012  1.00  0.00     0.296 HD
ENDBRANCH   2   4
ENDBRANCH   1   2
BRANCH   1   6
ATOM      6  C   UNL     1       7.032  -0.101  -2.150  1.00  0.00     0.047 C 
BRANCH   6   7
ATOM      7  C   UNL     1       6.491   0.039  -0.800  1.00  0.00    -0.047 A 
ATOM      8  C   UNL     1       6.589  -0.931   0.167  1.00  0.00     0.004 A 
ATOM      9  C   UNL     1       5.843   1.202  -0.464  1.00  0.00     0.004 A 
ATOM     10  C   UNL     1       6.074  -0.782   1.432  1.00  0.00     0.000 A 
ATOM     11  C   UNL     1       5.314   1.384   0.793  1.00  0.00     0.000 A 
ATOM     12  C   UNL     1       5.424   0.388   1.762  1.00  0.00     0.000 A 
ENDBRANCH   6   7
ENDBRANCH   1   6
TORSDOF 4
ENDMDL
MODEL 2
REMARK VINA RESULT:      -7.2      0.121      1.721
REMARK SMILES O=C(O)CCc1ccccc1
REMARK SMILES IDX 4 1 2 2 1 3 3 4 5 6 6 7 7 8 11 9 8 10 10 11 9 12
REMARK H PARENT 3 5
REMARK Flexibility Score: inf
ROOT
ATOM      1  C   UNL     1       8.444  -0.641  -2.105  1.00  0.00     0.127 C 
ENDROOT
BRANCH   1   2
ATOM      2  C   UNL     1       8.381  -1.900  -2.893  1.00  0.00     0.303 C 
ATOM      3  O   UNL     1       7.309  -2.444  -3.261  1.00  0.00    -0.252 OA
BRANCH   2   4
ATOM      4  O   UNL     1       9.565  -2.525  -3.253  1.00  0.00    -0.481 OA
ATOM      5  H   UNL     1       9.780  -3.396  -2.762  1.00  0.00     0.296 HD
ENDBRANCH   2   4
ENDBRANCH   1   2
BRANCH   1   6
ATOM      6  C   UNL     1       7.095   0.017  -2.107  1.00  0.00     0.047 C 
BRANCH   6   7
ATOM      7  C   UNL     1       6.499   0.175  -0.783  1.00  0.00    -0.047 A 
ATOM      8  C   UNL     1       5.812   1.295  -0.382  1.00  0.00     0.004 A 
ATOM      9  C   UNL     1       6.624  -0.846   0.126  1.00  0.00     0.004 A 
ATOM     10  C   UNL     1       5.257   1.427   0.868  1.00  0.00     0.000 A 
ATOM     11  C   UNL     1       6.081  -0.748   1.387  1.00  0.00     0.000 A 
ATOM     12  C   UNL     1       5.387   0.397   1.775  1.00  0.00     0.000 A 
ENDBRANCH   6   7
ENDBRANCH   1   6
TORSDOF 4
ENDMDL
MODEL 3
REMARK VINA RESULT:      -7.0      2.379      3.260
REMARK SMILES O=C(O)CCc1ccccc1
REMARK SMILES IDX 4 1 2 2 1 3 3 4 5 6 6 7 7 8 11 9 8 10 10 11 9 12
REMARK H PARENT 3 5
REMARK Flexibility Score: inf
ROOT
ATOM      1  C   UNL     1       8.190  -2.014   0.972  1.00  0.00     0.127 C 
ENDROOT
BRANCH   1   2
ATOM      2  C   UNL     1       8.331  -3.494   0.959  1.00  0.00     0.303 C 
ATOM      3  O   UNL     1       9.288  -4.101   0.416  1.00  0.00    -0.252 OA
BRANCH   2   4
ATOM      4  O   UNL     1       7.359  -4.266   1.577  1.00  0.00    -0.481 OA
ATOM      5  H   UNL     1       7.700  -5.053   2.134  1.00  0.00     0.296 HD
ENDBRANCH   2   4
ENDBRANCH   1   2
BRANCH   1   6
ATOM      6  C   UNL     1       6.826  -1.647   1.481  1.00  0.00     0.047 C 
BRANCH   6   7
ATOM      7  C   UNL     1       6.285  -0.412   0.919  1.00  0.00    -0.047 A 
ATOM      8  C   UNL     1       5.499   0.467   1.623  1.00  0.00     0.004 A 
ATOM      9  C   UNL     1       6.568  -0.098  -0.387  1.00  0.00     0.004 A 
ATOM     10  C   UNL     1       4.998   1.626   1.079  1.00  0.00     0.000 A 
ATOM     11  C   UNL     1       6.082   1.053  -0.963  1.00  0.00     0.000 A 
ATOM     12  C   UNL     1       5.287   1.934  -0.232  1.00  0.00     0.000 A 
ENDBRANCH   6   7
ENDBRANCH   1   6
TORSDOF 4
ENDMDL
MODEL 4
REMARK VINA RESULT:      -6.7      3.375      5.087
REMARK SMILES O=C(O)CCc1ccccc1
REMARK SMILES IDX 4 1 2 2 1 3 3 4 5 6 6 7 7 8 11 9 8 10 10 11 9 12
REMARK H PARENT 3 5
REMARK Flexibility Score: inf
ROOT
ATOM      1  C   UNL     1       4.995   1.819   0.704  1.00  0.00     0.127 C 
ENDROOT
BRANCH   1   2
ATOM      2  C   UNL     1       4.498   1.105   1.909  1.00  0.00     0.303 C 
ATOM      3  O   UNL     1       5.128   0.183   2.487  1.00  0.00    -0.252 OA
BRANCH   2   4
ATOM      4  O   UNL     1       3.269   1.463   2.442  1.00  0.00    -0.481 OA
ATOM      5  H   UNL     1       2.851   2.319   2.069  1.00  0.00     0.296 HD
ENDBRANCH   2   4
ENDBRANCH   1   2
BRANCH   1   6
ATOM      6  C   UNL     1       6.494   1.868   0.735  1.00  0.00     0.047 C 
BRANCH   6   7
ATOM      7  C   UNL     1       7.145   1.111  -0.332  1.00  0.00    -0.047 A 
ATOM      8  C   UNL     1       8.479   1.216  -0.639  1.00  0.00     0.004 A 
ATOM      9  C   UNL     1       6.393   0.240  -1.080  1.00  0.00     0.004 A 
ATOM     10  C   UNL     1       9.076   0.496  -1.646  1.00  0.00     0.000 A 
ATOM     11  C   UNL     1       6.957  -0.496  -2.097  1.00  0.00     0.000 A 
ATOM     12  C   UNL     1       8.314  -0.376  -2.393  1.00  0.00     0.000 A 
ENDBRANCH   6   7
ENDBRANCH   1   6
TORSDOF 4
ENDMDL
MODEL 5
REMARK VINA RESULT:      -6.6      1.940      2.233
REMARK SMILES O=C(O)CCc1ccccc1
REMARK SMILES IDX 4 1 2 2 1 3 3 4 5 6 6 7 7 8 11 9 8 10 10 11 9 12
REMARK H PARENT 3 5
REMARK Flexibility Score: inf
ROOT
ATOM      1  C   UNL     1       8.189   0.278  -2.133  1.00  0.00     0.127 C 
ENDROOT
BRANCH   1   2
ATOM      2  C   UNL     1       9.349   0.363  -1.207  1.00  0.00     0.303 C 
ATOM      3  O   UNL     1       9.497  -0.374  -0.200  1.00  0.00    -0.252 OA
BRANCH   2   4
ATOM      4  O   UNL     1      10.337   1.305  -1.455  1.00  0.00    -0.481 OA
ATOM      5  H   UNL     1      11.161   0.968  -1.957  1.00  0.00     0.296 HD
ENDBRANCH   2   4
ENDBRANCH   1   2
BRANCH   1   6
ATOM      6  C   UNL     1       7.111  -0.557  -1.507  1.00  0.00     0.047 C 
BRANCH   6   7
ATOM      7  C   UNL     1       6.355   0.121  -0.457  1.00  0.00    -0.047 A 
ATOM      8  C   UNL     1       6.155  -0.400   0.798  1.00  0.00     0.004 A 
ATOM      9  C   UNL     1       5.807   1.351  -0.724  1.00  0.00     0.004 A 
ATOM     10  C   UNL     1       5.441   0.252   1.775  1.00  0.00     0.000 A 
ATOM     11  C   UNL     1       5.086   2.031   0.231  1.00  0.00     0.000 A 
ATOM     12  C   UNL     1       4.893   1.486   1.499  1.00  0.00     0.000 A 
ENDBRANCH   6   7
ENDBRANCH   1   6
TORSDOF 4
ENDMDL
