@<TRIPOS>MOLECULE
/home/cewinharhar/GITHUB/reincatalyze/data/processed/docking_pred/2023-Apr-25-2140_maxeplen10_maxtrainstep200_exh16_gamma099_lrac3e-4_lrcr1e-3/cdc825ac9d1cfd0e1f917a20457d8153cb4f8d56_ligand_2.pdbqt
 12 12 0 0 0
SMALL
GASTEIGER

@<TRIPOS>ATOM
      1  C          8.1900   -2.0140    0.9720 C.3     1  UNL1        0.1270
      2  C          8.3310   -3.4940    0.9590 C.2     1  UNL1        0.3030
      3  O          9.2880   -4.1010    0.4160 O.2     1  UNL1       -0.2520
      4  O          7.3590   -4.2660    1.5770 O.3     1  UNL1       -0.4810
      5  H          7.7000   -5.0530    2.1340 H       1  UNL1        0.2960
      6  C          6.8260   -1.6470    1.4810 C.3     1  UNL1        0.0470
      7  C          6.2850   -0.4120    0.9190 C.2     1  UNL1       -0.0470
      8  C          5.4990    0.4670    1.6230 C.2     1  UNL1        0.0040
      9  C          6.5680   -0.0980   -0.3870 C.2     1  UNL1        0.0040
     10  C          4.9980    1.6260    1.0790 C.2     1  UNL1        0.0000
     11  C          6.0820    1.0530   -0.9630 C.2     1  UNL1        0.0000
     12  C          5.2870    1.9340   -0.2320 C.2     1  UNL1        0.0000
@<TRIPOS>BOND
     1    11     9    1
     2    11    12    2
     3     9     7    2
     4    12    10    1
     5     3     2    2
     6     7     6    1
     7     7     8    1
     8     2     1    1
     9     2     4    1
    10     1     6    1
    11    10     8    2
    12     4     5    1
