@<TRIPOS>MOLECULE
/home/cewinharhar/GITHUB/reincatalyze/data/processed/docking_pred/2023-Apr-25-2140_maxeplen10_maxtrainstep200_exh16_gamma099_lrac3e-4_lrcr1e-3/cdc825ac9d1cfd0e1f917a20457d8153cb4f8d56_ligand_2.pdbqt
 12 12 0 0 0
SMALL
GASTEIGER

@<TRIPOS>ATOM
      1  C          8.4550   -0.5740   -2.2020 C.3     1  UNL1        0.1270
      2  C          8.5190   -1.8730   -2.9210 C.2     1  UNL1        0.3030
      3  O          9.5810   -2.5180   -3.1120 O.2     1  UNL1       -0.2520
      4  O          7.3460   -2.4230   -3.4180 O.3     1  UNL1       -0.4810
      5  H          6.7810   -1.8110   -4.0120 H       1  UNL1        0.2960
      6  C          7.0320   -0.1010   -2.1500 C.3     1  UNL1        0.0470
      7  C          6.4910    0.0390   -0.8000 C.2     1  UNL1       -0.0470
      8  C          6.5890   -0.9310    0.1670 C.2     1  UNL1        0.0040
      9  C          5.8430    1.2020   -0.4640 C.2     1  UNL1        0.0040
     10  C          6.0740   -0.7820    1.4320 C.2     1  UNL1        0.0000
     11  C          5.3140    1.3840    0.7930 C.2     1  UNL1        0.0000
     12  C          5.4240    0.3880    1.7620 C.2     1  UNL1        0.0000
@<TRIPOS>BOND
     1     5     4    1
     2     4     2    1
     3     3     2    2
     4     2     1    1
     5     1     6    1
     6     6     7    1
     7     7     9    2
     8     7     8    1
     9     9    11    1
    10     8    10    2
    11    11    12    2
    12    10    12    1
