@<TRIPOS>MOLECULE
/home/cewinharhar/GITHUB/reincatalyze/data/processed/docking_pred/2023-Apr-25-2140_maxeplen10_maxtrainstep200_exh16_gamma099_lrac3e-4_lrcr1e-3/cdc825ac9d1cfd0e1f917a20457d8153cb4f8d56_ligand_2.pdbqt
 12 12 0 0 0
SMALL
GASTEIGER

@<TRIPOS>ATOM
      1  C          8.4440   -0.6410   -2.1050 C.3     1  UNL1        0.1270
      2  C          8.3810   -1.9000   -2.8930 C.2     1  UNL1        0.3030
      3  O          7.3090   -2.4440   -3.2610 O.2     1  UNL1       -0.2520
      4  O          9.5650   -2.5250   -3.2530 O.3     1  UNL1       -0.4810
      5  H          9.7800   -3.3960   -2.7620 H       1  UNL1        0.2960
      6  C          7.0950    0.0170   -2.1070 C.3     1  UNL1        0.0470
      7  C          6.4990    0.1750   -0.7830 C.2     1  UNL1       -0.0470
      8  C          5.8120    1.2950   -0.3820 C.2     1  UNL1        0.0040
      9  C          6.6240   -0.8460    0.1260 C.2     1  UNL1        0.0040
     10  C          5.2570    1.4270    0.8680 C.2     1  UNL1        0.0000
     11  C          6.0810   -0.7480    1.3870 C.2     1  UNL1        0.0000
     12  C          5.3870    0.3970    1.7750 C.2     1  UNL1        0.0000
@<TRIPOS>BOND
     1     3     2    2
     2     4     2    1
     3     4     5    1
     4     2     1    1
     5     6     1    1
     6     6     7    1
     7     7     8    2
     8     7     9    1
     9     8    10    1
    10     9    11    2
    11    10    12    2
    12    11    12    1
