@<TRIPOS>MOLECULE
/home/cewinharhar/GITHUB/reincatalyze/data/processed/docking_pred/2023-Apr-25-2140_maxeplen10_maxtrainstep200_exh16_gamma099_lrac3e-4_lrcr1e-3/cf36f354a35629e8f67fe5763b2daf9f978d0e2b_ligand_2.pdbqt
 12 12 0 0 0
SMALL
GASTEIGER

@<TRIPOS>ATOM
      1  C          8.2990    0.3850   -2.0110 C.3     1  UNL1        0.1270
      2  C          9.4520    0.3880   -1.0730 C.2     1  UNL1        0.3030
      3  O          9.5470   -0.3720   -0.0760 O.2     1  UNL1       -0.2520
      4  O         10.4950    1.2750   -1.2960 O.3     1  UNL1       -0.4810
      5  H         11.1790    1.3600   -0.5420 H       1  UNL1        0.2960
      6  C          7.2060   -0.4800   -1.4560 C.3     1  UNL1        0.0470
      7  C          6.3940    0.1600   -0.4240 C.2     1  UNL1       -0.0470
      8  C          5.7890    1.3830   -0.5770 C.2     1  UNL1        0.0040
      9  C          6.2160   -0.4860    0.7740 C.2     1  UNL1        0.0040
     10  C          5.0280    1.9720    0.4050 C.2     1  UNL1        0.0000
     11  C          5.4610    0.0740    1.7790 C.2     1  UNL1        0.0000
     12  C          4.8550    1.3170    1.6050 C.2     1  UNL1        0.0000
@<TRIPOS>BOND
     1     1     6    1
     2     1     2    1
     3     6     7    1
     4     4     2    1
     5     4     5    1
     6     2     3    2
     7     8     7    2
     8     8    10    1
     9     7     9    1
    10    10    12    2
    11     9    11    2
    12    12    11    1
