@<TRIPOS>MOLECULE
/home/cewinharhar/GITHUB/reincatalyze/data/processed/docking_pred/2023-Apr-25-2140_maxeplen10_maxtrainstep200_exh16_gamma099_lrac3e-4_lrcr1e-3/cf36f354a35629e8f67fe5763b2daf9f978d0e2b_ligand_2.pdbqt
 12 12 0 0 0
SMALL
GASTEIGER

@<TRIPOS>ATOM
      1  C          5.0150    1.7290    0.7340 C.3     1  UNL1        0.1270
      2  C          4.6020    0.9800    1.9490 C.2     1  UNL1        0.3030
      3  O          5.2980    0.0840    2.4910 O.2     1  UNL1       -0.2520
      4  O          3.3790    1.2720    2.5340 O.3     1  UNL1       -0.4810
      5  H          2.7230    0.4930    2.6160 H       1  UNL1        0.2960
      6  C          6.5110    1.8420    0.7010 C.3     1  UNL1        0.0470
      7  C          7.1530    1.0560   -0.3500 C.2     1  UNL1       -0.0470
      8  C          8.4850    1.1510   -0.6700 C.2     1  UNL1        0.0040
      9  C          6.3930    0.1680   -1.0710 C.2     1  UNL1        0.0040
     10  C          9.0730    0.4050   -1.6630 C.2     1  UNL1        0.0000
     11  C          6.9490   -0.5940   -2.0720 C.2     1  UNL1        0.0000
     12  C          8.3040   -0.4850   -2.3820 C.2     1  UNL1        0.0000
@<TRIPOS>BOND
     1    12    11    2
     2    12    10    1
     3    11     9    1
     4    10     8    2
     5     9     7    2
     6     8     7    1
     7     7     6    1
     8     6     1    1
     9     1     2    1
    10     2     3    2
    11     2     4    1
    12     4     5    1
