MODEL 1
REMARK VINA RESULT:      -7.3      0.000      0.000
REMARK SMILES O=C(O)CCc1ccccc1
REMARK SMILES IDX 4 1 2 2 1 3 3 4 5 6 6 7 7 8 11 9 8 10 10 11 9 12
REMARK H PARENT 3 5
REMARK Flexibility Score: inf
ROOT
ATOM      1  C   UNL     1       8.435  -0.568  -2.225  1.00  0.00     0.127 C 
ENDROOT
BRANCH   1   2
ATOM      2  C   UNL     1       8.506  -1.877  -2.926  1.00  0.00     0.303 C 
ATOM      3  O   UNL     1       9.567  -2.536  -3.074  1.00  0.00    -0.252 OA
BRANCH   2   4
ATOM      4  O   UNL     1       7.344  -2.420  -3.453  1.00  0.00    -0.481 OA
ATOM      5  H   UNL     1       6.681  -2.802  -2.776  1.00  0.00     0.296 HD
ENDBRANCH   2   4
ENDBRANCH   1   2
BRANCH   1   6
ATOM      6  C   UNL     1       7.006  -0.112  -2.164  1.00  0.00     0.047 C 
BRANCH   6   7
ATOM      7  C   UNL     1       6.479   0.042  -0.810  1.00  0.00    -0.047 A 
ATOM      8  C   UNL     1       6.573  -0.925   0.161  1.00  0.00     0.004 A 
ATOM      9  C   UNL     1       5.849   1.214  -0.474  1.00  0.00     0.004 A 
ATOM     10  C   UNL     1       6.071  -0.764   1.430  1.00  0.00     0.000 A 
ATOM     11  C   UNL     1       5.334   1.409   0.787  1.00  0.00     0.000 A 
ATOM     12  C   UNL     1       5.440   0.416   1.760  1.00  0.00     0.000 A 
ENDBRANCH   6   7
ENDBRANCH   1   6
TORSDOF 4
ENDMDL
MODEL 2
REMARK VINA RESULT:      -7.2      0.165      1.723
REMARK SMILES O=C(O)CCc1ccccc1
REMARK SMILES IDX 4 1 2 2 1 3 3 4 5 6 6 7 7 8 11 9 8 10 10 11 9 12
REMARK H PARENT 3 5
REMARK Flexibility Score: inf
ROOT
ATOM      1  C   UNL     1       8.453  -0.649  -2.056  1.00  0.00     0.127 C 
ENDROOT
BRANCH   1   2
ATOM      2  C   UNL     1       8.371  -1.890  -2.869  1.00  0.00     0.303 C 
ATOM      3  O   UNL     1       7.290  -2.413  -3.243  1.00  0.00    -0.252 OA
BRANCH   2   4
ATOM      4  O   UNL     1       9.545  -2.522  -3.249  1.00  0.00    -0.481 OA
ATOM      5  H   UNL     1       9.685  -2.642  -4.255  1.00  0.00     0.296 HD
ENDBRANCH   2   4
ENDBRANCH   1   2
BRANCH   1   6
ATOM      6  C   UNL     1       7.129   0.056  -2.085  1.00  0.00     0.047 C 
BRANCH   6   7
ATOM      7  C   UNL     1       6.502   0.217  -0.775  1.00  0.00    -0.047 A 
ATOM      8  C   UNL     1       5.802   1.336  -0.396  1.00  0.00     0.004 A 
ATOM      9  C   UNL     1       6.609  -0.800   0.140  1.00  0.00     0.004 A 
ATOM     10  C   UNL     1       5.218   1.471   0.841  1.00  0.00     0.000 A 
ATOM     11  C   UNL     1       6.037  -0.699   1.387  1.00  0.00     0.000 A 
ATOM     12  C   UNL     1       5.330   0.445   1.755  1.00  0.00     0.000 A 
ENDBRANCH   6   7
ENDBRANCH   1   6
TORSDOF 4
ENDMDL
MODEL 3
REMARK VINA RESULT:      -6.7      3.342      5.040
REMARK SMILES O=C(O)CCc1ccccc1
REMARK SMILES IDX 4 1 2 2 1 3 3 4 5 6 6 7 7 8 11 9 8 10 10 11 9 12
REMARK H PARENT 3 5
REMARK Flexibility Score: inf
ROOT
ATOM      1  C   UNL     1       5.015   1.729   0.734  1.00  0.00     0.127 C 
ENDROOT
BRANCH   1   2
ATOM      2  C   UNL     1       4.602   0.980   1.949  1.00  0.00     0.303 C 
ATOM      3  O   UNL     1       5.298   0.084   2.491  1.00  0.00    -0.252 OA
BRANCH   2   4
ATOM      4  O   UNL     1       3.379   1.272   2.534  1.00  0.00    -0.481 OA
ATOM      5  H   UNL     1       2.723   0.493   2.616  1.00  0.00     0.296 HD
ENDBRANCH   2   4
ENDBRANCH   1   2
BRANCH   1   6
ATOM      6  C   UNL     1       6.511   1.842   0.701  1.00  0.00     0.047 C 
BRANCH   6   7
ATOM      7  C   UNL     1       7.153   1.056  -0.350  1.00  0.00    -0.047 A 
ATOM      8  C   UNL     1       8.485   1.151  -0.670  1.00  0.00     0.004 A 
ATOM      9  C   UNL     1       6.393   0.168  -1.071  1.00  0.00     0.004 A 
ATOM     10  C   UNL     1       9.073   0.405  -1.663  1.00  0.00     0.000 A 
ATOM     11  C   UNL     1       6.949  -0.594  -2.072  1.00  0.00     0.000 A 
ATOM     12  C   UNL     1       8.304  -0.485  -2.382  1.00  0.00     0.000 A 
ENDBRANCH   6   7
ENDBRANCH   1   6
TORSDOF 4
ENDMDL
MODEL 4
REMARK VINA RESULT:      -6.6      1.993      2.660
REMARK SMILES O=C(O)CCc1ccccc1
REMARK SMILES IDX 4 1 2 2 1 3 3 4 5 6 6 7 7 8 11 9 8 10 10 11 9 12
REMARK H PARENT 3 5
REMARK Flexibility Score: inf
ROOT
ATOM      1  C   UNL     1       8.299   0.385  -2.011  1.00  0.00     0.127 C 
ENDROOT
BRANCH   1   2
ATOM      2  C   UNL     1       9.452   0.388  -1.073  1.00  0.00     0.303 C 
ATOM      3  O   UNL     1       9.547  -0.372  -0.076  1.00  0.00    -0.252 OA
BRANCH   2   4
ATOM      4  O   UNL     1      10.495   1.275  -1.296  1.00  0.00    -0.481 OA
ATOM      5  H   UNL     1      11.179   1.360  -0.542  1.00  0.00     0.296 HD
ENDBRANCH   2   4
ENDBRANCH   1   2
BRANCH   1   6
ATOM      6  C   UNL     1       7.206  -0.480  -1.456  1.00  0.00     0.047 C 
BRANCH   6   7
ATOM      7  C   UNL     1       6.394   0.160  -0.424  1.00  0.00    -0.047 A 
ATOM      8  C   UNL     1       5.789   1.383  -0.577  1.00  0.00     0.004 A 
ATOM      9  C   UNL     1       6.216  -0.486   0.774  1.00  0.00     0.004 A 
ATOM     10  C   UNL     1       5.028   1.972   0.405  1.00  0.00     0.000 A 
ATOM     11  C   UNL     1       5.461   0.074   1.779  1.00  0.00     0.000 A 
ATOM     12  C   UNL     1       4.855   1.317   1.605  1.00  0.00     0.000 A 
ENDBRANCH   6   7
ENDBRANCH   1   6
TORSDOF 4
ENDMDL
MODEL 5
REMARK VINA RESULT:      -6.5      1.898      2.860
REMARK SMILES O=C(O)CCc1ccccc1
REMARK SMILES IDX 4 1 2 2 1 3 3 4 5 6 6 7 7 8 11 9 8 10 10 11 9 12
REMARK H PARENT 3 5
REMARK Flexibility Score: inf
ROOT
ATOM      1  C   UNL     1       8.243  -1.607   1.088  1.00  0.00     0.127 C 
ENDROOT
BRANCH   1   2
ATOM      2  C   UNL     1       8.539  -2.856   0.339  1.00  0.00     0.303 C 
ATOM      3  O   UNL     1       9.184  -3.824   0.817  1.00  0.00    -0.252 OA
BRANCH   2   4
ATOM      4  O   UNL     1       8.084  -2.979  -0.965  1.00  0.00    -0.481 OA
ATOM      5  H   UNL     1       7.083  -3.151  -1.076  1.00  0.00     0.296 HD
ENDBRANCH   2   4
ENDBRANCH   1   2
BRANCH   1   6
ATOM      6  C   UNL     1       6.761  -1.483   1.287  1.00  0.00     0.047 C 
BRANCH   6   7
ATOM      7  C   UNL     1       6.190  -0.228   0.803  1.00  0.00    -0.047 A 
ATOM      8  C   UNL     1       5.413   0.605   1.572  1.00  0.00     0.004 A 
ATOM      9  C   UNL     1       6.433   0.155  -0.492  1.00  0.00     0.004 A 
ATOM     10  C   UNL     1       4.884   1.782   1.101  1.00  0.00     0.000 A 
ATOM     11  C   UNL     1       5.918   1.327  -0.997  1.00  0.00     0.000 A 
ATOM     12  C   UNL     1       5.133   2.160  -0.201  1.00  0.00     0.000 A 
ENDBRANCH   6   7
ENDBRANCH   1   6
TORSDOF 4
ENDMDL
