@<TRIPOS>MOLECULE
/home/cewinharhar/GITHUB/reincatalyze/data/processed/docking_pred/2023-Apr-25-2140_maxeplen10_maxtrainstep200_exh16_gamma099_lrac3e-4_lrcr1e-3/cf36f354a35629e8f67fe5763b2daf9f978d0e2b_ligand_2.pdbqt
 12 12 0 0 0
SMALL
GASTEIGER

@<TRIPOS>ATOM
      1  C          8.2430   -1.6070    1.0880 C.3     1  UNL1        0.1270
      2  C          8.5390   -2.8560    0.3390 C.2     1  UNL1        0.3030
      3  O          9.1840   -3.8240    0.8170 O.2     1  UNL1       -0.2520
      4  O          8.0840   -2.9790   -0.9650 O.3     1  UNL1       -0.4810
      5  H          7.0830   -3.1510   -1.0760 H       1  UNL1        0.2960
      6  C          6.7610   -1.4830    1.2870 C.3     1  UNL1        0.0470
      7  C          6.1900   -0.2280    0.8030 C.2     1  UNL1       -0.0470
      8  C          5.4130    0.6050    1.5720 C.2     1  UNL1        0.0040
      9  C          6.4330    0.1550   -0.4920 C.2     1  UNL1        0.0040
     10  C          4.8840    1.7820    1.1010 C.2     1  UNL1        0.0000
     11  C          5.9180    1.3270   -0.9970 C.2     1  UNL1        0.0000
     12  C          5.1330    2.1600   -0.2010 C.2     1  UNL1        0.0000
@<TRIPOS>BOND
     1     5     4    1
     2    11     9    1
     3    11    12    2
     4     4     2    1
     5     9     7    2
     6    12    10    1
     7     2     3    2
     8     2     1    1
     9     7     6    1
    10     7     8    1
    11     1     6    1
    12    10     8    2
