@<TRIPOS>MOLECULE
/home/cewinharhar/GITHUB/reincatalyze/data/processed/docking_pred/2023-Apr-25-2140_maxeplen10_maxtrainstep200_exh16_gamma099_lrac3e-4_lrcr1e-3/cf36f354a35629e8f67fe5763b2daf9f978d0e2b_ligand_2.pdbqt
 12 12 0 0 0
SMALL
GASTEIGER

@<TRIPOS>ATOM
      1  C          8.4350   -0.5680   -2.2250 C.3     1  UNL1        0.1270
      2  C          8.5060   -1.8770   -2.9260 C.2     1  UNL1        0.3030
      3  O          9.5670   -2.5360   -3.0740 O.2     1  UNL1       -0.2520
      4  O          7.3440   -2.4200   -3.4530 O.3     1  UNL1       -0.4810
      5  H          6.6810   -2.8020   -2.7760 H       1  UNL1        0.2960
      6  C          7.0060   -0.1120   -2.1640 C.3     1  UNL1        0.0470
      7  C          6.4790    0.0420   -0.8100 C.2     1  UNL1       -0.0470
      8  C          6.5730   -0.9250    0.1610 C.2     1  UNL1        0.0040
      9  C          5.8490    1.2140   -0.4740 C.2     1  UNL1        0.0040
     10  C          6.0710   -0.7640    1.4300 C.2     1  UNL1        0.0000
     11  C          5.3340    1.4090    0.7870 C.2     1  UNL1        0.0000
     12  C          5.4400    0.4160    1.7600 C.2     1  UNL1        0.0000
@<TRIPOS>BOND
     1     4     2    1
     2     4     5    1
     3     3     2    2
     4     2     1    1
     5     1     6    1
     6     6     7    1
     7     7     9    2
     8     7     8    1
     9     9    11    1
    10     8    10    2
    11    11    12    2
    12    10    12    1
