@<TRIPOS>MOLECULE
/home/cewinharhar/GITHUB/reincatalyze/data/processed/docking_pred/2023-Apr-25-2140_maxeplen10_maxtrainstep200_exh16_gamma099_lrac3e-4_lrcr1e-3/cf36f354a35629e8f67fe5763b2daf9f978d0e2b_ligand_2.pdbqt
 12 12 0 0 0
SMALL
GASTEIGER

@<TRIPOS>ATOM
      1  C          8.4530   -0.6490   -2.0560 C.3     1  UNL1        0.1270
      2  C          8.3710   -1.8900   -2.8690 C.2     1  UNL1        0.3030
      3  O          7.2900   -2.4130   -3.2430 O.2     1  UNL1       -0.2520
      4  O          9.5450   -2.5220   -3.2490 O.3     1  UNL1       -0.4810
      5  H          9.6850   -2.6420   -4.2550 H       1  UNL1        0.2960
      6  C          7.1290    0.0560   -2.0850 C.3     1  UNL1        0.0470
      7  C          6.5020    0.2170   -0.7750 C.2     1  UNL1       -0.0470
      8  C          5.8020    1.3360   -0.3960 C.2     1  UNL1        0.0040
      9  C          6.6090   -0.8000    0.1400 C.2     1  UNL1        0.0040
     10  C          5.2180    1.4710    0.8410 C.2     1  UNL1        0.0000
     11  C          6.0370   -0.6990    1.3870 C.2     1  UNL1        0.0000
     12  C          5.3300    0.4450    1.7550 C.2     1  UNL1        0.0000
@<TRIPOS>BOND
     1     5     4    1
     2     4     2    1
     3     3     2    2
     4     2     1    1
     5     6     1    1
     6     6     7    1
     7     7     8    2
     8     7     9    1
     9     8    10    1
    10     9    11    2
    11    10    12    2
    12    11    12    1
