MODEL 1
REMARK VINA RESULT:      -7.4      0.000      0.000
REMARK SMILES O=C(O)CCc1ccccc1
REMARK SMILES IDX 4 1 2 2 1 3 3 4 5 6 6 7 7 8 11 9 8 10 10 11 9 12
REMARK H PARENT 3 5
REMARK Flexibility Score: inf
ROOT
ATOM      1  C   UNL     1       8.447  -0.579  -2.198  1.00  0.00     0.127 C 
ENDROOT
BRANCH   1   2
ATOM      2  C   UNL     1       8.516  -1.877  -2.918  1.00  0.00     0.303 C 
ATOM      3  O   UNL     1       9.581  -2.517  -3.109  1.00  0.00    -0.252 OA
BRANCH   2   4
ATOM      4  O   UNL     1       7.346  -2.433  -3.413  1.00  0.00    -0.481 OA
ATOM      5  H   UNL     1       6.649  -2.706  -2.716  1.00  0.00     0.296 HD
ENDBRANCH   2   4
ENDBRANCH   1   2
BRANCH   1   6
ATOM      6  C   UNL     1       7.023  -0.107  -2.155  1.00  0.00     0.047 C 
BRANCH   6   7
ATOM      7  C   UNL     1       6.484   0.066  -0.808  1.00  0.00    -0.047 A 
ATOM      8  C   UNL     1       5.856   1.208  -0.377  1.00  0.00     0.004 A 
ATOM      9  C   UNL     1       6.607  -0.964   0.091  1.00  0.00     0.004 A 
ATOM     10  C   UNL     1       5.355   1.354   0.895  1.00  0.00     0.000 A 
ATOM     11  C   UNL     1       6.118  -0.853   1.372  1.00  0.00     0.000 A 
ATOM     12  C   UNL     1       5.482   0.315   1.792  1.00  0.00     0.000 A 
ENDBRANCH   6   7
ENDBRANCH   1   6
TORSDOF 4
ENDMDL
MODEL 2
REMARK VINA RESULT:      -7.3      0.064      1.427
REMARK SMILES O=C(O)CCc1ccccc1
REMARK SMILES IDX 4 1 2 2 1 3 3 4 5 6 6 7 7 8 11 9 8 10 10 11 9 12
REMARK H PARENT 3 5
REMARK Flexibility Score: inf
ROOT
ATOM      1  C   UNL     1       8.409  -0.498  -2.303  1.00  0.00     0.127 C 
ENDROOT
BRANCH   1   2
ATOM      2  C   UNL     1       8.486  -1.847  -2.924  1.00  0.00     0.303 C 
ATOM      3  O   UNL     1       9.553  -2.498  -3.053  1.00  0.00    -0.252 OA
BRANCH   2   4
ATOM      4  O   UNL     1       7.322  -2.437  -3.392  1.00  0.00    -0.481 OA
ATOM      5  H   UNL     1       7.442  -3.297  -3.932  1.00  0.00     0.296 HD
ENDBRANCH   2   4
ENDBRANCH   1   2
BRANCH   1   6
ATOM      6  C   UNL     1       6.971  -0.081  -2.194  1.00  0.00     0.047 C 
BRANCH   6   7
ATOM      7  C   UNL     1       6.480   0.039  -0.823  1.00  0.00    -0.047 A 
ATOM      8  C   UNL     1       6.587  -0.956   0.117  1.00  0.00     0.004 A 
ATOM      9  C   UNL     1       5.873   1.208  -0.437  1.00  0.00     0.004 A 
ATOM     10  C   UNL     1       6.119  -0.827   1.403  1.00  0.00     0.000 A 
ATOM     11  C   UNL     1       5.393   1.372   0.842  1.00  0.00     0.000 A 
ATOM     12  C   UNL     1       5.511   0.350   1.783  1.00  0.00     0.000 A 
ENDBRANCH   6   7
ENDBRANCH   1   6
TORSDOF 4
ENDMDL
MODEL 3
REMARK VINA RESULT:      -6.7      3.344      5.037
REMARK SMILES O=C(O)CCc1ccccc1
REMARK SMILES IDX 4 1 2 2 1 3 3 4 5 6 6 7 7 8 11 9 8 10 10 11 9 12
REMARK H PARENT 3 5
REMARK Flexibility Score: inf
ROOT
ATOM      1  C   UNL     1       5.019   1.749   0.695  1.00  0.00     0.127 C 
ENDROOT
BRANCH   1   2
ATOM      2  C   UNL     1       4.594   1.026   1.922  1.00  0.00     0.303 C 
ATOM      3  O   UNL     1       5.291   0.151   2.497  1.00  0.00    -0.252 OA
BRANCH   2   4
ATOM      4  O   UNL     1       3.360   1.321   2.481  1.00  0.00    -0.481 OA
ATOM      5  H   UNL     1       3.371   1.958   3.282  1.00  0.00     0.296 HD
ENDBRANCH   2   4
ENDBRANCH   1   2
BRANCH   1   6
ATOM      6  C   UNL     1       6.514   1.868   0.677  1.00  0.00     0.047 C 
BRANCH   6   7
ATOM      7  C   UNL     1       7.170   1.087  -0.368  1.00  0.00    -0.047 A 
ATOM      8  C   UNL     1       8.510   1.170  -0.658  1.00  0.00     0.004 A 
ATOM      9  C   UNL     1       6.417   0.215  -1.115  1.00  0.00     0.004 A 
ATOM     10  C   UNL     1       9.111   0.427  -1.646  1.00  0.00     0.000 A 
ATOM     11  C   UNL     1       6.985  -0.543  -2.112  1.00  0.00     0.000 A 
ATOM     12  C   UNL     1       8.348  -0.446  -2.391  1.00  0.00     0.000 A 
ENDBRANCH   6   7
ENDBRANCH   1   6
TORSDOF 4
ENDMDL
MODEL 4
REMARK VINA RESULT:      -6.7      1.953      2.315
REMARK SMILES O=C(O)CCc1ccccc1
REMARK SMILES IDX 4 1 2 2 1 3 3 4 5 6 6 7 7 8 11 9 8 10 10 11 9 12
REMARK H PARENT 3 5
REMARK Flexibility Score: inf
ROOT
ATOM      1  C   UNL     1       8.272   0.161  -2.194  1.00  0.00     0.127 C 
ENDROOT
BRANCH   1   2
ATOM      2  C   UNL     1       9.375   0.332  -1.213  1.00  0.00     0.303 C 
ATOM      3  O   UNL     1       9.503  -0.363  -0.173  1.00  0.00    -0.252 OA
BRANCH   2   4
ATOM      4  O   UNL     1      10.331   1.310  -1.443  1.00  0.00    -0.481 OA
ATOM      5  H   UNL     1      11.296   0.983  -1.526  1.00  0.00     0.296 HD
ENDBRANCH   2   4
ENDBRANCH   1   2
BRANCH   1   6
ATOM      6  C   UNL     1       7.126  -0.551  -1.538  1.00  0.00     0.047 C 
BRANCH   6   7
ATOM      7  C   UNL     1       6.342   0.278  -0.625  1.00  0.00    -0.047 A 
ATOM      8  C   UNL     1       5.808   1.496  -0.967  1.00  0.00     0.004 A 
ATOM      9  C   UNL     1       6.119  -0.172   0.653  1.00  0.00     0.004 A 
ATOM     10  C   UNL     1       5.073   2.264  -0.095  1.00  0.00     0.000 A 
ATOM     11  C   UNL     1       5.389   0.571   1.552  1.00  0.00     0.000 A 
ATOM     12  C   UNL     1       4.853   1.805   1.186  1.00  0.00     0.000 A 
ENDBRANCH   6   7
ENDBRANCH   1   6
TORSDOF 4
ENDMDL
MODEL 5
REMARK VINA RESULT:      -6.5      1.893      2.853
REMARK SMILES O=C(O)CCc1ccccc1
REMARK SMILES IDX 4 1 2 2 1 3 3 4 5 6 6 7 7 8 11 9 8 10 10 11 9 12
REMARK H PARENT 3 5
REMARK Flexibility Score: inf
ROOT
ATOM      1  C   UNL     1       8.279  -1.551   1.019  1.00  0.00     0.127 C 
ENDROOT
BRANCH   1   2
ATOM      2  C   UNL     1       8.531  -2.825   0.296  1.00  0.00     0.303 C 
ATOM      3  O   UNL     1       9.138  -3.806   0.794  1.00  0.00    -0.252 OA
BRANCH   2   4
ATOM      4  O   UNL     1       8.075  -2.958  -1.007  1.00  0.00    -0.481 OA
ATOM      5  H   UNL     1       7.060  -2.999  -1.125  1.00  0.00     0.296 HD
ENDBRANCH   2   4
ENDBRANCH   1   2
BRANCH   1   6
ATOM      6  C   UNL     1       6.806  -1.398   1.263  1.00  0.00     0.047 C 
BRANCH   6   7
ATOM      7  C   UNL     1       6.232  -0.162   0.738  1.00  0.00    -0.047 A 
ATOM      8  C   UNL     1       6.431   0.288  -0.545  1.00  0.00     0.004 A 
ATOM      9  C   UNL     1       5.447   0.606   1.561  1.00  0.00     0.004 A 
ATOM     10  C   UNL     1       5.883   1.454  -1.023  1.00  0.00     0.000 A 
ATOM     11  C   UNL     1       4.884   1.780   1.115  1.00  0.00     0.000 A 
ATOM     12  C   UNL     1       5.096   2.220  -0.190  1.00  0.00     0.000 A 
ENDBRANCH   6   7
ENDBRANCH   1   6
TORSDOF 4
ENDMDL
