@<TRIPOS>MOLECULE
/home/cewinharhar/GITHUB/reincatalyze/data/processed/docking_pred/2023-Apr-25-2140_maxeplen10_maxtrainstep200_exh16_gamma099_lrac3e-4_lrcr1e-3/d27e6afc186b75c76b7fe435f4b9560b42cd14a2_ligand_2.pdbqt
 12 12 0 0 0
SMALL
GASTEIGER

@<TRIPOS>ATOM
      1  C          8.2790   -1.5510    1.0190 C.3     1  UNL1        0.1270
      2  C          8.5310   -2.8250    0.2960 C.2     1  UNL1        0.3030
      3  O          9.1380   -3.8060    0.7940 O.2     1  UNL1       -0.2520
      4  O          8.0750   -2.9580   -1.0070 O.3     1  UNL1       -0.4810
      5  H          7.0600   -2.9990   -1.1250 H       1  UNL1        0.2960
      6  C          6.8060   -1.3980    1.2630 C.3     1  UNL1        0.0470
      7  C          6.2320   -0.1620    0.7380 C.2     1  UNL1       -0.0470
      8  C          6.4310    0.2880   -0.5450 C.2     1  UNL1        0.0040
      9  C          5.4470    0.6060    1.5610 C.2     1  UNL1        0.0040
     10  C          5.8830    1.4540   -1.0230 C.2     1  UNL1        0.0000
     11  C          4.8840    1.7800    1.1150 C.2     1  UNL1        0.0000
     12  C          5.0960    2.2200   -0.1900 C.2     1  UNL1        0.0000
@<TRIPOS>BOND
     1     5     4    1
     2    10     8    1
     3    10    12    2
     4     4     2    1
     5     8     7    2
     6    12    11    1
     7     2     3    2
     8     2     1    1
     9     7     6    1
    10     7     9    1
    11     1     6    1
    12    11     9    2
