@<TRIPOS>MOLECULE
/home/cewinharhar/GITHUB/reincatalyze/data/processed/docking_pred/2023-Apr-25-2140_maxeplen10_maxtrainstep200_exh16_gamma099_lrac3e-4_lrcr1e-3/d27e6afc186b75c76b7fe435f4b9560b42cd14a2_ligand_2.pdbqt
 12 12 0 0 0
SMALL
GASTEIGER

@<TRIPOS>ATOM
      1  C          8.2720    0.1610   -2.1940 C.3     1  UNL1        0.1270
      2  C          9.3750    0.3320   -1.2130 C.2     1  UNL1        0.3030
      3  O          9.5030   -0.3630   -0.1730 O.2     1  UNL1       -0.2520
      4  O         10.3310    1.3100   -1.4430 O.3     1  UNL1       -0.4810
      5  H         11.2960    0.9830   -1.5260 H       1  UNL1        0.2960
      6  C          7.1260   -0.5510   -1.5380 C.3     1  UNL1        0.0470
      7  C          6.3420    0.2780   -0.6250 C.2     1  UNL1       -0.0470
      8  C          5.8080    1.4960   -0.9670 C.2     1  UNL1        0.0040
      9  C          6.1190   -0.1720    0.6530 C.2     1  UNL1        0.0040
     10  C          5.0730    2.2640   -0.0950 C.2     1  UNL1        0.0000
     11  C          5.3890    0.5710    1.5520 C.2     1  UNL1        0.0000
     12  C          4.8530    1.8050    1.1860 C.2     1  UNL1        0.0000
@<TRIPOS>BOND
     1     1     6    1
     2     1     2    1
     3     6     7    1
     4     5     4    1
     5     4     2    1
     6     2     3    2
     7     8     7    2
     8     8    10    1
     9     7     9    1
    10    10    12    2
    11     9    11    2
    12    12    11    1
