@<TRIPOS>MOLECULE
/home/cewinharhar/GITHUB/reincatalyze/data/processed/docking_pred/2023-Apr-25-2140_maxeplen10_maxtrainstep200_exh16_gamma099_lrac3e-4_lrcr1e-3/d27e6afc186b75c76b7fe435f4b9560b42cd14a2_ligand_2.pdbqt
 12 12 0 0 0
SMALL
GASTEIGER

@<TRIPOS>ATOM
      1  C          5.0190    1.7490    0.6950 C.3     1  UNL1        0.1270
      2  C          4.5940    1.0260    1.9220 C.2     1  UNL1        0.3030
      3  O          5.2910    0.1510    2.4970 O.2     1  UNL1       -0.2520
      4  O          3.3600    1.3210    2.4810 O.3     1  UNL1       -0.4810
      5  H          3.3710    1.9580    3.2820 H       1  UNL1        0.2960
      6  C          6.5140    1.8680    0.6770 C.3     1  UNL1        0.0470
      7  C          7.1700    1.0870   -0.3680 C.2     1  UNL1       -0.0470
      8  C          8.5100    1.1700   -0.6580 C.2     1  UNL1        0.0040
      9  C          6.4170    0.2150   -1.1150 C.2     1  UNL1        0.0040
     10  C          9.1110    0.4270   -1.6460 C.2     1  UNL1        0.0000
     11  C          6.9850   -0.5430   -2.1120 C.2     1  UNL1        0.0000
     12  C          8.3480   -0.4460   -2.3910 C.2     1  UNL1        0.0000
@<TRIPOS>BOND
     1    12    11    2
     2    12    10    1
     3    11     9    1
     4    10     8    2
     5     9     7    2
     6     8     7    1
     7     7     6    1
     8     6     1    1
     9     1     2    1
    10     2     4    1
    11     2     3    2
    12     4     5    1
