@<TRIPOS>MOLECULE
/home/cewinharhar/GITHUB/reincatalyze/data/processed/docking_pred/2023-Apr-25-2140_maxeplen10_maxtrainstep200_exh16_gamma099_lrac3e-4_lrcr1e-3/d27e6afc186b75c76b7fe435f4b9560b42cd14a2_ligand_2.pdbqt
 12 12 0 0 0
SMALL
GASTEIGER

@<TRIPOS>ATOM
      1  C          8.4090   -0.4980   -2.3030 C.3     1  UNL1        0.1270
      2  C          8.4860   -1.8470   -2.9240 C.2     1  UNL1        0.3030
      3  O          9.5530   -2.4980   -3.0530 O.2     1  UNL1       -0.2520
      4  O          7.3220   -2.4370   -3.3920 O.3     1  UNL1       -0.4810
      5  H          7.4420   -3.2970   -3.9320 H       1  UNL1        0.2960
      6  C          6.9710   -0.0810   -2.1940 C.3     1  UNL1        0.0470
      7  C          6.4800    0.0390   -0.8230 C.2     1  UNL1       -0.0470
      8  C          6.5870   -0.9560    0.1170 C.2     1  UNL1        0.0040
      9  C          5.8730    1.2080   -0.4370 C.2     1  UNL1        0.0040
     10  C          6.1190   -0.8270    1.4030 C.2     1  UNL1        0.0000
     11  C          5.3930    1.3720    0.8420 C.2     1  UNL1        0.0000
     12  C          5.5110    0.3500    1.7830 C.2     1  UNL1        0.0000
@<TRIPOS>BOND
     1     5     4    1
     2     4     2    1
     3     3     2    2
     4     2     1    1
     5     1     6    1
     6     6     7    1
     7     7     9    2
     8     7     8    1
     9     9    11    1
    10     8    10    2
    11    11    12    2
    12    10    12    1
