@<TRIPOS>MOLECULE
/home/cewinharhar/GITHUB/reincatalyze/data/processed/docking_pred/2023-Apr-25-2140_maxeplen10_maxtrainstep200_exh16_gamma099_lrac3e-4_lrcr1e-3/d27e6afc186b75c76b7fe435f4b9560b42cd14a2_ligand_2.pdbqt
 12 12 0 0 0
SMALL
GASTEIGER

@<TRIPOS>ATOM
      1  C          8.4470   -0.5790   -2.1980 C.3     1  UNL1        0.1270
      2  C          8.5160   -1.8770   -2.9180 C.2     1  UNL1        0.3030
      3  O          9.5810   -2.5170   -3.1090 O.2     1  UNL1       -0.2520
      4  O          7.3460   -2.4330   -3.4130 O.3     1  UNL1       -0.4810
      5  H          6.6490   -2.7060   -2.7160 H       1  UNL1        0.2960
      6  C          7.0230   -0.1070   -2.1550 C.3     1  UNL1        0.0470
      7  C          6.4840    0.0660   -0.8080 C.2     1  UNL1       -0.0470
      8  C          5.8560    1.2080   -0.3770 C.2     1  UNL1        0.0040
      9  C          6.6070   -0.9640    0.0910 C.2     1  UNL1        0.0040
     10  C          5.3550    1.3540    0.8950 C.2     1  UNL1        0.0000
     11  C          6.1180   -0.8530    1.3720 C.2     1  UNL1        0.0000
     12  C          5.4820    0.3150    1.7920 C.2     1  UNL1        0.0000
@<TRIPOS>BOND
     1     4     2    1
     2     4     5    1
     3     3     2    2
     4     2     1    1
     5     1     6    1
     6     6     7    1
     7     7     8    2
     8     7     9    1
     9     8    10    1
    10     9    11    2
    11    10    12    2
    12    11    12    1
