MODEL 1
REMARK VINA RESULT:      -7.4      0.000      0.000
REMARK SMILES O=C(O)CCc1ccccc1
REMARK SMILES IDX 4 1 2 2 1 3 3 4 5 6 6 7 7 8 11 9 8 10 10 11 9 12
REMARK H PARENT 3 5
REMARK Flexibility Score: inf
ROOT
ATOM      1  C   UNL     1       8.450  -0.578  -2.219  1.00  0.00     0.127 C 
ENDROOT
BRANCH   1   2
ATOM      2  C   UNL     1       8.520  -1.888  -2.917  1.00  0.00     0.303 C 
ATOM      3  O   UNL     1       9.585  -2.531  -3.096  1.00  0.00    -0.252 OA
BRANCH   2   4
ATOM      4  O   UNL     1       7.351  -2.451  -3.407  1.00  0.00    -0.481 OA
ATOM      5  H   UNL     1       7.402  -2.840  -4.351  1.00  0.00     0.296 HD
ENDBRANCH   2   4
ENDBRANCH   1   2
BRANCH   1   6
ATOM      6  C   UNL     1       7.024  -0.111  -2.176  1.00  0.00     0.047 C 
BRANCH   6   7
ATOM      7  C   UNL     1       6.488   0.068  -0.829  1.00  0.00    -0.047 A 
ATOM      8  C   UNL     1       5.857   1.211  -0.404  1.00  0.00     0.004 A 
ATOM      9  C   UNL     1       6.615  -0.956   0.076  1.00  0.00     0.004 A 
ATOM     10  C   UNL     1       5.358   1.363   0.868  1.00  0.00     0.000 A 
ATOM     11  C   UNL     1       6.128  -0.838   1.357  1.00  0.00     0.000 A 
ATOM     12  C   UNL     1       5.489   0.330   1.771  1.00  0.00     0.000 A 
ENDBRANCH   6   7
ENDBRANCH   1   6
TORSDOF 4
ENDMDL
MODEL 2
REMARK VINA RESULT:      -7.3      0.047      1.426
REMARK SMILES O=C(O)CCc1ccccc1
REMARK SMILES IDX 4 1 2 2 1 3 3 4 5 6 6 7 7 8 11 9 8 10 10 11 9 12
REMARK H PARENT 3 5
REMARK Flexibility Score: inf
ROOT
ATOM      1  C   UNL     1       8.436  -0.523  -2.287  1.00  0.00     0.127 C 
ENDROOT
BRANCH   1   2
ATOM      2  C   UNL     1       8.510  -1.862  -2.929  1.00  0.00     0.303 C 
ATOM      3  O   UNL     1       9.574  -2.518  -3.062  1.00  0.00    -0.252 OA
BRANCH   2   4
ATOM      4  O   UNL     1       7.345  -2.437  -3.415  1.00  0.00    -0.481 OA
ATOM      5  H   UNL     1       7.436  -2.967  -4.285  1.00  0.00     0.296 HD
ENDBRANCH   2   4
ENDBRANCH   1   2
BRANCH   1   6
ATOM      6  C   UNL     1       7.002  -0.093  -2.193  1.00  0.00     0.047 C 
BRANCH   6   7
ATOM      7  C   UNL     1       6.496   0.029  -0.828  1.00  0.00    -0.047 A 
ATOM      8  C   UNL     1       6.615  -0.956   0.122  1.00  0.00     0.004 A 
ATOM      9  C   UNL     1       5.861   1.188  -0.458  1.00  0.00     0.004 A 
ATOM     10  C   UNL     1       6.133  -0.825   1.402  1.00  0.00     0.000 A 
ATOM     11  C   UNL     1       5.365   1.353   0.815  1.00  0.00     0.000 A 
ATOM     12  C   UNL     1       5.497   0.342   1.766  1.00  0.00     0.000 A 
ENDBRANCH   6   7
ENDBRANCH   1   6
TORSDOF 4
ENDMDL
MODEL 3
REMARK VINA RESULT:      -6.8      3.369      5.062
REMARK SMILES O=C(O)CCc1ccccc1
REMARK SMILES IDX 4 1 2 2 1 3 3 4 5 6 6 7 7 8 11 9 8 10 10 11 9 12
REMARK H PARENT 3 5
REMARK Flexibility Score: inf
ROOT
ATOM      1  C   UNL     1       4.999   1.794   0.666  1.00  0.00     0.127 C 
ENDROOT
BRANCH   1   2
ATOM      2  C   UNL     1       4.529   1.102   1.895  1.00  0.00     0.303 C 
ATOM      3  O   UNL     1       5.184   0.211   2.492  1.00  0.00    -0.252 OA
BRANCH   2   4
ATOM      4  O   UNL     1       3.297   1.448   2.429  1.00  0.00    -0.481 OA
ATOM      5  H   UNL     1       2.605   1.806   1.767  1.00  0.00     0.296 HD
ENDBRANCH   2   4
ENDBRANCH   1   2
BRANCH   1   6
ATOM      6  C   UNL     1       6.497   1.876   0.681  1.00  0.00     0.047 C 
BRANCH   6   7
ATOM      7  C   UNL     1       7.155   1.097  -0.365  1.00  0.00    -0.047 A 
ATOM      8  C   UNL     1       8.499   1.166  -0.639  1.00  0.00     0.004 A 
ATOM      9  C   UNL     1       6.400   0.241  -1.128  1.00  0.00     0.004 A 
ATOM     10  C   UNL     1       9.102   0.426  -1.627  1.00  0.00     0.000 A 
ATOM     11  C   UNL     1       6.970  -0.515  -2.126  1.00  0.00     0.000 A 
ATOM     12  C   UNL     1       8.337  -0.431  -2.389  1.00  0.00     0.000 A 
ENDBRANCH   6   7
ENDBRANCH   1   6
TORSDOF 4
ENDMDL
MODEL 4
REMARK VINA RESULT:      -6.7      1.942      2.248
REMARK SMILES O=C(O)CCc1ccccc1
REMARK SMILES IDX 4 1 2 2 1 3 3 4 5 6 6 7 7 8 11 9 8 10 10 11 9 12
REMARK H PARENT 3 5
REMARK Flexibility Score: inf
ROOT
ATOM      1  C   UNL     1       8.210   0.257  -2.148  1.00  0.00     0.127 C 
ENDROOT
BRANCH   1   2
ATOM      2  C   UNL     1       9.360   0.368  -1.214  1.00  0.00     0.303 C 
ATOM      3  O   UNL     1       9.514  -0.360  -0.202  1.00  0.00    -0.252 OA
BRANCH   2   4
ATOM      4  O   UNL     1      10.333   1.326  -1.459  1.00  0.00    -0.481 OA
ATOM      5  H   UNL     1      10.995   1.112  -2.208  1.00  0.00     0.296 HD
ENDBRANCH   2   4
ENDBRANCH   1   2
BRANCH   1   6
ATOM      6  C   UNL     1       7.124  -0.556  -1.508  1.00  0.00     0.047 C 
BRANCH   6   7
ATOM      7  C   UNL     1       6.354   0.157  -0.492  1.00  0.00    -0.047 A 
ATOM      8  C   UNL     1       5.772   1.384  -0.696  1.00  0.00     0.004 A 
ATOM      9  C   UNL     1       6.194  -0.418   0.744  1.00  0.00     0.004 A 
ATOM     10  C   UNL     1       5.050   2.043   0.271  1.00  0.00     0.000 A 
ATOM     11  C   UNL     1       5.479   0.213   1.736  1.00  0.00     0.000 A 
ATOM     12  C   UNL     1       4.895   1.458   1.510  1.00  0.00     0.000 A 
ENDBRANCH   6   7
ENDBRANCH   1   6
TORSDOF 4
ENDMDL
MODEL 5
REMARK VINA RESULT:      -6.6      3.711      4.973
REMARK SMILES O=C(O)CCc1ccccc1
REMARK SMILES IDX 4 1 2 2 1 3 3 4 5 6 6 7 7 8 11 9 8 10 10 11 9 12
REMARK H PARENT 3 5
REMARK Flexibility Score: inf
ROOT
ATOM      1  C   UNL     1       5.283   2.932   0.024  1.00  0.00     0.127 C 
ENDROOT
BRANCH   1   2
ATOM      2  C   UNL     1       6.164   3.874   0.763  1.00  0.00     0.303 C 
ATOM      3  O   UNL     1       6.846   4.775   0.212  1.00  0.00    -0.252 OA
BRANCH   2   4
ATOM      4  O   UNL     1       6.250   3.769   2.143  1.00  0.00    -0.481 OA
ATOM      5  H   UNL     1       5.702   3.019   2.571  1.00  0.00     0.296 HD
ENDBRANCH   2   4
ENDBRANCH   1   2
BRANCH   1   6
ATOM      6  C   UNL     1       5.245   1.616   0.743  1.00  0.00     0.047 C 
BRANCH   6   7
ATOM      7  C   UNL     1       6.038   0.562   0.115  1.00  0.00    -0.047 A 
ATOM      8  C   UNL     1       6.366   0.544  -1.218  1.00  0.00     0.004 A 
ATOM      9  C   UNL     1       6.489  -0.478   0.889  1.00  0.00     0.004 A 
ATOM     10  C   UNL     1       7.114  -0.456  -1.793  1.00  0.00     0.000 A 
ATOM     11  C   UNL     1       7.239  -1.496   0.347  1.00  0.00     0.000 A 
ATOM     12  C   UNL     1       7.563  -1.497  -1.009  1.00  0.00     0.000 A 
ENDBRANCH   6   7
ENDBRANCH   1   6
TORSDOF 4
ENDMDL
