@<TRIPOS>MOLECULE
/home/cewinharhar/GITHUB/reincatalyze/data/processed/docking_pred/2023-Apr-25-2140_maxeplen10_maxtrainstep200_exh16_gamma099_lrac3e-4_lrcr1e-3/d32515ef85c53a65d829162c3cbbbf13c46f52f9_ligand_2.pdbqt
 12 12 0 0 0
SMALL
GASTEIGER

@<TRIPOS>ATOM
      1  C          8.4360   -0.5230   -2.2870 C.3     1  UNL1        0.1270
      2  C          8.5100   -1.8620   -2.9290 C.2     1  UNL1        0.3030
      3  O          9.5740   -2.5180   -3.0620 O.2     1  UNL1       -0.2520
      4  O          7.3450   -2.4370   -3.4150 O.3     1  UNL1       -0.4810
      5  H          7.4360   -2.9670   -4.2850 H       1  UNL1        0.2960
      6  C          7.0020   -0.0930   -2.1930 C.3     1  UNL1        0.0470
      7  C          6.4960    0.0290   -0.8280 C.2     1  UNL1       -0.0470
      8  C          6.6150   -0.9560    0.1220 C.2     1  UNL1        0.0040
      9  C          5.8610    1.1880   -0.4580 C.2     1  UNL1        0.0040
     10  C          6.1330   -0.8250    1.4020 C.2     1  UNL1        0.0000
     11  C          5.3650    1.3530    0.8150 C.2     1  UNL1        0.0000
     12  C          5.4970    0.3420    1.7660 C.2     1  UNL1        0.0000
@<TRIPOS>BOND
     1     5     4    1
     2     4     2    1
     3     3     2    2
     4     2     1    1
     5     1     6    1
     6     6     7    1
     7     7     9    2
     8     7     8    1
     9     9    11    1
    10     8    10    2
    11    11    12    2
    12    10    12    1
