@<TRIPOS>MOLECULE
/home/cewinharhar/GITHUB/reincatalyze/data/processed/docking_pred/2023-Apr-25-2140_maxeplen10_maxtrainstep200_exh16_gamma099_lrac3e-4_lrcr1e-3/d32515ef85c53a65d829162c3cbbbf13c46f52f9_ligand_2.pdbqt
 12 12 0 0 0
SMALL
GASTEIGER

@<TRIPOS>ATOM
      1  C          8.2100    0.2570   -2.1480 C.3     1  UNL1        0.1270
      2  C          9.3600    0.3680   -1.2140 C.2     1  UNL1        0.3030
      3  O          9.5140   -0.3600   -0.2020 O.2     1  UNL1       -0.2520
      4  O         10.3330    1.3260   -1.4590 O.3     1  UNL1       -0.4810
      5  H         10.9950    1.1120   -2.2080 H       1  UNL1        0.2960
      6  C          7.1240   -0.5560   -1.5080 C.3     1  UNL1        0.0470
      7  C          6.3540    0.1570   -0.4920 C.2     1  UNL1       -0.0470
      8  C          5.7720    1.3840   -0.6960 C.2     1  UNL1        0.0040
      9  C          6.1940   -0.4180    0.7440 C.2     1  UNL1        0.0040
     10  C          5.0500    2.0430    0.2710 C.2     1  UNL1        0.0000
     11  C          5.4790    0.2130    1.7360 C.2     1  UNL1        0.0000
     12  C          4.8950    1.4580    1.5100 C.2     1  UNL1        0.0000
@<TRIPOS>BOND
     1     5     4    1
     2     1     6    1
     3     1     2    1
     4     6     7    1
     5     4     2    1
     6     2     3    2
     7     8     7    2
     8     8    10    1
     9     7     9    1
    10    10    12    2
    11     9    11    2
    12    12    11    1
