@<TRIPOS>MOLECULE
/home/cewinharhar/GITHUB/reincatalyze/data/processed/docking_pred/2023-Apr-25-2140_maxeplen10_maxtrainstep200_exh16_gamma099_lrac3e-4_lrcr1e-3/d32515ef85c53a65d829162c3cbbbf13c46f52f9_ligand_2.pdbqt
 12 12 0 0 0
SMALL
GASTEIGER

@<TRIPOS>ATOM
      1  C          5.2830    2.9320    0.0240 C.3     1  UNL1        0.1270
      2  C          6.1640    3.8740    0.7630 C.2     1  UNL1        0.3030
      3  O          6.8460    4.7750    0.2120 O.2     1  UNL1       -0.2520
      4  O          6.2500    3.7690    2.1430 O.3     1  UNL1       -0.4810
      5  H          5.7020    3.0190    2.5710 H       1  UNL1        0.2960
      6  C          5.2450    1.6160    0.7430 C.3     1  UNL1        0.0470
      7  C          6.0380    0.5620    0.1150 C.2     1  UNL1       -0.0470
      8  C          6.3660    0.5440   -1.2180 C.2     1  UNL1        0.0040
      9  C          6.4890   -0.4780    0.8890 C.2     1  UNL1        0.0040
     10  C          7.1140   -0.4560   -1.7930 C.2     1  UNL1        0.0000
     11  C          7.2390   -1.4960    0.3470 C.2     1  UNL1        0.0000
     12  C          7.5630   -1.4970   -1.0090 C.2     1  UNL1        0.0000
@<TRIPOS>BOND
     1    10     8    1
     2    10    12    2
     3     8     7    2
     4    12    11    1
     5     1     6    1
     6     1     2    1
     7     7     6    1
     8     7     9    1
     9     3     2    2
    10    11     9    2
    11     2     4    1
    12     4     5    1
