@<TRIPOS>MOLECULE
/home/cewinharhar/GITHUB/reincatalyze/data/processed/docking_pred/2023-Apr-25-2140_maxeplen10_maxtrainstep200_exh16_gamma099_lrac3e-4_lrcr1e-3/d32515ef85c53a65d829162c3cbbbf13c46f52f9_ligand_2.pdbqt
 12 12 0 0 0
SMALL
GASTEIGER

@<TRIPOS>ATOM
      1  C          4.9990    1.7940    0.6660 C.3     1  UNL1        0.1270
      2  C          4.5290    1.1020    1.8950 C.2     1  UNL1        0.3030
      3  O          5.1840    0.2110    2.4920 O.2     1  UNL1       -0.2520
      4  O          3.2970    1.4480    2.4290 O.3     1  UNL1       -0.4810
      5  H          2.6050    1.8060    1.7670 H       1  UNL1        0.2960
      6  C          6.4970    1.8760    0.6810 C.3     1  UNL1        0.0470
      7  C          7.1550    1.0970   -0.3650 C.2     1  UNL1       -0.0470
      8  C          8.4990    1.1660   -0.6390 C.2     1  UNL1        0.0040
      9  C          6.4000    0.2410   -1.1280 C.2     1  UNL1        0.0040
     10  C          9.1020    0.4260   -1.6270 C.2     1  UNL1        0.0000
     11  C          6.9700   -0.5150   -2.1260 C.2     1  UNL1        0.0000
     12  C          8.3370   -0.4310   -2.3890 C.2     1  UNL1        0.0000
@<TRIPOS>BOND
     1    12    11    2
     2    12    10    1
     3    11     9    1
     4    10     8    2
     5     9     7    2
     6     8     7    1
     7     7     6    1
     8     1     6    1
     9     1     2    1
    10     5     4    1
    11     2     4    1
    12     2     3    2
