@<TRIPOS>MOLECULE
/home/cewinharhar/GITHUB/reincatalyze/data/processed/docking_pred/2023-Apr-25-2140_maxeplen10_maxtrainstep200_exh16_gamma099_lrac3e-4_lrcr1e-3/d475abeaf77d1f7cad9c775310647ad941a1fd31_ligand_2.pdbqt
 12 12 0 0 0
SMALL
GASTEIGER

@<TRIPOS>ATOM
      1  C          5.0230    1.7530    0.7360 C.3     1  UNL1        0.1270
      2  C          4.6050    1.0010    1.9480 C.2     1  UNL1        0.3030
      3  O          5.3070    0.1180    2.5020 O.2     1  UNL1       -0.2520
      4  O          3.3710    1.2790    2.5160 O.3     1  UNL1       -0.4810
      5  H          2.5680    1.2450    1.8840 H       1  UNL1        0.2960
      6  C          6.5210    1.8280    0.6870 C.3     1  UNL1        0.0470
      7  C          7.1320    1.0360   -0.3780 C.2     1  UNL1       -0.0470
      8  C          6.4450    0.1250   -1.1420 C.2     1  UNL1        0.0040
      9  C          8.4690    1.2000   -0.6420 C.2     1  UNL1        0.0040
     10  C          7.0350   -0.6120   -2.1410 C.2     1  UNL1        0.0000
     11  C          9.0920    0.4780   -1.6330 C.2     1  UNL1        0.0000
     12  C          8.3780   -0.4420   -2.4000 C.2     1  UNL1        0.0000
@<TRIPOS>BOND
     1    12    10    2
     2    12    11    1
     3    10     8    1
     4    11     9    2
     5     8     7    2
     6     9     7    1
     7     7     6    1
     8     6     1    1
     9     1     2    1
    10     5     4    1
    11     2     3    2
    12     2     4    1
