MODEL 1
REMARK VINA RESULT:      -6.9      0.000      0.000
REMARK SMILES O=C(O)CCc1ccccc1
REMARK SMILES IDX 4 1 2 2 1 3 3 4 5 6 6 7 7 8 11 9 8 10 10 11 9 12
REMARK H PARENT 3 5
REMARK Flexibility Score: inf
ROOT
ATOM      1  C   UNL     1       8.502  -0.422  -2.100  1.00  0.00     0.127 C 
ENDROOT
BRANCH   1   2
ATOM      2  C   UNL     1       8.699  -1.737  -2.764  1.00  0.00     0.303 C 
ATOM      3  O   UNL     1       9.804  -2.334  -2.824  1.00  0.00    -0.252 OA
BRANCH   2   4
ATOM      4  O   UNL     1       7.610  -2.358  -3.357  1.00  0.00    -0.481 OA
ATOM      5  H   UNL     1       7.536  -2.260  -4.372  1.00  0.00     0.296 HD
ENDBRANCH   2   4
ENDBRANCH   1   2
BRANCH   1   6
ATOM      6  C   UNL     1       7.042  -0.078  -2.097  1.00  0.00     0.047 C 
BRANCH   6   7
ATOM      7  C   UNL     1       6.468   0.109  -0.766  1.00  0.00    -0.047 A 
ATOM      8  C   UNL     1       5.816   1.250  -0.369  1.00  0.00     0.004 A 
ATOM      9  C   UNL     1       6.580  -0.906   0.152  1.00  0.00     0.004 A 
ATOM     10  C   UNL     1       5.282   1.409   0.888  1.00  0.00     0.000 A 
ATOM     11  C   UNL     1       6.059  -0.780   1.418  1.00  0.00     0.000 A 
ATOM     12  C   UNL     1       5.399   0.386   1.804  1.00  0.00     0.000 A 
ENDBRANCH   6   7
ENDBRANCH   1   6
TORSDOF 4
ENDMDL
MODEL 2
REMARK VINA RESULT:      -6.8      0.256      1.732
REMARK SMILES O=C(O)CCc1ccccc1
REMARK SMILES IDX 4 1 2 2 1 3 3 4 5 6 6 7 7 8 11 9 8 10 10 11 9 12
REMARK H PARENT 3 5
REMARK Flexibility Score: inf
ROOT
ATOM      1  C   UNL     1       8.630  -0.532  -2.046  1.00  0.00     0.127 C 
ENDROOT
BRANCH   1   2
ATOM      2  C   UNL     1       8.814  -1.908  -2.578  1.00  0.00     0.303 C 
ATOM      3  O   UNL     1       7.866  -2.669  -2.896  1.00  0.00    -0.252 OA
BRANCH   2   4
ATOM      4  O   UNL     1      10.102  -2.398  -2.739  1.00  0.00    -0.481 OA
ATOM      5  H   UNL     1      10.798  -1.728  -3.074  1.00  0.00     0.296 HD
ENDBRANCH   2   4
ENDBRANCH   1   2
BRANCH   1   6
ATOM      6  C   UNL     1       7.171  -0.183  -2.059  1.00  0.00     0.047 C 
BRANCH   6   7
ATOM      7  C   UNL     1       6.574  -0.035  -0.734  1.00  0.00    -0.047 A 
ATOM      8  C   UNL     1       6.610  -1.009   0.234  1.00  0.00     0.004 A 
ATOM      9  C   UNL     1       5.936   1.140  -0.422  1.00  0.00     0.004 A 
ATOM     10  C   UNL     1       6.043  -0.853   1.476  1.00  0.00     0.000 A 
ATOM     11  C   UNL     1       5.357   1.330   0.811  1.00  0.00     0.000 A 
ATOM     12  C   UNL     1       5.404   0.330   1.781  1.00  0.00     0.000 A 
ENDBRANCH   6   7
ENDBRANCH   1   6
TORSDOF 4
ENDMDL
MODEL 3
REMARK VINA RESULT:      -6.6      1.428      2.281
REMARK SMILES O=C(O)CCc1ccccc1
REMARK SMILES IDX 4 1 2 2 1 3 3 4 5 6 6 7 7 8 11 9 8 10 10 11 9 12
REMARK H PARENT 3 5
REMARK Flexibility Score: inf
ROOT
ATOM      1  C   UNL     1       8.340   0.297  -2.190  1.00  0.00     0.127 C 
ENDROOT
BRANCH   1   2
ATOM      2  C   UNL     1       9.551  -0.066  -1.410  1.00  0.00     0.303 C 
ATOM      3  O   UNL     1       9.806  -1.231  -1.012  1.00  0.00    -0.252 OA
BRANCH   2   4
ATOM      4  O   UNL     1      10.467   0.927  -1.093  1.00  0.00    -0.481 OA
ATOM      5  H   UNL     1      11.274   1.007  -1.716  1.00  0.00     0.296 HD
ENDBRANCH   2   4
ENDBRANCH   1   2
BRANCH   1   6
ATOM      6  C   UNL     1       7.198  -0.587  -1.780  1.00  0.00     0.047 C 
BRANCH   6   7
ATOM      7  C   UNL     1       6.521  -0.169  -0.555  1.00  0.00    -0.047 A 
ATOM      8  C   UNL     1       6.432  -0.947   0.573  1.00  0.00     0.004 A 
ATOM      9  C   UNL     1       5.932   1.071  -0.514  1.00  0.00     0.004 A 
ATOM     10  C   UNL     1       5.791  -0.537   1.718  1.00  0.00     0.000 A 
ATOM     11  C   UNL     1       5.281   1.512   0.615  1.00  0.00     0.000 A 
ATOM     12  C   UNL     1       5.202   0.709   1.751  1.00  0.00     0.000 A 
ENDBRANCH   6   7
ENDBRANCH   1   6
TORSDOF 4
ENDMDL
MODEL 4
REMARK VINA RESULT:      -6.6      3.338      5.039
REMARK SMILES O=C(O)CCc1ccccc1
REMARK SMILES IDX 4 1 2 2 1 3 3 4 5 6 6 7 7 8 11 9 8 10 10 11 9 12
REMARK H PARENT 3 5
REMARK Flexibility Score: inf
ROOT
ATOM      1  C   UNL     1       5.023   1.753   0.736  1.00  0.00     0.127 C 
ENDROOT
BRANCH   1   2
ATOM      2  C   UNL     1       4.605   1.001   1.948  1.00  0.00     0.303 C 
ATOM      3  O   UNL     1       5.307   0.118   2.502  1.00  0.00    -0.252 OA
BRANCH   2   4
ATOM      4  O   UNL     1       3.371   1.279   2.516  1.00  0.00    -0.481 OA
ATOM      5  H   UNL     1       2.568   1.245   1.884  1.00  0.00     0.296 HD
ENDBRANCH   2   4
ENDBRANCH   1   2
BRANCH   1   6
ATOM      6  C   UNL     1       6.521   1.828   0.687  1.00  0.00     0.047 C 
BRANCH   6   7
ATOM      7  C   UNL     1       7.132   1.036  -0.378  1.00  0.00    -0.047 A 
ATOM      8  C   UNL     1       6.445   0.125  -1.142  1.00  0.00     0.004 A 
ATOM      9  C   UNL     1       8.469   1.200  -0.642  1.00  0.00     0.004 A 
ATOM     10  C   UNL     1       7.035  -0.612  -2.141  1.00  0.00     0.000 A 
ATOM     11  C   UNL     1       9.092   0.478  -1.633  1.00  0.00     0.000 A 
ATOM     12  C   UNL     1       8.378  -0.442  -2.400  1.00  0.00     0.000 A 
ENDBRANCH   6   7
ENDBRANCH   1   6
TORSDOF 4
ENDMDL
MODEL 5
REMARK VINA RESULT:      -6.5      3.599      5.033
REMARK SMILES O=C(O)CCc1ccccc1
REMARK SMILES IDX 4 1 2 2 1 3 3 4 5 6 6 7 7 8 11 9 8 10 10 11 9 12
REMARK H PARENT 3 5
REMARK Flexibility Score: inf
ROOT
ATOM      1  C   UNL     1       5.727   1.338  -0.470  1.00  0.00     0.127 C 
ENDROOT
BRANCH   1   2
ATOM      2  C   UNL     1       5.215   2.246   0.590  1.00  0.00     0.303 C 
ATOM      3  O   UNL     1       5.439   3.482   0.623  1.00  0.00    -0.252 OA
BRANCH   2   4
ATOM      4  O   UNL     1       4.442   1.714   1.611  1.00  0.00    -0.481 OA
ATOM      5  H   UNL     1       4.931   1.514   2.486  1.00  0.00     0.296 HD
ENDBRANCH   2   4
ENDBRANCH   1   2
BRANCH   1   6
ATOM      6  C   UNL     1       6.313   0.111   0.163  1.00  0.00     0.047 C 
BRANCH   6   7
ATOM      7  C   UNL     1       7.757  -0.030  -0.014  1.00  0.00    -0.047 A 
ATOM      8  C   UNL     1       8.515  -0.983   0.620  1.00  0.00     0.004 A 
ATOM      9  C   UNL     1       8.407   0.834  -0.859  1.00  0.00     0.004 A 
ATOM     10  C   UNL     1       9.873  -1.101   0.441  1.00  0.00     0.000 A 
ATOM     11  C   UNL     1       9.765   0.746  -1.061  1.00  0.00     0.000 A 
ATOM     12  C   UNL     1      10.519  -0.229  -0.409  1.00  0.00     0.000 A 
ENDBRANCH   6   7
ENDBRANCH   1   6
TORSDOF 4
ENDMDL
