@<TRIPOS>MOLECULE
/home/cewinharhar/GITHUB/reincatalyze/data/processed/docking_pred/2023-Apr-25-2140_maxeplen10_maxtrainstep200_exh16_gamma099_lrac3e-4_lrcr1e-3/d475abeaf77d1f7cad9c775310647ad941a1fd31_ligand_2.pdbqt
 12 12 0 0 0
SMALL
GASTEIGER

@<TRIPOS>ATOM
      1  C          8.3400    0.2970   -2.1900 C.3     1  UNL1        0.1270
      2  C          9.5510   -0.0660   -1.4100 C.2     1  UNL1        0.3030
      3  O          9.8060   -1.2310   -1.0120 O.2     1  UNL1       -0.2520
      4  O         10.4670    0.9270   -1.0930 O.3     1  UNL1       -0.4810
      5  H         11.2740    1.0070   -1.7160 H       1  UNL1        0.2960
      6  C          7.1980   -0.5870   -1.7800 C.3     1  UNL1        0.0470
      7  C          6.5210   -0.1690   -0.5550 C.2     1  UNL1       -0.0470
      8  C          6.4320   -0.9470    0.5730 C.2     1  UNL1        0.0040
      9  C          5.9320    1.0710   -0.5140 C.2     1  UNL1        0.0040
     10  C          5.7910   -0.5370    1.7180 C.2     1  UNL1        0.0000
     11  C          5.2810    1.5120    0.6150 C.2     1  UNL1        0.0000
     12  C          5.2020    0.7090    1.7510 C.2     1  UNL1        0.0000
@<TRIPOS>BOND
     1     1     6    1
     2     1     2    1
     3     6     7    1
     4     5     4    1
     5     2     4    1
     6     2     3    2
     7     7     9    2
     8     7     8    1
     9     9    11    1
    10     8    10    2
    11    11    12    2
    12    10    12    1
