@<TRIPOS>MOLECULE
/home/cewinharhar/GITHUB/reincatalyze/data/processed/docking_pred/2023-Apr-25-2140_maxeplen10_maxtrainstep200_exh16_gamma099_lrac3e-4_lrcr1e-3/d475abeaf77d1f7cad9c775310647ad941a1fd31_ligand_2.pdbqt
 12 12 0 0 0
SMALL
GASTEIGER

@<TRIPOS>ATOM
      1  C          5.7270    1.3380   -0.4700 C.3     1  UNL1        0.1270
      2  C          5.2150    2.2460    0.5900 C.2     1  UNL1        0.3030
      3  O          5.4390    3.4820    0.6230 O.2     1  UNL1       -0.2520
      4  O          4.4420    1.7140    1.6110 O.3     1  UNL1       -0.4810
      5  H          4.9310    1.5140    2.4860 H       1  UNL1        0.2960
      6  C          6.3130    0.1110    0.1630 C.3     1  UNL1        0.0470
      7  C          7.7570   -0.0300   -0.0140 C.2     1  UNL1       -0.0470
      8  C          8.5150   -0.9830    0.6200 C.2     1  UNL1        0.0040
      9  C          8.4070    0.8340   -0.8590 C.2     1  UNL1        0.0040
     10  C          9.8730   -1.1010    0.4410 C.2     1  UNL1        0.0000
     11  C          9.7650    0.7460   -1.0610 C.2     1  UNL1        0.0000
     12  C         10.5190   -0.2290   -0.4090 C.2     1  UNL1        0.0000
@<TRIPOS>BOND
     1    11     9    1
     2    11    12    2
     3     9     7    2
     4     1     6    1
     5     1     2    1
     6    12    10    1
     7     7     6    1
     8     7     8    1
     9    10     8    2
    10     2     3    2
    11     2     4    1
    12     4     5    1
