@<TRIPOS>MOLECULE
/home/cewinharhar/GITHUB/reincatalyze/data/processed/docking_pred/2023-Apr-25-2140_maxeplen10_maxtrainstep200_exh16_gamma099_lrac3e-4_lrcr1e-3/d475abeaf77d1f7cad9c775310647ad941a1fd31_ligand_2.pdbqt
 12 12 0 0 0
SMALL
GASTEIGER

@<TRIPOS>ATOM
      1  C          8.5020   -0.4220   -2.1000 C.3     1  UNL1        0.1270
      2  C          8.6990   -1.7370   -2.7640 C.2     1  UNL1        0.3030
      3  O          9.8040   -2.3340   -2.8240 O.2     1  UNL1       -0.2520
      4  O          7.6100   -2.3580   -3.3570 O.3     1  UNL1       -0.4810
      5  H          7.5360   -2.2600   -4.3720 H       1  UNL1        0.2960
      6  C          7.0420   -0.0780   -2.0970 C.3     1  UNL1        0.0470
      7  C          6.4680    0.1090   -0.7660 C.2     1  UNL1       -0.0470
      8  C          5.8160    1.2500   -0.3690 C.2     1  UNL1        0.0040
      9  C          6.5800   -0.9060    0.1520 C.2     1  UNL1        0.0040
     10  C          5.2820    1.4090    0.8880 C.2     1  UNL1        0.0000
     11  C          6.0590   -0.7800    1.4180 C.2     1  UNL1        0.0000
     12  C          5.3990    0.3860    1.8040 C.2     1  UNL1        0.0000
@<TRIPOS>BOND
     1     5     4    1
     2     4     2    1
     3     3     2    2
     4     2     1    1
     5     1     6    1
     6     6     7    1
     7     7     8    2
     8     7     9    1
     9     8    10    1
    10     9    11    2
    11    10    12    2
    12    11    12    1
