@<TRIPOS>MOLECULE
/home/cewinharhar/GITHUB/reincatalyze/data/processed/docking_pred/2023-Apr-25-2140_maxeplen10_maxtrainstep200_exh16_gamma099_lrac3e-4_lrcr1e-3/d6fa7c89c21ca11aa73af88b15ecc664e93337c3_ligand_2.pdbqt
 12 12 0 0 0
SMALL
GASTEIGER

@<TRIPOS>ATOM
      1  C          4.9890    1.7830    0.6760 C.3     1  UNL1        0.1270
      2  C          4.5120    1.0920    1.9030 C.2     1  UNL1        0.3030
      3  O          5.1560    0.1890    2.4940 O.2     1  UNL1       -0.2520
      4  O          3.2850    1.4520    2.4410 O.3     1  UNL1       -0.4810
      5  H          2.6430    1.9360    1.8100 H       1  UNL1        0.2960
      6  C          6.4870    1.8640    0.7000 C.3     1  UNL1        0.0470
      7  C          7.1500    1.0980   -0.3520 C.2     1  UNL1       -0.0470
      8  C          8.4920    1.1800   -0.6280 C.2     1  UNL1        0.0040
      9  C          6.4000    0.2410   -1.1200 C.2     1  UNL1        0.0040
     10  C          9.1000    0.4510   -1.6220 C.2     1  UNL1        0.0000
     11  C          6.9760   -0.5030   -2.1240 C.2     1  UNL1        0.0000
     12  C          8.3410   -0.4060   -2.3880 C.2     1  UNL1        0.0000
@<TRIPOS>BOND
     1    12    11    2
     2    12    10    1
     3    11     9    1
     4    10     8    2
     5     9     7    2
     6     8     7    1
     7     7     6    1
     8     1     6    1
     9     1     2    1
    10     5     4    1
    11     2     4    1
    12     2     3    2
