@<TRIPOS>MOLECULE
/home/cewinharhar/GITHUB/reincatalyze/data/processed/docking_pred/2023-Apr-25-2140_maxeplen10_maxtrainstep200_exh16_gamma099_lrac3e-4_lrcr1e-3/d6fa7c89c21ca11aa73af88b15ecc664e93337c3_ligand_2.pdbqt
 12 12 0 0 0
SMALL
GASTEIGER

@<TRIPOS>ATOM
      1  C          5.4160    2.8580    0.0530 C.3     1  UNL1        0.1270
      2  C          6.2130    3.7990    0.8810 C.2     1  UNL1        0.3030
      3  O          6.2490    3.7710    2.1380 O.2     1  UNL1       -0.2520
      4  O          6.9700    4.7740    0.2480 O.3     1  UNL1       -0.4810
      5  H          7.3640    4.5160   -0.6600 H       1  UNL1        0.2960
      6  C          4.8900    1.7520    0.9200 C.3     1  UNL1        0.0470
      7  C          5.7230    0.5520    0.9420 C.2     1  UNL1       -0.0470
      8  C          6.5050    0.1460   -0.1120 C.2     1  UNL1        0.0040
      9  C          5.7350   -0.2260    2.0720 C.2     1  UNL1        0.0040
     10  C          7.2830   -0.9860   -0.0750 C.2     1  UNL1        0.0000
     11  C          6.5020   -1.3660    2.1430 C.2     1  UNL1        0.0000
     12  C          7.2900   -1.7620    1.0640 C.2     1  UNL1        0.0000
@<TRIPOS>BOND
     1     5     4    1
     2     8    10    1
     3     8     7    2
     4    10    12    2
     5     1     2    1
     6     1     6    1
     7     4     2    1
     8     2     3    2
     9     6     7    1
    10     7     9    1
    11    12    11    1
    12     9    11    2
