@<TRIPOS>MOLECULE
/home/cewinharhar/GITHUB/reincatalyze/data/processed/docking_pred/2023-Apr-25-2140_maxeplen10_maxtrainstep200_exh16_gamma099_lrac3e-4_lrcr1e-3/d6fa7c89c21ca11aa73af88b15ecc664e93337c3_ligand_2.pdbqt
 12 12 0 0 0
SMALL
GASTEIGER

@<TRIPOS>ATOM
      1  C          8.4420   -0.5900   -2.1800 C.3     1  UNL1        0.1270
      2  C          8.5090   -1.8960   -2.8850 C.2     1  UNL1        0.3030
      3  O          9.5710   -2.5440   -3.0610 O.2     1  UNL1       -0.2520
      4  O          7.3390   -2.4490   -3.3840 O.3     1  UNL1       -0.4810
      5  H          7.0180   -2.0830   -4.2830 H       1  UNL1        0.2960
      6  C          7.0180   -0.1180   -2.1340 C.3     1  UNL1        0.0470
      7  C          6.4790    0.0450   -0.7860 C.2     1  UNL1       -0.0470
      8  C          5.8330    1.1770   -0.3530 C.2     1  UNL1        0.0040
      9  C          6.6200   -0.9840    0.1130 C.2     1  UNL1        0.0040
     10  C          5.3320    1.3140    0.9200 C.2     1  UNL1        0.0000
     11  C          6.1310   -0.8800    1.3950 C.2     1  UNL1        0.0000
     12  C          5.4770    0.2770    1.8160 C.2     1  UNL1        0.0000
@<TRIPOS>BOND
     1     5     4    1
     2     4     2    1
     3     3     2    2
     4     2     1    1
     5     1     6    1
     6     6     7    1
     7     7     8    2
     8     7     9    1
     9     8    10    1
    10     9    11    2
    11    10    12    2
    12    11    12    1
