@<TRIPOS>MOLECULE
/home/cewinharhar/GITHUB/reincatalyze/data/processed/docking_pred/2023-Apr-25-2140_maxeplen10_maxtrainstep200_exh16_gamma099_lrac3e-4_lrcr1e-3/d6fa7c89c21ca11aa73af88b15ecc664e93337c3_ligand_2.pdbqt
 12 12 0 0 0
SMALL
GASTEIGER

@<TRIPOS>ATOM
      1  C          8.4450   -0.5790   -2.1940 C.3     1  UNL1        0.1270
      2  C          8.5010   -1.8840   -2.9010 C.2     1  UNL1        0.3030
      3  O          9.5590   -2.5390   -3.0820 O.2     1  UNL1       -0.2520
      4  O          7.3270   -2.4290   -3.3970 O.3     1  UNL1       -0.4810
      5  H          6.4730   -1.8980   -3.2120 H       1  UNL1        0.2960
      6  C          7.0200   -0.1180   -2.1080 C.3     1  UNL1        0.0470
      7  C          6.4980   -0.0190   -0.7470 C.2     1  UNL1       -0.0470
      8  C          6.5830   -1.0290    0.1800 C.2     1  UNL1        0.0040
      9  C          5.8830    1.1440   -0.3560 C.2     1  UNL1        0.0040
     10  C          6.0860   -0.9190    1.4560 C.2     1  UNL1        0.0000
     11  C          5.3730    1.2880    0.9140 C.2     1  UNL1        0.0000
     12  C          5.4700    0.2520    1.8410 C.2     1  UNL1        0.0000
@<TRIPOS>BOND
     1     4     5    1
     2     4     2    1
     3     3     2    2
     4     2     1    1
     5     1     6    1
     6     6     7    1
     7     7     9    2
     8     7     8    1
     9     9    11    1
    10     8    10    2
    11    11    12    2
    12    10    12    1
