@<TRIPOS>MOLECULE
/home/cewinharhar/GITHUB/reincatalyze/data/processed/docking_pred/2023-Apr-25-2140_maxeplen10_maxtrainstep200_exh16_gamma099_lrac3e-4_lrcr1e-3/d6fa7c89c21ca11aa73af88b15ecc664e93337c3_ligand_2.pdbqt
 12 12 0 0 0
SMALL
GASTEIGER

@<TRIPOS>ATOM
      1  C          8.2720    0.1730   -2.2030 C.3     1  UNL1        0.1270
      2  C          9.3820    0.3340   -1.2290 C.2     1  UNL1        0.3030
      3  O          9.5090   -0.3620   -0.1890 O.2     1  UNL1       -0.2520
      4  O         10.3460    1.3030   -1.4640 O.3     1  UNL1       -0.4810
      5  H         10.0590    2.2700   -1.2990 H       1  UNL1        0.2960
      6  C          7.1330   -0.5510   -1.5480 C.3     1  UNL1        0.0470
      7  C          6.3550    0.2630   -0.6170 C.2     1  UNL1       -0.0470
      8  C          5.8110    1.4820   -0.9390 C.2     1  UNL1        0.0040
      9  C          6.1460   -0.2040    0.6570 C.2     1  UNL1        0.0040
     10  C          5.0810    2.2360   -0.0510 C.2     1  UNL1        0.0000
     11  C          5.4210    0.5250    1.5720 C.2     1  UNL1        0.0000
     12  C          4.8770    1.7600    1.2260 C.2     1  UNL1        0.0000
@<TRIPOS>BOND
     1     1     6    1
     2     1     2    1
     3     6     7    1
     4     4     5    1
     5     4     2    1
     6     2     3    2
     7     8     7    2
     8     8    10    1
     9     7     9    1
    10    10    12    2
    11     9    11    2
    12    12    11    1
