@<TRIPOS>MOLECULE
/home/cewinharhar/GITHUB/reincatalyze/data/processed/docking_pred/2023-Apr-25-2140_maxeplen10_maxtrainstep200_exh16_gamma099_lrac3e-4_lrcr1e-3/d7d9c72b52c2e0a01b4806f6bcc2a503b8c9528b_ligand_2.pdbqt
 12 12 0 0 0
SMALL
GASTEIGER

@<TRIPOS>ATOM
      1  C          5.3980    2.8510    0.0760 C.3     1  UNL1        0.1270
      2  C          6.2160    3.7750    0.9050 C.2     1  UNL1        0.3030
      3  O          6.2910    3.7130    2.1580 O.2     1  UNL1       -0.2520
      4  O          6.9470    4.7710    0.2750 O.3     1  UNL1       -0.4810
      5  H          6.4030    5.5320   -0.1400 H       1  UNL1        0.2960
      6  C          4.8340    1.7670    0.9470 C.3     1  UNL1        0.0470
      7  C          5.6200    0.5360    0.9630 C.2     1  UNL1       -0.0470
      8  C          5.7860   -0.2500    2.0770 C.2     1  UNL1        0.0040
      9  C          6.2370    0.1280   -0.1930 C.2     1  UNL1        0.0040
     10  C          6.5290   -1.4060    2.0750 C.2     1  UNL1        0.0000
     11  C          6.9900   -1.0230   -0.2310 C.2     1  UNL1        0.0000
     12  C          7.1460   -1.8090    0.9100 C.2     1  UNL1        0.0000
@<TRIPOS>BOND
     1    11     9    1
     2    11    12    2
     3     9     7    2
     4     5     4    1
     5     1     2    1
     6     1     6    1
     7     4     2    1
     8     2     3    2
     9    12    10    1
    10     6     7    1
    11     7     8    1
    12    10     8    2
