@<TRIPOS>MOLECULE
/home/cewinharhar/GITHUB/reincatalyze/data/processed/docking_pred/2023-Apr-25-2140_maxeplen10_maxtrainstep200_exh16_gamma099_lrac3e-4_lrcr1e-3/d7d9c72b52c2e0a01b4806f6bcc2a503b8c9528b_ligand_2.pdbqt
 12 12 0 0 0
SMALL
GASTEIGER

@<TRIPOS>ATOM
      1  C          4.9820    1.6640    0.6580 C.3     1  UNL1        0.1270
      2  C          4.5670    0.9930    1.9180 C.2     1  UNL1        0.3030
      3  O          5.2590    0.1280    2.5120 O.2     1  UNL1       -0.2520
      4  O          3.3470    1.3300    2.4860 O.3     1  UNL1       -0.4810
      5  H          3.3890    1.9120    3.3250 H       1  UNL1        0.2960
      6  C          6.4750    1.8190    0.6430 C.3     1  UNL1        0.0470
      7  C          7.1530    1.0380   -0.3880 C.2     1  UNL1       -0.0470
      8  C          8.4890    1.1580   -0.6830 C.2     1  UNL1        0.0040
      9  C          6.4270    0.1270   -1.1140 C.2     1  UNL1        0.0040
     10  C          9.1110    0.4150   -1.6570 C.2     1  UNL1        0.0000
     11  C          7.0170   -0.6340   -2.0960 C.2     1  UNL1        0.0000
     12  C          8.3750   -0.4980   -2.3820 C.2     1  UNL1        0.0000
@<TRIPOS>BOND
     1    12    11    2
     2    12    10    1
     3    11     9    1
     4    10     8    2
     5     9     7    2
     6     8     7    1
     7     7     6    1
     8     6     1    1
     9     1     2    1
    10     2     4    1
    11     2     3    2
    12     4     5    1
