@<TRIPOS>MOLECULE
/home/cewinharhar/GITHUB/reincatalyze/data/processed/docking_pred/2023-Apr-25-2140_maxeplen10_maxtrainstep200_exh16_gamma099_lrac3e-4_lrcr1e-3/d7d9c72b52c2e0a01b4806f6bcc2a503b8c9528b_ligand_2.pdbqt
 12 12 0 0 0
SMALL
GASTEIGER

@<TRIPOS>ATOM
      1  C          4.9670    1.7910    0.6690 C.3     1  UNL1        0.1270
      2  C          4.4930    1.0900    1.8910 C.2     1  UNL1        0.3030
      3  O          5.1340    0.1760    2.4680 O.2     1  UNL1       -0.2520
      4  O          3.2740    1.4540    2.4420 O.3     1  UNL1       -0.4810
      5  H          2.5520    1.7480    1.7800 H       1  UNL1        0.2960
      6  C          6.4670    1.8330    0.6670 C.3     1  UNL1        0.0470
      7  C          7.0930    1.0210   -0.3740 C.2     1  UNL1       -0.0470
      8  C          6.4300    0.0580   -1.0940 C.2     1  UNL1        0.0040
      9  C          8.4210    1.2200   -0.6590 C.2     1  UNL1        0.0040
     10  C          7.0350   -0.6970   -2.0700 C.2     1  UNL1        0.0000
     11  C          9.0580    0.4810   -1.6290 C.2     1  UNL1        0.0000
     12  C          8.3680   -0.4920   -2.3510 C.2     1  UNL1        0.0000
@<TRIPOS>BOND
     1    12    10    2
     2    12    11    1
     3    10     8    1
     4    11     9    2
     5     8     7    2
     6     9     7    1
     7     7     6    1
     8     6     1    1
     9     1     2    1
    10     5     4    1
    11     2     4    1
    12     2     3    2
