@<TRIPOS>MOLECULE
/home/cewinharhar/GITHUB/reincatalyze/data/processed/docking_pred/2023-Apr-25-2140_maxeplen10_maxtrainstep200_exh16_gamma099_lrac3e-4_lrcr1e-3/d7d9c72b52c2e0a01b4806f6bcc2a503b8c9528b_ligand_2.pdbqt
 12 12 0 0 0
SMALL
GASTEIGER

@<TRIPOS>ATOM
      1  C          8.4700   -0.6200   -2.1420 C.3     1  UNL1        0.1270
      2  C          8.5270   -1.9040   -2.8880 C.2     1  UNL1        0.3030
      3  O          9.5850   -2.5530   -3.0860 O.2     1  UNL1       -0.2520
      4  O          7.3530   -2.4330   -3.4020 O.3     1  UNL1       -0.4810
      5  H          6.5670   -2.4960   -2.7520 H       1  UNL1        0.2960
      6  C          7.0540   -0.1230   -2.1100 C.3     1  UNL1        0.0470
      7  C          6.4800   -0.0190   -0.7710 C.2     1  UNL1       -0.0470
      8  C          6.5510   -1.0170    0.1700 C.2     1  UNL1        0.0040
      9  C          5.8280    1.1360   -0.4170 C.2     1  UNL1        0.0040
     10  C          6.0050   -0.9030    1.4260 C.2     1  UNL1        0.0000
     11  C          5.2700    1.2840    0.8310 C.2     1  UNL1        0.0000
     12  C          5.3520    0.2600    1.7740 C.2     1  UNL1        0.0000
@<TRIPOS>BOND
     1     4     2    1
     2     4     5    1
     3     3     2    2
     4     2     1    1
     5     1     6    1
     6     6     7    1
     7     7     9    2
     8     7     8    1
     9     9    11    1
    10     8    10    2
    11    11    12    2
    12    10    12    1
