MODEL 1
REMARK VINA RESULT:      -7.3      0.000      0.000
REMARK SMILES O=C(O)CCc1ccccc1
REMARK SMILES IDX 4 1 2 2 1 3 3 4 5 6 6 7 7 8 11 9 8 10 10 11 9 12
REMARK H PARENT 3 5
REMARK Flexibility Score: inf
ROOT
ATOM      1  C   UNL     1       8.470  -0.620  -2.142  1.00  0.00     0.127 C 
ENDROOT
BRANCH   1   2
ATOM      2  C   UNL     1       8.527  -1.904  -2.888  1.00  0.00     0.303 C 
ATOM      3  O   UNL     1       9.585  -2.553  -3.086  1.00  0.00    -0.252 OA
BRANCH   2   4
ATOM      4  O   UNL     1       7.353  -2.433  -3.402  1.00  0.00    -0.481 OA
ATOM      5  H   UNL     1       6.567  -2.496  -2.752  1.00  0.00     0.296 HD
ENDBRANCH   2   4
ENDBRANCH   1   2
BRANCH   1   6
ATOM      6  C   UNL     1       7.054  -0.123  -2.110  1.00  0.00     0.047 C 
BRANCH   6   7
ATOM      7  C   UNL     1       6.480  -0.019  -0.771  1.00  0.00    -0.047 A 
ATOM      8  C   UNL     1       6.551  -1.017   0.170  1.00  0.00     0.004 A 
ATOM      9  C   UNL     1       5.828   1.136  -0.417  1.00  0.00     0.004 A 
ATOM     10  C   UNL     1       6.005  -0.903   1.426  1.00  0.00     0.000 A 
ATOM     11  C   UNL     1       5.270   1.284   0.831  1.00  0.00     0.000 A 
ATOM     12  C   UNL     1       5.352   0.260   1.774  1.00  0.00     0.000 A 
ENDBRANCH   6   7
ENDBRANCH   1   6
TORSDOF 4
ENDMDL
MODEL 2
REMARK VINA RESULT:      -7.3      0.077      1.427
REMARK SMILES O=C(O)CCc1ccccc1
REMARK SMILES IDX 4 1 2 2 1 3 3 4 5 6 6 7 7 8 11 9 8 10 10 11 9 12
REMARK H PARENT 3 5
REMARK Flexibility Score: inf
ROOT
ATOM      1  C   UNL     1       8.420  -0.564  -2.182  1.00  0.00     0.127 C 
ENDROOT
BRANCH   1   2
ATOM      2  C   UNL     1       8.498  -1.863  -2.901  1.00  0.00     0.303 C 
ATOM      3  O   UNL     1       9.568  -2.496  -3.091  1.00  0.00    -0.252 OA
BRANCH   2   4
ATOM      4  O   UNL     1       7.332  -2.426  -3.397  1.00  0.00    -0.481 OA
ATOM      5  H   UNL     1       6.462  -1.952  -3.143  1.00  0.00     0.296 HD
ENDBRANCH   2   4
ENDBRANCH   1   2
BRANCH   1   6
ATOM      6  C   UNL     1       6.997  -0.091  -2.159  1.00  0.00     0.047 C 
BRANCH   6   7
ATOM      7  C   UNL     1       6.435   0.067  -0.819  1.00  0.00    -0.047 A 
ATOM      8  C   UNL     1       5.788   1.199  -0.391  1.00  0.00     0.004 A 
ATOM      9  C   UNL     1       6.553  -0.968   0.075  1.00  0.00     0.004 A 
ATOM     10  C   UNL     1       5.265   1.331   0.874  1.00  0.00     0.000 A 
ATOM     11  C   UNL     1       6.043  -0.871   1.348  1.00  0.00     0.000 A 
ATOM     12  C   UNL     1       5.388   0.287   1.766  1.00  0.00     0.000 A 
ENDBRANCH   6   7
ENDBRANCH   1   6
TORSDOF 4
ENDMDL
MODEL 3
REMARK VINA RESULT:      -6.9      3.370      5.065
REMARK SMILES O=C(O)CCc1ccccc1
REMARK SMILES IDX 4 1 2 2 1 3 3 4 5 6 6 7 7 8 11 9 8 10 10 11 9 12
REMARK H PARENT 3 5
REMARK Flexibility Score: inf
ROOT
ATOM      1  C   UNL     1       4.967   1.791   0.669  1.00  0.00     0.127 C 
ENDROOT
BRANCH   1   2
ATOM      2  C   UNL     1       4.493   1.090   1.891  1.00  0.00     0.303 C 
ATOM      3  O   UNL     1       5.134   0.176   2.468  1.00  0.00    -0.252 OA
BRANCH   2   4
ATOM      4  O   UNL     1       3.274   1.454   2.442  1.00  0.00    -0.481 OA
ATOM      5  H   UNL     1       2.552   1.748   1.780  1.00  0.00     0.296 HD
ENDBRANCH   2   4
ENDBRANCH   1   2
BRANCH   1   6
ATOM      6  C   UNL     1       6.467   1.833   0.667  1.00  0.00     0.047 C 
BRANCH   6   7
ATOM      7  C   UNL     1       7.093   1.021  -0.374  1.00  0.00    -0.047 A 
ATOM      8  C   UNL     1       6.430   0.058  -1.094  1.00  0.00     0.004 A 
ATOM      9  C   UNL     1       8.421   1.220  -0.659  1.00  0.00     0.004 A 
ATOM     10  C   UNL     1       7.035  -0.697  -2.070  1.00  0.00     0.000 A 
ATOM     11  C   UNL     1       9.058   0.481  -1.629  1.00  0.00     0.000 A 
ATOM     12  C   UNL     1       8.368  -0.492  -2.351  1.00  0.00     0.000 A 
ENDBRANCH   6   7
ENDBRANCH   1   6
TORSDOF 4
ENDMDL
MODEL 4
REMARK VINA RESULT:      -6.8      3.347      5.065
REMARK SMILES O=C(O)CCc1ccccc1
REMARK SMILES IDX 4 1 2 2 1 3 3 4 5 6 6 7 7 8 11 9 8 10 10 11 9 12
REMARK H PARENT 3 5
REMARK Flexibility Score: inf
ROOT
ATOM      1  C   UNL     1       4.982   1.664   0.658  1.00  0.00     0.127 C 
ENDROOT
BRANCH   1   2
ATOM      2  C   UNL     1       4.567   0.993   1.918  1.00  0.00     0.303 C 
ATOM      3  O   UNL     1       5.259   0.128   2.512  1.00  0.00    -0.252 OA
BRANCH   2   4
ATOM      4  O   UNL     1       3.347   1.330   2.486  1.00  0.00    -0.481 OA
ATOM      5  H   UNL     1       3.389   1.912   3.325  1.00  0.00     0.296 HD
ENDBRANCH   2   4
ENDBRANCH   1   2
BRANCH   1   6
ATOM      6  C   UNL     1       6.475   1.819   0.643  1.00  0.00     0.047 C 
BRANCH   6   7
ATOM      7  C   UNL     1       7.153   1.038  -0.388  1.00  0.00    -0.047 A 
ATOM      8  C   UNL     1       8.489   1.158  -0.683  1.00  0.00     0.004 A 
ATOM      9  C   UNL     1       6.427   0.127  -1.114  1.00  0.00     0.004 A 
ATOM     10  C   UNL     1       9.111   0.415  -1.657  1.00  0.00     0.000 A 
ATOM     11  C   UNL     1       7.017  -0.634  -2.096  1.00  0.00     0.000 A 
ATOM     12  C   UNL     1       8.375  -0.498  -2.382  1.00  0.00     0.000 A 
ENDBRANCH   6   7
ENDBRANCH   1   6
TORSDOF 4
ENDMDL
MODEL 5
REMARK VINA RESULT:      -6.6      3.837      4.937
REMARK SMILES O=C(O)CCc1ccccc1
REMARK SMILES IDX 4 1 2 2 1 3 3 4 5 6 6 7 7 8 11 9 8 10 10 11 9 12
REMARK H PARENT 3 5
REMARK Flexibility Score: inf
ROOT
ATOM      1  C   UNL     1       5.398   2.851   0.076  1.00  0.00     0.127 C 
ENDROOT
BRANCH   1   2
ATOM      2  C   UNL     1       6.216   3.775   0.905  1.00  0.00     0.303 C 
ATOM      3  O   UNL     1       6.291   3.713   2.158  1.00  0.00    -0.252 OA
BRANCH   2   4
ATOM      4  O   UNL     1       6.947   4.771   0.275  1.00  0.00    -0.481 OA
ATOM      5  H   UNL     1       6.403   5.532  -0.140  1.00  0.00     0.296 HD
ENDBRANCH   2   4
ENDBRANCH   1   2
BRANCH   1   6
ATOM      6  C   UNL     1       4.834   1.767   0.947  1.00  0.00     0.047 C 
BRANCH   6   7
ATOM      7  C   UNL     1       5.620   0.536   0.963  1.00  0.00    -0.047 A 
ATOM      8  C   UNL     1       5.786  -0.250   2.077  1.00  0.00     0.004 A 
ATOM      9  C   UNL     1       6.237   0.128  -0.193  1.00  0.00     0.004 A 
ATOM     10  C   UNL     1       6.529  -1.406   2.075  1.00  0.00     0.000 A 
ATOM     11  C   UNL     1       6.990  -1.023  -0.231  1.00  0.00     0.000 A 
ATOM     12  C   UNL     1       7.146  -1.809   0.910  1.00  0.00     0.000 A 
ENDBRANCH   6   7
ENDBRANCH   1   6
TORSDOF 4
ENDMDL
