@<TRIPOS>MOLECULE
/home/cewinharhar/GITHUB/reincatalyze/data/processed/docking_pred/2023-Apr-25-2140_maxeplen10_maxtrainstep200_exh16_gamma099_lrac3e-4_lrcr1e-3/d98db6e7330c4682e6208573911aa9edae27e8f4_ligand_2.pdbqt
 12 12 0 0 0
SMALL
GASTEIGER

@<TRIPOS>ATOM
      1  C          5.3900    2.8840    0.0550 C.3     1  UNL1        0.1270
      2  C          6.1970    3.8810    0.8050 C.2     1  UNL1        0.3030
      3  O          6.8930    4.7750    0.2590 O.2     1  UNL1       -0.2520
      4  O          6.1950    3.8390    2.1910 O.3     1  UNL1       -0.4810
      5  H          7.0870    3.6080    2.6350 H       1  UNL1        0.2960
      6  C          4.9750    1.7790    0.9810 C.3     1  UNL1        0.0470
      7  C          5.8510    0.6110    0.9580 C.2     1  UNL1       -0.0470
      8  C          6.7990    0.3860   -0.0100 C.2     1  UNL1        0.0040
      9  C          5.7320   -0.3270    1.9540 C.2     1  UNL1        0.0040
     10  C          7.6160   -0.7200   -0.0170 C.2     1  UNL1        0.0000
     11  C          6.5330   -1.4450    1.9780 C.2     1  UNL1        0.0000
     12  C          7.4900   -1.6560    0.9870 C.2     1  UNL1        0.0000
@<TRIPOS>BOND
     1    10     8    1
     2    10    12    2
     3     8     7    2
     4     1     2    1
     5     1     6    1
     6     3     2    2
     7     2     4    1
     8     7     6    1
     9     7     9    1
    10    12    11    1
    11     9    11    2
    12     4     5    1
