@<TRIPOS>MOLECULE
/home/cewinharhar/GITHUB/reincatalyze/data/processed/docking_pred/2023-Apr-25-2140_maxeplen10_maxtrainstep200_exh16_gamma099_lrac3e-4_lrcr1e-3/d98db6e7330c4682e6208573911aa9edae27e8f4_ligand_2.pdbqt
 12 12 0 0 0
SMALL
GASTEIGER

@<TRIPOS>ATOM
      1  C          8.4740   -0.5700   -2.1760 C.3     1  UNL1        0.1270
      2  C          8.5220   -1.8670   -2.8990 C.2     1  UNL1        0.3030
      3  O          9.5790   -2.5160   -3.1050 O.2     1  UNL1       -0.2520
      4  O          7.3410   -2.4100   -3.3820 O.3     1  UNL1       -0.4810
      5  H          6.4860   -1.8990   -3.1510 H       1  UNL1        0.2960
      6  C          7.0590   -0.0720   -2.1360 C.3     1  UNL1        0.0470
      7  C          6.5030    0.0610   -0.7920 C.2     1  UNL1       -0.0470
      8  C          6.6010   -0.9090    0.1760 C.2     1  UNL1        0.0040
      9  C          5.8410    1.2170   -0.4610 C.2     1  UNL1        0.0040
     10  C          6.0720   -0.7660    1.4360 C.2     1  UNL1        0.0000
     11  C          5.2980    1.3930    0.7920 C.2     1  UNL1        0.0000
     12  C          5.4080    0.3970    1.7610 C.2     1  UNL1        0.0000
@<TRIPOS>BOND
     1     4     5    1
     2     4     2    1
     3     3     2    2
     4     2     1    1
     5     1     6    1
     6     6     7    1
     7     7     9    2
     8     7     8    1
     9     9    11    1
    10     8    10    2
    11    11    12    2
    12    10    12    1
