@<TRIPOS>MOLECULE
/home/cewinharhar/GITHUB/reincatalyze/data/processed/docking_pred/2023-Apr-25-2140_maxeplen10_maxtrainstep200_exh16_gamma099_lrac3e-4_lrcr1e-3/d98db6e7330c4682e6208573911aa9edae27e8f4_ligand_2.pdbqt
 12 12 0 0 0
SMALL
GASTEIGER

@<TRIPOS>ATOM
      1  C          8.4450   -0.5700   -2.2180 C.3     1  UNL1        0.1270
      2  C          8.5270   -1.8770   -2.9210 C.2     1  UNL1        0.3030
      3  O          9.6000   -2.5030   -3.1160 O.2     1  UNL1       -0.2520
      4  O          7.3610   -2.4570   -3.3960 O.3     1  UNL1       -0.4810
      5  H          6.5690   -2.4670   -2.7500 H       1  UNL1        0.2960
      6  C          7.0170   -0.1140   -2.1770 C.3     1  UNL1        0.0470
      7  C          6.4820    0.0750   -0.8310 C.2     1  UNL1       -0.0470
      8  C          5.8410    1.2170   -0.4160 C.2     1  UNL1        0.0040
      9  C          6.6210   -0.9380    0.0860 C.2     1  UNL1        0.0040
     10  C          5.3430    1.3780    0.8550 C.2     1  UNL1        0.0000
     11  C          6.1360   -0.8100    1.3670 C.2     1  UNL1        0.0000
     12  C          5.4870    0.3560    1.7690 C.2     1  UNL1        0.0000
@<TRIPOS>BOND
     1     4     2    1
     2     4     5    1
     3     3     2    2
     4     2     1    1
     5     1     6    1
     6     6     7    1
     7     7     8    2
     8     7     9    1
     9     8    10    1
    10     9    11    2
    11    10    12    2
    12    11    12    1
