@<TRIPOS>MOLECULE
/home/cewinharhar/GITHUB/reincatalyze/data/processed/docking_pred/2023-Apr-25-2140_maxeplen10_maxtrainstep200_exh16_gamma099_lrac3e-4_lrcr1e-3/d98db6e7330c4682e6208573911aa9edae27e8f4_ligand_2.pdbqt
 12 12 0 0 0
SMALL
GASTEIGER

@<TRIPOS>ATOM
      1  C          4.9950    1.8560    0.6760 C.3     1  UNL1        0.1270
      2  C          4.5240    1.1330    1.8860 C.2     1  UNL1        0.3030
      3  O          5.1800    0.2300    2.4630 O.2     1  UNL1       -0.2520
      4  O          3.2890    1.4620    2.4240 O.3     1  UNL1       -0.4810
      5  H          3.1290    1.1680    3.3910 H       1  UNL1        0.2960
      6  C          6.4960    1.8870    0.6660 C.3     1  UNL1        0.0470
      7  C          7.1090    1.0730   -0.3810 C.2     1  UNL1       -0.0470
      8  C          6.4230    0.1540   -1.1350 C.2     1  UNL1        0.0040
      9  C          8.4500    1.2230   -0.6360 C.2     1  UNL1        0.0040
     10  C          7.0160   -0.6040   -2.1170 C.2     1  UNL1        0.0000
     11  C          9.0760    0.4810   -1.6100 C.2     1  UNL1        0.0000
     12  C          8.3630   -0.4470   -2.3670 C.2     1  UNL1        0.0000
@<TRIPOS>BOND
     1    12    10    2
     2    12    11    1
     3    10     8    1
     4    11     9    2
     5     8     7    2
     6     9     7    1
     7     7     6    1
     8     6     1    1
     9     1     2    1
    10     2     4    1
    11     2     3    2
    12     4     5    1
