MODEL 1
REMARK VINA RESULT:      -7.4      0.000      0.000
REMARK SMILES O=C(O)CCc1ccccc1
REMARK SMILES IDX 4 1 2 2 1 3 3 4 5 6 6 7 7 8 11 9 8 10 10 11 9 12
REMARK H PARENT 3 5
REMARK Flexibility Score: inf
ROOT
ATOM      1  C   UNL     1       8.474  -0.570  -2.176  1.00  0.00     0.127 C 
ENDROOT
BRANCH   1   2
ATOM      2  C   UNL     1       8.522  -1.867  -2.899  1.00  0.00     0.303 C 
ATOM      3  O   UNL     1       9.579  -2.516  -3.105  1.00  0.00    -0.252 OA
BRANCH   2   4
ATOM      4  O   UNL     1       7.341  -2.410  -3.382  1.00  0.00    -0.481 OA
ATOM      5  H   UNL     1       6.486  -1.899  -3.151  1.00  0.00     0.296 HD
ENDBRANCH   2   4
ENDBRANCH   1   2
BRANCH   1   6
ATOM      6  C   UNL     1       7.059  -0.072  -2.136  1.00  0.00     0.047 C 
BRANCH   6   7
ATOM      7  C   UNL     1       6.503   0.061  -0.792  1.00  0.00    -0.047 A 
ATOM      8  C   UNL     1       6.601  -0.909   0.176  1.00  0.00     0.004 A 
ATOM      9  C   UNL     1       5.841   1.217  -0.461  1.00  0.00     0.004 A 
ATOM     10  C   UNL     1       6.072  -0.766   1.436  1.00  0.00     0.000 A 
ATOM     11  C   UNL     1       5.298   1.393   0.792  1.00  0.00     0.000 A 
ATOM     12  C   UNL     1       5.408   0.397   1.761  1.00  0.00     0.000 A 
ENDBRANCH   6   7
ENDBRANCH   1   6
TORSDOF 4
ENDMDL
MODEL 2
REMARK VINA RESULT:      -7.3      0.068      1.426
REMARK SMILES O=C(O)CCc1ccccc1
REMARK SMILES IDX 4 1 2 2 1 3 3 4 5 6 6 7 7 8 11 9 8 10 10 11 9 12
REMARK H PARENT 3 5
REMARK Flexibility Score: inf
ROOT
ATOM      1  C   UNL     1       8.445  -0.570  -2.218  1.00  0.00     0.127 C 
ENDROOT
BRANCH   1   2
ATOM      2  C   UNL     1       8.527  -1.877  -2.921  1.00  0.00     0.303 C 
ATOM      3  O   UNL     1       9.600  -2.503  -3.116  1.00  0.00    -0.252 OA
BRANCH   2   4
ATOM      4  O   UNL     1       7.361  -2.457  -3.396  1.00  0.00    -0.481 OA
ATOM      5  H   UNL     1       6.569  -2.467  -2.750  1.00  0.00     0.296 HD
ENDBRANCH   2   4
ENDBRANCH   1   2
BRANCH   1   6
ATOM      6  C   UNL     1       7.017  -0.114  -2.177  1.00  0.00     0.047 C 
BRANCH   6   7
ATOM      7  C   UNL     1       6.482   0.075  -0.831  1.00  0.00    -0.047 A 
ATOM      8  C   UNL     1       5.841   1.217  -0.416  1.00  0.00     0.004 A 
ATOM      9  C   UNL     1       6.621  -0.938   0.086  1.00  0.00     0.004 A 
ATOM     10  C   UNL     1       5.343   1.378   0.855  1.00  0.00     0.000 A 
ATOM     11  C   UNL     1       6.136  -0.810   1.367  1.00  0.00     0.000 A 
ATOM     12  C   UNL     1       5.487   0.356   1.769  1.00  0.00     0.000 A 
ENDBRANCH   6   7
ENDBRANCH   1   6
TORSDOF 4
ENDMDL
MODEL 3
REMARK VINA RESULT:      -6.8      3.348      5.056
REMARK SMILES O=C(O)CCc1ccccc1
REMARK SMILES IDX 4 1 2 2 1 3 3 4 5 6 6 7 7 8 11 9 8 10 10 11 9 12
REMARK H PARENT 3 5
REMARK Flexibility Score: inf
ROOT
ATOM      1  C   UNL     1       4.995   1.856   0.676  1.00  0.00     0.127 C 
ENDROOT
BRANCH   1   2
ATOM      2  C   UNL     1       4.524   1.133   1.886  1.00  0.00     0.303 C 
ATOM      3  O   UNL     1       5.180   0.230   2.463  1.00  0.00    -0.252 OA
BRANCH   2   4
ATOM      4  O   UNL     1       3.289   1.462   2.424  1.00  0.00    -0.481 OA
ATOM      5  H   UNL     1       3.129   1.168   3.391  1.00  0.00     0.296 HD
ENDBRANCH   2   4
ENDBRANCH   1   2
BRANCH   1   6
ATOM      6  C   UNL     1       6.496   1.887   0.666  1.00  0.00     0.047 C 
BRANCH   6   7
ATOM      7  C   UNL     1       7.109   1.073  -0.381  1.00  0.00    -0.047 A 
ATOM      8  C   UNL     1       6.423   0.154  -1.135  1.00  0.00     0.004 A 
ATOM      9  C   UNL     1       8.450   1.223  -0.636  1.00  0.00     0.004 A 
ATOM     10  C   UNL     1       7.016  -0.604  -2.117  1.00  0.00     0.000 A 
ATOM     11  C   UNL     1       9.076   0.481  -1.610  1.00  0.00     0.000 A 
ATOM     12  C   UNL     1       8.363  -0.447  -2.367  1.00  0.00     0.000 A 
ENDBRANCH   6   7
ENDBRANCH   1   6
TORSDOF 4
ENDMDL
MODEL 4
REMARK VINA RESULT:      -6.6      3.846      5.024
REMARK SMILES O=C(O)CCc1ccccc1
REMARK SMILES IDX 4 1 2 2 1 3 3 4 5 6 6 7 7 8 11 9 8 10 10 11 9 12
REMARK H PARENT 3 5
REMARK Flexibility Score: inf
ROOT
ATOM      1  C   UNL     1       5.390   2.884   0.055  1.00  0.00     0.127 C 
ENDROOT
BRANCH   1   2
ATOM      2  C   UNL     1       6.197   3.881   0.805  1.00  0.00     0.303 C 
ATOM      3  O   UNL     1       6.893   4.775   0.259  1.00  0.00    -0.252 OA
BRANCH   2   4
ATOM      4  O   UNL     1       6.195   3.839   2.191  1.00  0.00    -0.481 OA
ATOM      5  H   UNL     1       7.087   3.608   2.635  1.00  0.00     0.296 HD
ENDBRANCH   2   4
ENDBRANCH   1   2
BRANCH   1   6
ATOM      6  C   UNL     1       4.975   1.779   0.981  1.00  0.00     0.047 C 
BRANCH   6   7
ATOM      7  C   UNL     1       5.851   0.611   0.958  1.00  0.00    -0.047 A 
ATOM      8  C   UNL     1       6.799   0.386  -0.010  1.00  0.00     0.004 A 
ATOM      9  C   UNL     1       5.732  -0.327   1.954  1.00  0.00     0.004 A 
ATOM     10  C   UNL     1       7.616  -0.720  -0.017  1.00  0.00     0.000 A 
ATOM     11  C   UNL     1       6.533  -1.445   1.978  1.00  0.00     0.000 A 
ATOM     12  C   UNL     1       7.490  -1.656   0.987  1.00  0.00     0.000 A 
ENDBRANCH   6   7
ENDBRANCH   1   6
TORSDOF 4
ENDMDL
MODEL 5
REMARK VINA RESULT:      -6.6      2.079      2.347
REMARK SMILES O=C(O)CCc1ccccc1
REMARK SMILES IDX 4 1 2 2 1 3 3 4 5 6 6 7 7 8 11 9 8 10 10 11 9 12
REMARK H PARENT 3 5
REMARK Flexibility Score: inf
ROOT
ATOM      1  C   UNL     1       8.532   0.680  -1.682  1.00  0.00     0.127 C 
ENDROOT
BRANCH   1   2
ATOM      2  C   UNL     1       9.657   0.275  -0.799  1.00  0.00     0.303 C 
ATOM      3  O   UNL     1       9.532  -0.492   0.189  1.00  0.00    -0.252 OA
BRANCH   2   4
ATOM      4  O   UNL     1      10.927   0.762  -1.067  1.00  0.00    -0.481 OA
ATOM      5  H   UNL     1      11.257   1.513  -0.457  1.00  0.00     0.296 HD
ENDBRANCH   2   4
ENDBRANCH   1   2
BRANCH   1   6
ATOM      6  C   UNL     1       7.342  -0.193  -1.407  1.00  0.00     0.047 C 
BRANCH   6   7
ATOM      7  C   UNL     1       6.455   0.308  -0.359  1.00  0.00    -0.047 A 
ATOM      8  C   UNL     1       6.207  -0.359   0.815  1.00  0.00     0.004 A 
ATOM      9  C   UNL     1       5.826   1.513  -0.544  1.00  0.00     0.004 A 
ATOM     10  C   UNL     1       5.369   0.126   1.791  1.00  0.00     0.000 A 
ATOM     11  C   UNL     1       4.980   2.029   0.411  1.00  0.00     0.000 A 
ATOM     12  C   UNL     1       4.741   1.337   1.597  1.00  0.00     0.000 A 
ENDBRANCH   6   7
ENDBRANCH   1   6
TORSDOF 4
ENDMDL
