@<TRIPOS>MOLECULE
/home/cewinharhar/GITHUB/reincatalyze/data/processed/docking_pred/2023-Apr-25-2140_maxeplen10_maxtrainstep200_exh16_gamma099_lrac3e-4_lrcr1e-3/d98db6e7330c4682e6208573911aa9edae27e8f4_ligand_2.pdbqt
 12 12 0 0 0
SMALL
GASTEIGER

@<TRIPOS>ATOM
      1  C          8.5320    0.6800   -1.6820 C.3     1  UNL1        0.1270
      2  C          9.6570    0.2750   -0.7990 C.2     1  UNL1        0.3030
      3  O          9.5320   -0.4920    0.1890 O.2     1  UNL1       -0.2520
      4  O         10.9270    0.7620   -1.0670 O.3     1  UNL1       -0.4810
      5  H         11.2570    1.5130   -0.4570 H       1  UNL1        0.2960
      6  C          7.3420   -0.1930   -1.4070 C.3     1  UNL1        0.0470
      7  C          6.4550    0.3080   -0.3590 C.2     1  UNL1       -0.0470
      8  C          6.2070   -0.3590    0.8150 C.2     1  UNL1        0.0040
      9  C          5.8260    1.5130   -0.5440 C.2     1  UNL1        0.0040
     10  C          5.3690    0.1260    1.7910 C.2     1  UNL1        0.0000
     11  C          4.9800    2.0290    0.4110 C.2     1  UNL1        0.0000
     12  C          4.7410    1.3370    1.5970 C.2     1  UNL1        0.0000
@<TRIPOS>BOND
     1     1     6    1
     2     1     2    1
     3     6     7    1
     4     4     2    1
     5     4     5    1
     6     2     3    2
     7     9     7    2
     8     9    11    1
     9     7     8    1
    10    11    12    2
    11     8    10    2
    12    12    10    1
