@<TRIPOS>MOLECULE
/home/cewinharhar/GITHUB/reincatalyze/data/processed/docking_pred/2023-Apr-25-2140_maxeplen10_maxtrainstep200_exh16_gamma099_lrac3e-4_lrcr1e-3/da55d276f49f8aea3f2b333b6115ea57fe53d1b0_ligand_2.pdbqt
 12 12 0 0 0
SMALL
GASTEIGER

@<TRIPOS>ATOM
      1  C          8.4390   -0.5740   -2.2050 C.3     1  UNL1        0.1270
      2  C          8.5070   -1.8750   -2.9200 C.2     1  UNL1        0.3030
      3  O          9.5700   -2.5200   -3.1020 O.2     1  UNL1       -0.2520
      4  O          7.3370   -2.4270   -3.4210 O.3     1  UNL1       -0.4810
      5  H          6.8910   -1.9140   -4.1850 H       1  UNL1        0.2960
      6  C          7.0160   -0.1000   -2.1650 C.3     1  UNL1        0.0470
      7  C          6.4790    0.0840   -0.8180 C.2     1  UNL1       -0.0470
      8  C          5.8390    1.2250   -0.4000 C.2     1  UNL1        0.0040
      9  C          6.6140   -0.9340    0.0930 C.2     1  UNL1        0.0040
     10  C          5.3400    1.3810    0.8710 C.2     1  UNL1        0.0000
     11  C          6.1270   -0.8110    1.3740 C.2     1  UNL1        0.0000
     12  C          5.4800    0.3540    1.7810 C.2     1  UNL1        0.0000
@<TRIPOS>BOND
     1     5     4    1
     2     4     2    1
     3     3     2    2
     4     2     1    1
     5     1     6    1
     6     6     7    1
     7     7     8    2
     8     7     9    1
     9     8    10    1
    10     9    11    2
    11    10    12    2
    12    11    12    1
