@<TRIPOS>MOLECULE
/home/cewinharhar/GITHUB/reincatalyze/data/processed/docking_pred/2023-Apr-25-2140_maxeplen10_maxtrainstep200_exh16_gamma099_lrac3e-4_lrcr1e-3/da55d276f49f8aea3f2b333b6115ea57fe53d1b0_ligand_2.pdbqt
 12 12 0 0 0
SMALL
GASTEIGER

@<TRIPOS>ATOM
      1  C          8.5120   -0.6070   -2.1750 C.3     1  UNL1        0.1270
      2  C          8.5450   -1.8990   -2.9080 C.2     1  UNL1        0.3030
      3  O          9.5930   -2.5600   -3.1180 O.2     1  UNL1       -0.2520
      4  O          7.3570   -2.4240   -3.3950 O.3     1  UNL1       -0.4810
      5  H          7.1130   -2.1650   -4.3540 H       1  UNL1        0.2960
      6  C          7.1060   -0.0830   -2.1490 C.3     1  UNL1        0.0470
      7  C          6.5340    0.0440   -0.8100 C.2     1  UNL1       -0.0470
      8  C          6.6240   -0.9300    0.1540 C.2     1  UNL1        0.0040
      9  C          5.8630    1.1960   -0.4830 C.2     1  UNL1        0.0040
     10  C          6.0790   -0.7950    1.4090 C.2     1  UNL1        0.0000
     11  C          5.3050    1.3640    0.7630 C.2     1  UNL1        0.0000
     12  C          5.4070    0.3650    1.7300 C.2     1  UNL1        0.0000
@<TRIPOS>BOND
     1     5     4    1
     2     4     2    1
     3     3     2    2
     4     2     1    1
     5     1     6    1
     6     6     7    1
     7     7     9    2
     8     7     8    1
     9     9    11    1
    10     8    10    2
    11    11    12    2
    12    10    12    1
