MODEL 1
REMARK VINA RESULT:      -7.4      0.000      0.000
REMARK SMILES O=C(O)CCc1ccccc1
REMARK SMILES IDX 4 1 2 2 1 3 3 4 5 6 6 7 7 8 11 9 8 10 10 11 9 12
REMARK H PARENT 3 5
REMARK Flexibility Score: inf
ROOT
ATOM      1  C   UNL     1       8.512  -0.607  -2.175  1.00  0.00     0.127 C 
ENDROOT
BRANCH   1   2
ATOM      2  C   UNL     1       8.545  -1.899  -2.908  1.00  0.00     0.303 C 
ATOM      3  O   UNL     1       9.593  -2.560  -3.118  1.00  0.00    -0.252 OA
BRANCH   2   4
ATOM      4  O   UNL     1       7.357  -2.424  -3.395  1.00  0.00    -0.481 OA
ATOM      5  H   UNL     1       7.113  -2.165  -4.354  1.00  0.00     0.296 HD
ENDBRANCH   2   4
ENDBRANCH   1   2
BRANCH   1   6
ATOM      6  C   UNL     1       7.106  -0.083  -2.149  1.00  0.00     0.047 C 
BRANCH   6   7
ATOM      7  C   UNL     1       6.534   0.044  -0.810  1.00  0.00    -0.047 A 
ATOM      8  C   UNL     1       6.624  -0.930   0.154  1.00  0.00     0.004 A 
ATOM      9  C   UNL     1       5.863   1.196  -0.483  1.00  0.00     0.004 A 
ATOM     10  C   UNL     1       6.079  -0.795   1.409  1.00  0.00     0.000 A 
ATOM     11  C   UNL     1       5.305   1.364   0.763  1.00  0.00     0.000 A 
ATOM     12  C   UNL     1       5.407   0.365   1.730  1.00  0.00     0.000 A 
ENDBRANCH   6   7
ENDBRANCH   1   6
TORSDOF 4
ENDMDL
MODEL 2
REMARK VINA RESULT:      -7.4      0.076      1.426
REMARK SMILES O=C(O)CCc1ccccc1
REMARK SMILES IDX 4 1 2 2 1 3 3 4 5 6 6 7 7 8 11 9 8 10 10 11 9 12
REMARK H PARENT 3 5
REMARK Flexibility Score: inf
ROOT
ATOM      1  C   UNL     1       8.439  -0.574  -2.205  1.00  0.00     0.127 C 
ENDROOT
BRANCH   1   2
ATOM      2  C   UNL     1       8.507  -1.875  -2.920  1.00  0.00     0.303 C 
ATOM      3  O   UNL     1       9.570  -2.520  -3.102  1.00  0.00    -0.252 OA
BRANCH   2   4
ATOM      4  O   UNL     1       7.337  -2.427  -3.421  1.00  0.00    -0.481 OA
ATOM      5  H   UNL     1       6.891  -1.914  -4.185  1.00  0.00     0.296 HD
ENDBRANCH   2   4
ENDBRANCH   1   2
BRANCH   1   6
ATOM      6  C   UNL     1       7.016  -0.100  -2.165  1.00  0.00     0.047 C 
BRANCH   6   7
ATOM      7  C   UNL     1       6.479   0.084  -0.818  1.00  0.00    -0.047 A 
ATOM      8  C   UNL     1       5.839   1.225  -0.400  1.00  0.00     0.004 A 
ATOM      9  C   UNL     1       6.614  -0.934   0.093  1.00  0.00     0.004 A 
ATOM     10  C   UNL     1       5.340   1.381   0.871  1.00  0.00     0.000 A 
ATOM     11  C   UNL     1       6.127  -0.811   1.374  1.00  0.00     0.000 A 
ATOM     12  C   UNL     1       5.480   0.354   1.781  1.00  0.00     0.000 A 
ENDBRANCH   6   7
ENDBRANCH   1   6
TORSDOF 4
ENDMDL
MODEL 3
REMARK VINA RESULT:      -7.2      0.617      1.597
REMARK SMILES O=C(O)CCc1ccccc1
REMARK SMILES IDX 4 1 2 2 1 3 3 4 5 6 6 7 7 8 11 9 8 10 10 11 9 12
REMARK H PARENT 3 5
REMARK Flexibility Score: inf
ROOT
ATOM      1  C   UNL     1       8.158  -0.731  -2.090  1.00  0.00     0.127 C 
ENDROOT
BRANCH   1   2
ATOM      2  C   UNL     1       8.378  -1.933  -2.936  1.00  0.00     0.303 C 
ATOM      3  O   UNL     1       9.505  -2.452  -3.138  1.00  0.00    -0.252 OA
BRANCH   2   4
ATOM      4  O   UNL     1       7.287  -2.532  -3.548  1.00  0.00    -0.481 OA
ATOM      5  H   UNL     1       7.266  -3.554  -3.527  1.00  0.00     0.296 HD
ENDBRANCH   2   4
ENDBRANCH   1   2
BRANCH   1   6
ATOM      6  C   UNL     1       7.577  -1.148  -0.772  1.00  0.00     0.047 C 
BRANCH   6   7
ATOM      7  C   UNL     1       6.665  -0.173  -0.178  1.00  0.00    -0.047 A 
ATOM      8  C   UNL     1       6.211   0.945  -0.833  1.00  0.00     0.004 A 
ATOM      9  C   UNL     1       6.230  -0.370   1.109  1.00  0.00     0.004 A 
ATOM     10  C   UNL     1       5.353   1.854  -0.259  1.00  0.00     0.000 A 
ATOM     11  C   UNL     1       5.372   0.519   1.714  1.00  0.00     0.000 A 
ATOM     12  C   UNL     1       4.920   1.648   1.033  1.00  0.00     0.000 A 
ENDBRANCH   6   7
ENDBRANCH   1   6
TORSDOF 4
ENDMDL
MODEL 4
REMARK VINA RESULT:      -7.1      0.864      1.049
REMARK SMILES O=C(O)CCc1ccccc1
REMARK SMILES IDX 4 1 2 2 1 3 3 4 5 6 6 7 7 8 11 9 8 10 10 11 9 12
REMARK H PARENT 3 5
REMARK Flexibility Score: inf
ROOT
ATOM      1  C   UNL     1       7.255  -1.228  -2.325  1.00  0.00     0.127 C 
ENDROOT
BRANCH   1   2
ATOM      2  C   UNL     1       8.723  -1.380  -2.498  1.00  0.00     0.303 C 
ATOM      3  O   UNL     1       9.571  -0.575  -2.036  1.00  0.00    -0.252 OA
BRANCH   2   4
ATOM      4  O   UNL     1       9.205  -2.470  -3.208  1.00  0.00    -0.481 OA
ATOM      5  H   UNL     1       8.770  -3.370  -2.997  1.00  0.00     0.296 HD
ENDBRANCH   2   4
ENDBRANCH   1   2
BRANCH   1   6
ATOM      6  C   UNL     1       6.945   0.178  -1.902  1.00  0.00     0.047 C 
BRANCH   6   7
ATOM      7  C   UNL     1       6.339   0.290  -0.577  1.00  0.00    -0.047 A 
ATOM      8  C   UNL     1       6.440  -0.676   0.394  1.00  0.00     0.004 A 
ATOM      9  C   UNL     1       5.622   1.420  -0.270  1.00  0.00     0.004 A 
ATOM     10  C   UNL     1       5.864  -0.554   1.636  1.00  0.00     0.000 A 
ATOM     11  C   UNL     1       5.031   1.574   0.963  1.00  0.00     0.000 A 
ATOM     12  C   UNL     1       5.146   0.583   1.936  1.00  0.00     0.000 A 
ENDBRANCH   6   7
ENDBRANCH   1   6
TORSDOF 4
ENDMDL
MODEL 5
REMARK VINA RESULT:      -6.8      3.352      5.063
REMARK SMILES O=C(O)CCc1ccccc1
REMARK SMILES IDX 4 1 2 2 1 3 3 4 5 6 6 7 7 8 11 9 8 10 10 11 9 12
REMARK H PARENT 3 5
REMARK Flexibility Score: inf
ROOT
ATOM      1  C   UNL     1       5.014   1.812   0.681  1.00  0.00     0.127 C 
ENDROOT
BRANCH   1   2
ATOM      2  C   UNL     1       4.530   1.097   1.891  1.00  0.00     0.303 C 
ATOM      3  O   UNL     1       5.175   0.188   2.473  1.00  0.00    -0.252 OA
BRANCH   2   4
ATOM      4  O   UNL     1       3.297   1.440   2.424  1.00  0.00    -0.481 OA
ATOM      5  H   UNL     1       2.897   2.323   2.097  1.00  0.00     0.296 HD
ENDBRANCH   2   4
ENDBRANCH   1   2
BRANCH   1   6
ATOM      6  C   UNL     1       6.514   1.835   0.681  1.00  0.00     0.047 C 
BRANCH   6   7
ATOM      7  C   UNL     1       7.131   1.040  -0.379  1.00  0.00    -0.047 A 
ATOM      8  C   UNL     1       6.449   0.122  -1.140  1.00  0.00     0.004 A 
ATOM      9  C   UNL     1       8.468   1.208  -0.641  1.00  0.00     0.004 A 
ATOM     10  C   UNL     1       7.045  -0.618  -2.134  1.00  0.00     0.000 A 
ATOM     11  C   UNL     1       9.096   0.483  -1.627  1.00  0.00     0.000 A 
ATOM     12  C   UNL     1       8.388  -0.444  -2.390  1.00  0.00     0.000 A 
ENDBRANCH   6   7
ENDBRANCH   1   6
TORSDOF 4
ENDMDL
