@<TRIPOS>MOLECULE
/home/cewinharhar/GITHUB/reincatalyze/data/processed/docking_pred/2023-Apr-25-2140_maxeplen10_maxtrainstep200_exh16_gamma099_lrac3e-4_lrcr1e-3/da55d276f49f8aea3f2b333b6115ea57fe53d1b0_ligand_2.pdbqt
 12 12 0 0 0
SMALL
GASTEIGER

@<TRIPOS>ATOM
      1  C          5.0140    1.8120    0.6810 C.3     1  UNL1        0.1270
      2  C          4.5300    1.0970    1.8910 C.2     1  UNL1        0.3030
      3  O          5.1750    0.1880    2.4730 O.2     1  UNL1       -0.2520
      4  O          3.2970    1.4400    2.4240 O.3     1  UNL1       -0.4810
      5  H          2.8970    2.3230    2.0970 H       1  UNL1        0.2960
      6  C          6.5140    1.8350    0.6810 C.3     1  UNL1        0.0470
      7  C          7.1310    1.0400   -0.3790 C.2     1  UNL1       -0.0470
      8  C          6.4490    0.1220   -1.1400 C.2     1  UNL1        0.0040
      9  C          8.4680    1.2080   -0.6410 C.2     1  UNL1        0.0040
     10  C          7.0450   -0.6180   -2.1340 C.2     1  UNL1        0.0000
     11  C          9.0960    0.4830   -1.6270 C.2     1  UNL1        0.0000
     12  C          8.3880   -0.4440   -2.3900 C.2     1  UNL1        0.0000
@<TRIPOS>BOND
     1    12    10    2
     2    12    11    1
     3    10     8    1
     4    11     9    2
     5     8     7    2
     6     9     7    1
     7     7     6    1
     8     1     6    1
     9     1     2    1
    10     2     4    1
    11     2     3    2
    12     5     4    1
