@<TRIPOS>MOLECULE
/home/cewinharhar/GITHUB/reincatalyze/data/processed/docking_pred/2023-Apr-25-2140_maxeplen10_maxtrainstep200_exh16_gamma099_lrac3e-4_lrcr1e-3/da55d276f49f8aea3f2b333b6115ea57fe53d1b0_ligand_2.pdbqt
 12 12 0 0 0
SMALL
GASTEIGER

@<TRIPOS>ATOM
      1  C          7.2550   -1.2280   -2.3250 C.3     1  UNL1        0.1270
      2  C          8.7230   -1.3800   -2.4980 C.2     1  UNL1        0.3030
      3  O          9.5710   -0.5750   -2.0360 O.2     1  UNL1       -0.2520
      4  O          9.2050   -2.4700   -3.2080 O.3     1  UNL1       -0.4810
      5  H          8.7700   -3.3700   -2.9970 H       1  UNL1        0.2960
      6  C          6.9450    0.1780   -1.9020 C.3     1  UNL1        0.0470
      7  C          6.3390    0.2900   -0.5770 C.2     1  UNL1       -0.0470
      8  C          6.4400   -0.6760    0.3940 C.2     1  UNL1        0.0040
      9  C          5.6220    1.4200   -0.2700 C.2     1  UNL1        0.0040
     10  C          5.8640   -0.5540    1.6360 C.2     1  UNL1        0.0000
     11  C          5.0310    1.5740    0.9630 C.2     1  UNL1        0.0000
     12  C          5.1460    0.5830    1.9360 C.2     1  UNL1        0.0000
@<TRIPOS>BOND
     1     4     5    1
     2     4     2    1
     3     2     1    1
     4     2     3    2
     5     1     6    1
     6     6     7    1
     7     7     9    2
     8     7     8    1
     9     9    11    1
    10     8    10    2
    11    11    12    2
    12    10    12    1
