@<TRIPOS>MOLECULE
/home/cewinharhar/GITHUB/reincatalyze/data/processed/docking_pred/2023-Apr-25-2140_maxeplen10_maxtrainstep200_exh16_gamma099_lrac3e-4_lrcr1e-3/da55d276f49f8aea3f2b333b6115ea57fe53d1b0_ligand_2.pdbqt
 12 12 0 0 0
SMALL
GASTEIGER

@<TRIPOS>ATOM
      1  C          8.1580   -0.7310   -2.0900 C.3     1  UNL1        0.1270
      2  C          8.3780   -1.9330   -2.9360 C.2     1  UNL1        0.3030
      3  O          9.5050   -2.4520   -3.1380 O.2     1  UNL1       -0.2520
      4  O          7.2870   -2.5320   -3.5480 O.3     1  UNL1       -0.4810
      5  H          7.2660   -3.5540   -3.5270 H       1  UNL1        0.2960
      6  C          7.5770   -1.1480   -0.7720 C.3     1  UNL1        0.0470
      7  C          6.6650   -0.1730   -0.1780 C.2     1  UNL1       -0.0470
      8  C          6.2110    0.9450   -0.8330 C.2     1  UNL1        0.0040
      9  C          6.2300   -0.3700    1.1090 C.2     1  UNL1        0.0040
     10  C          5.3530    1.8540   -0.2590 C.2     1  UNL1        0.0000
     11  C          5.3720    0.5190    1.7140 C.2     1  UNL1        0.0000
     12  C          4.9200    1.6480    1.0330 C.2     1  UNL1        0.0000
@<TRIPOS>BOND
     1     4     5    1
     2     4     2    1
     3     3     2    2
     4     2     1    1
     5     1     6    1
     6     8    10    1
     7     8     7    2
     8     6     7    1
     9    10    12    2
    10     7     9    1
    11    12    11    1
    12     9    11    2
