@<TRIPOS>MOLECULE
/home/cewinharhar/GITHUB/reincatalyze/data/processed/docking_pred/2023-Apr-25-2140_maxeplen10_maxtrainstep200_exh16_gamma099_lrac3e-4_lrcr1e-3/db02e8dbba2ca978bde564db4603195d7659b46f_ligand_2.pdbqt
 12 12 0 0 0
SMALL
GASTEIGER

@<TRIPOS>ATOM
      1  C          4.9890    1.7920    0.6830 C.3     1  UNL1        0.1270
      2  C          4.5120    1.0950    1.9070 C.2     1  UNL1        0.3030
      3  O          5.1600    0.1940    2.4970 O.2     1  UNL1       -0.2520
      4  O          3.2830    1.4470    2.4430 O.3     1  UNL1       -0.4810
      5  H          3.2540    1.5680    3.4580 H       1  UNL1        0.2960
      6  C          6.4870    1.8660    0.7020 C.3     1  UNL1        0.0470
      7  C          7.1440    1.0910   -0.3470 C.2     1  UNL1       -0.0470
      8  C          8.4810    1.1860   -0.6450 C.2     1  UNL1        0.0040
      9  C          6.3940    0.2110   -1.0880 C.2     1  UNL1        0.0040
     10  C          9.0820    0.4480   -1.6370 C.2     1  UNL1        0.0000
     11  C          6.9630   -0.5420   -2.0890 C.2     1  UNL1        0.0000
     12  C          8.3230   -0.4320   -2.3760 C.2     1  UNL1        0.0000
@<TRIPOS>BOND
     1    12    11    2
     2    12    10    1
     3    11     9    1
     4    10     8    2
     5     9     7    2
     6     8     7    1
     7     7     6    1
     8     1     6    1
     9     1     2    1
    10     2     4    1
    11     2     3    2
    12     4     5    1
