@<TRIPOS>MOLECULE
/home/cewinharhar/GITHUB/reincatalyze/data/processed/docking_pred/2023-Apr-25-2140_maxeplen10_maxtrainstep200_exh16_gamma099_lrac3e-4_lrcr1e-3/db02e8dbba2ca978bde564db4603195d7659b46f_ligand_2.pdbqt
 12 12 0 0 0
SMALL
GASTEIGER

@<TRIPOS>ATOM
      1  C          8.4380   -0.6010   -2.1340 C.3     1  UNL1        0.1270
      2  C          8.3740   -1.8800   -2.8900 C.2     1  UNL1        0.3030
      3  O          7.3010   -2.4280   -3.2490 O.2     1  UNL1       -0.2520
      4  O          9.5570   -2.5190   -3.2270 O.3     1  UNL1       -0.4810
      5  H          9.8350   -3.2960   -2.6230 H       1  UNL1        0.2960
      6  C          7.0730    0.0190   -2.0850 C.3     1  UNL1        0.0470
      7  C          6.5010    0.1150   -0.7440 C.2     1  UNL1       -0.0470
      8  C          6.5860   -0.8820    0.1960 C.2     1  UNL1        0.0040
      9  C          5.8350    1.2620   -0.3880 C.2     1  UNL1        0.0040
     10  C          6.0420   -0.7750    1.4540 C.2     1  UNL1        0.0000
     11  C          5.2780    1.4030    0.8620 C.2     1  UNL1        0.0000
     12  C          5.3750    0.3800    1.8040 C.2     1  UNL1        0.0000
@<TRIPOS>BOND
     1     3     2    2
     2     4     2    1
     3     4     5    1
     4     2     1    1
     5     1     6    1
     6     6     7    1
     7     7     9    2
     8     7     8    1
     9     9    11    1
    10     8    10    2
    11    11    12    2
    12    10    12    1
