MODEL 1
REMARK VINA RESULT:      -7.3      0.000      0.000
REMARK SMILES O=C(O)CCc1ccccc1
REMARK SMILES IDX 4 1 2 2 1 3 3 4 5 6 6 7 7 8 11 9 8 10 10 11 9 12
REMARK H PARENT 3 5
REMARK Flexibility Score: inf
ROOT
ATOM      1  C   UNL     1       8.427  -0.612  -2.098  1.00  0.00     0.127 C 
ENDROOT
BRANCH   1   2
ATOM      2  C   UNL     1       8.506  -1.878  -2.873  1.00  0.00     0.303 C 
ATOM      3  O   UNL     1       9.577  -2.494  -3.104  1.00  0.00    -0.252 OA
BRANCH   2   4
ATOM      4  O   UNL     1       7.337  -2.429  -3.377  1.00  0.00    -0.481 OA
ATOM      5  H   UNL     1       7.244  -3.443  -3.288  1.00  0.00     0.296 HD
ENDBRANCH   2   4
ENDBRANCH   1   2
BRANCH   1   6
ATOM      6  C   UNL     1       7.014  -0.108  -2.106  1.00  0.00     0.047 C 
BRANCH   6   7
ATOM      7  C   UNL     1       6.444   0.113  -0.779  1.00  0.00    -0.047 A 
ATOM      8  C   UNL     1       5.799   1.267  -0.408  1.00  0.00     0.004 A 
ATOM      9  C   UNL     1       6.553  -0.880   0.163  1.00  0.00     0.004 A 
ATOM     10  C   UNL     1       5.269   1.459   0.846  1.00  0.00     0.000 A 
ATOM     11  C   UNL     1       6.035  -0.721   1.427  1.00  0.00     0.000 A 
ATOM     12  C   UNL     1       5.382   0.457   1.786  1.00  0.00     0.000 A 
ENDBRANCH   6   7
ENDBRANCH   1   6
TORSDOF 4
ENDMDL
MODEL 2
REMARK VINA RESULT:      -7.3      0.093      1.721
REMARK SMILES O=C(O)CCc1ccccc1
REMARK SMILES IDX 4 1 2 2 1 3 3 4 5 6 6 7 7 8 11 9 8 10 10 11 9 12
REMARK H PARENT 3 5
REMARK Flexibility Score: inf
ROOT
ATOM      1  C   UNL     1       8.438  -0.601  -2.134  1.00  0.00     0.127 C 
ENDROOT
BRANCH   1   2
ATOM      2  C   UNL     1       8.374  -1.880  -2.890  1.00  0.00     0.303 C 
ATOM      3  O   UNL     1       7.301  -2.428  -3.249  1.00  0.00    -0.252 OA
BRANCH   2   4
ATOM      4  O   UNL     1       9.557  -2.519  -3.227  1.00  0.00    -0.481 OA
ATOM      5  H   UNL     1       9.835  -3.296  -2.623  1.00  0.00     0.296 HD
ENDBRANCH   2   4
ENDBRANCH   1   2
BRANCH   1   6
ATOM      6  C   UNL     1       7.073   0.019  -2.085  1.00  0.00     0.047 C 
BRANCH   6   7
ATOM      7  C   UNL     1       6.501   0.115  -0.744  1.00  0.00    -0.047 A 
ATOM      8  C   UNL     1       6.586  -0.882   0.196  1.00  0.00     0.004 A 
ATOM      9  C   UNL     1       5.835   1.262  -0.388  1.00  0.00     0.004 A 
ATOM     10  C   UNL     1       6.042  -0.775   1.454  1.00  0.00     0.000 A 
ATOM     11  C   UNL     1       5.278   1.403   0.862  1.00  0.00     0.000 A 
ATOM     12  C   UNL     1       5.375   0.380   1.804  1.00  0.00     0.000 A 
ENDBRANCH   6   7
ENDBRANCH   1   6
TORSDOF 4
ENDMDL
MODEL 3
REMARK VINA RESULT:      -6.7      3.353      5.062
REMARK SMILES O=C(O)CCc1ccccc1
REMARK SMILES IDX 4 1 2 2 1 3 3 4 5 6 6 7 7 8 11 9 8 10 10 11 9 12
REMARK H PARENT 3 5
REMARK Flexibility Score: inf
ROOT
ATOM      1  C   UNL     1       4.989   1.792   0.683  1.00  0.00     0.127 C 
ENDROOT
BRANCH   1   2
ATOM      2  C   UNL     1       4.512   1.095   1.907  1.00  0.00     0.303 C 
ATOM      3  O   UNL     1       5.160   0.194   2.497  1.00  0.00    -0.252 OA
BRANCH   2   4
ATOM      4  O   UNL     1       3.283   1.447   2.443  1.00  0.00    -0.481 OA
ATOM      5  H   UNL     1       3.254   1.568   3.458  1.00  0.00     0.296 HD
ENDBRANCH   2   4
ENDBRANCH   1   2
BRANCH   1   6
ATOM      6  C   UNL     1       6.487   1.866   0.702  1.00  0.00     0.047 C 
BRANCH   6   7
ATOM      7  C   UNL     1       7.144   1.091  -0.347  1.00  0.00    -0.047 A 
ATOM      8  C   UNL     1       8.481   1.186  -0.645  1.00  0.00     0.004 A 
ATOM      9  C   UNL     1       6.394   0.211  -1.088  1.00  0.00     0.004 A 
ATOM     10  C   UNL     1       9.082   0.448  -1.637  1.00  0.00     0.000 A 
ATOM     11  C   UNL     1       6.963  -0.542  -2.089  1.00  0.00     0.000 A 
ATOM     12  C   UNL     1       8.323  -0.432  -2.376  1.00  0.00     0.000 A 
ENDBRANCH   6   7
ENDBRANCH   1   6
TORSDOF 4
ENDMDL
MODEL 4
REMARK VINA RESULT:      -6.6      1.922      2.202
REMARK SMILES O=C(O)CCc1ccccc1
REMARK SMILES IDX 4 1 2 2 1 3 3 4 5 6 6 7 7 8 11 9 8 10 10 11 9 12
REMARK H PARENT 3 5
REMARK Flexibility Score: inf
ROOT
ATOM      1  C   UNL     1       8.202   0.253  -2.153  1.00  0.00     0.127 C 
ENDROOT
BRANCH   1   2
ATOM      2  C   UNL     1       9.356   0.355  -1.222  1.00  0.00     0.303 C 
ATOM      3  O   UNL     1       9.497  -0.361  -0.199  1.00  0.00    -0.252 OA
BRANCH   2   4
ATOM      4  O   UNL     1      10.346   1.291  -1.482  1.00  0.00    -0.481 OA
ATOM      5  H   UNL     1      10.028   2.251  -1.631  1.00  0.00     0.296 HD
ENDBRANCH   2   4
ENDBRANCH   1   2
BRANCH   1   6
ATOM      6  C   UNL     1       7.115  -0.560  -1.514  1.00  0.00     0.047 C 
BRANCH   6   7
ATOM      7  C   UNL     1       6.351   0.151  -0.492  1.00  0.00    -0.047 A 
ATOM      8  C   UNL     1       5.775   1.383  -0.687  1.00  0.00     0.004 A 
ATOM      9  C   UNL     1       6.191  -0.431   0.741  1.00  0.00     0.004 A 
ATOM     10  C   UNL     1       5.059   2.038   0.286  1.00  0.00     0.000 A 
ATOM     11  C   UNL     1       5.481   0.197   1.738  1.00  0.00     0.000 A 
ATOM     12  C   UNL     1       4.903   1.447   1.521  1.00  0.00     0.000 A 
ENDBRANCH   6   7
ENDBRANCH   1   6
TORSDOF 4
ENDMDL
MODEL 5
REMARK VINA RESULT:      -6.5      2.001      2.868
REMARK SMILES O=C(O)CCc1ccccc1
REMARK SMILES IDX 4 1 2 2 1 3 3 4 5 6 6 7 7 8 11 9 8 10 10 11 9 12
REMARK H PARENT 3 5
REMARK Flexibility Score: inf
ROOT
ATOM      1  C   UNL     1       8.349  -1.646   1.199  1.00  0.00     0.127 C 
ENDROOT
BRANCH   1   2
ATOM      2  C   UNL     1       8.723  -2.912   0.516  1.00  0.00     0.303 C 
ATOM      3  O   UNL     1       9.447  -3.800   1.033  1.00  0.00    -0.252 OA
BRANCH   2   4
ATOM      4  O   UNL     1       8.253  -3.146  -0.768  1.00  0.00    -0.481 OA
ATOM      5  H   UNL     1       7.237  -3.180  -0.874  1.00  0.00     0.296 HD
ENDBRANCH   2   4
ENDBRANCH   1   2
BRANCH   1   6
ATOM      6  C   UNL     1       6.856  -1.570   1.328  1.00  0.00     0.047 C 
BRANCH   6   7
ATOM      7  C   UNL     1       6.269  -0.327   0.834  1.00  0.00    -0.047 A 
ATOM      8  C   UNL     1       5.480   0.501   1.595  1.00  0.00     0.004 A 
ATOM      9  C   UNL     1       6.510   0.050  -0.463  1.00  0.00     0.004 A 
ATOM     10  C   UNL     1       4.936   1.668   1.114  1.00  0.00     0.000 A 
ATOM     11  C   UNL     1       5.981   1.211  -0.978  1.00  0.00     0.000 A 
ATOM     12  C   UNL     1       5.182   2.039  -0.190  1.00  0.00     0.000 A 
ENDBRANCH   6   7
ENDBRANCH   1   6
TORSDOF 4
ENDMDL
