@<TRIPOS>MOLECULE
/home/cewinharhar/GITHUB/reincatalyze/data/processed/docking_pred/2023-Apr-25-2140_maxeplen10_maxtrainstep200_exh16_gamma099_lrac3e-4_lrcr1e-3/db02e8dbba2ca978bde564db4603195d7659b46f_ligand_2.pdbqt
 12 12 0 0 0
SMALL
GASTEIGER

@<TRIPOS>ATOM
      1  C          8.4270   -0.6120   -2.0980 C.3     1  UNL1        0.1270
      2  C          8.5060   -1.8780   -2.8730 C.2     1  UNL1        0.3030
      3  O          9.5770   -2.4940   -3.1040 O.2     1  UNL1       -0.2520
      4  O          7.3370   -2.4290   -3.3770 O.3     1  UNL1       -0.4810
      5  H          7.2440   -3.4430   -3.2880 H       1  UNL1        0.2960
      6  C          7.0140   -0.1080   -2.1060 C.3     1  UNL1        0.0470
      7  C          6.4440    0.1130   -0.7790 C.2     1  UNL1       -0.0470
      8  C          5.7990    1.2670   -0.4080 C.2     1  UNL1        0.0040
      9  C          6.5530   -0.8800    0.1630 C.2     1  UNL1        0.0040
     10  C          5.2690    1.4590    0.8460 C.2     1  UNL1        0.0000
     11  C          6.0350   -0.7210    1.4270 C.2     1  UNL1        0.0000
     12  C          5.3820    0.4570    1.7860 C.2     1  UNL1        0.0000
@<TRIPOS>BOND
     1     4     5    1
     2     4     2    1
     3     3     2    2
     4     2     1    1
     5     6     1    1
     6     6     7    1
     7     7     8    2
     8     7     9    1
     9     8    10    1
    10     9    11    2
    11    10    12    2
    12    11    12    1
