@<TRIPOS>MOLECULE
/home/cewinharhar/GITHUB/reincatalyze/data/processed/docking_pred/2023-Apr-25-2140_maxeplen10_maxtrainstep200_exh16_gamma099_lrac3e-4_lrcr1e-3/db02e8dbba2ca978bde564db4603195d7659b46f_ligand_2.pdbqt
 12 12 0 0 0
SMALL
GASTEIGER

@<TRIPOS>ATOM
      1  C          8.2020    0.2530   -2.1530 C.3     1  UNL1        0.1270
      2  C          9.3560    0.3550   -1.2220 C.2     1  UNL1        0.3030
      3  O          9.4970   -0.3610   -0.1990 O.2     1  UNL1       -0.2520
      4  O         10.3460    1.2910   -1.4820 O.3     1  UNL1       -0.4810
      5  H         10.0280    2.2510   -1.6310 H       1  UNL1        0.2960
      6  C          7.1150   -0.5600   -1.5140 C.3     1  UNL1        0.0470
      7  C          6.3510    0.1510   -0.4920 C.2     1  UNL1       -0.0470
      8  C          5.7750    1.3830   -0.6870 C.2     1  UNL1        0.0040
      9  C          6.1910   -0.4310    0.7410 C.2     1  UNL1        0.0040
     10  C          5.0590    2.0380    0.2860 C.2     1  UNL1        0.0000
     11  C          5.4810    0.1970    1.7380 C.2     1  UNL1        0.0000
     12  C          4.9030    1.4470    1.5210 C.2     1  UNL1        0.0000
@<TRIPOS>BOND
     1     1     6    1
     2     1     2    1
     3     5     4    1
     4     6     7    1
     5     4     2    1
     6     2     3    2
     7     8     7    2
     8     8    10    1
     9     7     9    1
    10    10    12    2
    11     9    11    2
    12    12    11    1
