@<TRIPOS>MOLECULE
/home/cewinharhar/GITHUB/reincatalyze/data/processed/docking_pred/2023-Apr-25-2140_maxeplen10_maxtrainstep200_exh16_gamma099_lrac3e-4_lrcr1e-3/db02e8dbba2ca978bde564db4603195d7659b46f_ligand_2.pdbqt
 12 12 0 0 0
SMALL
GASTEIGER

@<TRIPOS>ATOM
      1  C          8.3490   -1.6460    1.1990 C.3     1  UNL1        0.1270
      2  C          8.7230   -2.9120    0.5160 C.2     1  UNL1        0.3030
      3  O          9.4470   -3.8000    1.0330 O.2     1  UNL1       -0.2520
      4  O          8.2530   -3.1460   -0.7680 O.3     1  UNL1       -0.4810
      5  H          7.2370   -3.1800   -0.8740 H       1  UNL1        0.2960
      6  C          6.8560   -1.5700    1.3280 C.3     1  UNL1        0.0470
      7  C          6.2690   -0.3270    0.8340 C.2     1  UNL1       -0.0470
      8  C          5.4800    0.5010    1.5950 C.2     1  UNL1        0.0040
      9  C          6.5100    0.0500   -0.4630 C.2     1  UNL1        0.0040
     10  C          4.9360    1.6680    1.1140 C.2     1  UNL1        0.0000
     11  C          5.9810    1.2110   -0.9780 C.2     1  UNL1        0.0000
     12  C          5.1820    2.0390   -0.1900 C.2     1  UNL1        0.0000
@<TRIPOS>BOND
     1    11     9    1
     2    11    12    2
     3     5     4    1
     4     4     2    1
     5     9     7    2
     6    12    10    1
     7     2     3    2
     8     2     1    1
     9     7     6    1
    10     7     8    1
    11    10     8    2
    12     1     6    1
