@<TRIPOS>MOLECULE
/home/cewinharhar/GITHUB/reincatalyze/data/processed/docking_pred/2023-Apr-25-2140_maxeplen10_maxtrainstep200_exh16_gamma099_lrac3e-4_lrcr1e-3/db57195a81496af8cffcd6b4d9524a1fe0637e4f_ligand_2.pdbqt
 12 12 0 0 0
SMALL
GASTEIGER

@<TRIPOS>ATOM
      1  C          8.3920   -0.5290   -2.2470 C.3     1  UNL1        0.1270
      2  C          8.4770   -1.8510   -2.9200 C.2     1  UNL1        0.3030
      3  O          9.5500   -2.4850   -3.0870 O.2     1  UNL1       -0.2520
      4  O          7.3150   -2.4370   -3.3980 O.3     1  UNL1       -0.4810
      5  H          6.5620   -1.7940   -3.6560 H       1  UNL1        0.2960
      6  C          6.9570   -0.0960   -2.1770 C.3     1  UNL1        0.0470
      7  C          6.4440    0.0780   -0.8200 C.2     1  UNL1       -0.0470
      8  C          5.8280    1.2220   -0.3760 C.2     1  UNL1        0.0040
      9  C          6.5780   -0.9540    0.0750 C.2     1  UNL1        0.0040
     10  C          5.3510    1.3680    0.9040 C.2     1  UNL1        0.0000
     11  C          6.1130   -0.8420    1.3650 C.2     1  UNL1        0.0000
     12  C          5.4900    0.3280    1.7980 C.2     1  UNL1        0.0000
@<TRIPOS>BOND
     1     5     4    1
     2     4     2    1
     3     3     2    2
     4     2     1    1
     5     1     6    1
     6     6     7    1
     7     7     8    2
     8     7     9    1
     9     8    10    1
    10     9    11    2
    11    10    12    2
    12    11    12    1
