@<TRIPOS>MOLECULE
/home/cewinharhar/GITHUB/reincatalyze/data/processed/docking_pred/2023-Apr-25-2140_maxeplen10_maxtrainstep200_exh16_gamma099_lrac3e-4_lrcr1e-3/db57195a81496af8cffcd6b4d9524a1fe0637e4f_ligand_2.pdbqt
 12 12 0 0 0
SMALL
GASTEIGER

@<TRIPOS>ATOM
      1  C          8.4560   -0.6230   -2.1500 C.3     1  UNL1        0.1270
      2  C          8.5130   -1.9020   -2.9050 C.2     1  UNL1        0.3030
      3  O          9.5700   -2.5530   -3.1030 O.2     1  UNL1       -0.2520
      4  O          7.3390   -2.4240   -3.4280 O.3     1  UNL1       -0.4810
      5  H          6.4740   -2.1330   -2.9670 H       1  UNL1        0.2960
      6  C          7.0400   -0.1290   -2.1100 C.3     1  UNL1        0.0470
      7  C          6.4900    0.0220   -0.7650 C.2     1  UNL1       -0.0470
      8  C          6.5740   -0.9450    0.2070 C.2     1  UNL1        0.0040
      9  C          5.8490    1.1910   -0.4380 C.2     1  UNL1        0.0040
     10  C          6.0510   -0.7870    1.4680 C.2     1  UNL1        0.0000
     11  C          5.3140    1.3820    0.8140 C.2     1  UNL1        0.0000
     12  C          5.4090    0.3900    1.7890 C.2     1  UNL1        0.0000
@<TRIPOS>BOND
     1     4     5    1
     2     4     2    1
     3     3     2    2
     4     2     1    1
     5     1     6    1
     6     6     7    1
     7     7     9    2
     8     7     8    1
     9     9    11    1
    10     8    10    2
    11    11    12    2
    12    10    12    1
