MODEL 1
REMARK VINA RESULT:      -7.4      0.000      0.000
REMARK SMILES O=C(O)CCc1ccccc1
REMARK SMILES IDX 4 1 2 2 1 3 3 4 5 6 6 7 7 8 11 9 8 10 10 11 9 12
REMARK H PARENT 3 5
REMARK Flexibility Score: inf
ROOT
ATOM      1  C   UNL     1       8.456  -0.623  -2.150  1.00  0.00     0.127 C 
ENDROOT
BRANCH   1   2
ATOM      2  C   UNL     1       8.513  -1.902  -2.905  1.00  0.00     0.303 C 
ATOM      3  O   UNL     1       9.570  -2.553  -3.103  1.00  0.00    -0.252 OA
BRANCH   2   4
ATOM      4  O   UNL     1       7.339  -2.424  -3.428  1.00  0.00    -0.481 OA
ATOM      5  H   UNL     1       6.474  -2.133  -2.967  1.00  0.00     0.296 HD
ENDBRANCH   2   4
ENDBRANCH   1   2
BRANCH   1   6
ATOM      6  C   UNL     1       7.040  -0.129  -2.110  1.00  0.00     0.047 C 
BRANCH   6   7
ATOM      7  C   UNL     1       6.490   0.022  -0.765  1.00  0.00    -0.047 A 
ATOM      8  C   UNL     1       6.574  -0.945   0.207  1.00  0.00     0.004 A 
ATOM      9  C   UNL     1       5.849   1.191  -0.438  1.00  0.00     0.004 A 
ATOM     10  C   UNL     1       6.051  -0.787   1.468  1.00  0.00     0.000 A 
ATOM     11  C   UNL     1       5.314   1.382   0.814  1.00  0.00     0.000 A 
ATOM     12  C   UNL     1       5.409   0.390   1.789  1.00  0.00     0.000 A 
ENDBRANCH   6   7
ENDBRANCH   1   6
TORSDOF 4
ENDMDL
MODEL 2
REMARK VINA RESULT:      -7.3      0.102      1.427
REMARK SMILES O=C(O)CCc1ccccc1
REMARK SMILES IDX 4 1 2 2 1 3 3 4 5 6 6 7 7 8 11 9 8 10 10 11 9 12
REMARK H PARENT 3 5
REMARK Flexibility Score: inf
ROOT
ATOM      1  C   UNL     1       8.392  -0.529  -2.247  1.00  0.00     0.127 C 
ENDROOT
BRANCH   1   2
ATOM      2  C   UNL     1       8.477  -1.851  -2.920  1.00  0.00     0.303 C 
ATOM      3  O   UNL     1       9.550  -2.485  -3.087  1.00  0.00    -0.252 OA
BRANCH   2   4
ATOM      4  O   UNL     1       7.315  -2.437  -3.398  1.00  0.00    -0.481 OA
ATOM      5  H   UNL     1       6.562  -1.794  -3.656  1.00  0.00     0.296 HD
ENDBRANCH   2   4
ENDBRANCH   1   2
BRANCH   1   6
ATOM      6  C   UNL     1       6.957  -0.096  -2.177  1.00  0.00     0.047 C 
BRANCH   6   7
ATOM      7  C   UNL     1       6.444   0.078  -0.820  1.00  0.00    -0.047 A 
ATOM      8  C   UNL     1       5.828   1.222  -0.376  1.00  0.00     0.004 A 
ATOM      9  C   UNL     1       6.578  -0.954   0.075  1.00  0.00     0.004 A 
ATOM     10  C   UNL     1       5.351   1.368   0.904  1.00  0.00     0.000 A 
ATOM     11  C   UNL     1       6.113  -0.842   1.365  1.00  0.00     0.000 A 
ATOM     12  C   UNL     1       5.490   0.328   1.798  1.00  0.00     0.000 A 
ENDBRANCH   6   7
ENDBRANCH   1   6
TORSDOF 4
ENDMDL
MODEL 3
REMARK VINA RESULT:      -7.1      0.633      1.588
REMARK SMILES O=C(O)CCc1ccccc1
REMARK SMILES IDX 4 1 2 2 1 3 3 4 5 6 6 7 7 8 11 9 8 10 10 11 9 12
REMARK H PARENT 3 5
REMARK Flexibility Score: inf
ROOT
ATOM      1  C   UNL     1       8.337  -0.801  -1.976  1.00  0.00     0.127 C 
ENDROOT
BRANCH   1   2
ATOM      2  C   UNL     1       8.461  -1.991  -2.857  1.00  0.00     0.303 C 
ATOM      3  O   UNL     1       9.550  -2.569  -3.106  1.00  0.00    -0.252 OA
BRANCH   2   4
ATOM      4  O   UNL     1       7.319  -2.510  -3.448  1.00  0.00    -0.481 OA
ATOM      5  H   UNL     1       6.941  -1.979  -4.236  1.00  0.00     0.296 HD
ENDBRANCH   2   4
ENDBRANCH   1   2
BRANCH   1   6
ATOM      6  C   UNL     1       7.737  -1.212  -0.663  1.00  0.00     0.047 C 
BRANCH   6   7
ATOM      7  C   UNL     1       6.782  -0.255  -0.110  1.00  0.00    -0.047 A 
ATOM      8  C   UNL     1       6.306   0.835  -0.798  1.00  0.00     0.004 A 
ATOM      9  C   UNL     1       6.324  -0.441   1.171  1.00  0.00     0.004 A 
ATOM     10  C   UNL     1       5.408   1.726  -0.262  1.00  0.00     0.000 A 
ATOM     11  C   UNL     1       5.425   0.432   1.739  1.00  0.00     0.000 A 
ATOM     12  C   UNL     1       4.953   1.533   1.025  1.00  0.00     0.000 A 
ENDBRANCH   6   7
ENDBRANCH   1   6
TORSDOF 4
ENDMDL
MODEL 4
REMARK VINA RESULT:      -6.8      3.371      5.073
REMARK SMILES O=C(O)CCc1ccccc1
REMARK SMILES IDX 4 1 2 2 1 3 3 4 5 6 6 7 7 8 11 9 8 10 10 11 9 12
REMARK H PARENT 3 5
REMARK Flexibility Score: inf
ROOT
ATOM      1  C   UNL     1       5.004   1.794   0.698  1.00  0.00     0.127 C 
ENDROOT
BRANCH   1   2
ATOM      2  C   UNL     1       4.513   1.091   1.912  1.00  0.00     0.303 C 
ATOM      3  O   UNL     1       5.149   0.179   2.499  1.00  0.00    -0.252 OA
BRANCH   2   4
ATOM      4  O   UNL     1       3.284   1.449   2.443  1.00  0.00    -0.481 OA
ATOM      5  H   UNL     1       2.565   1.721   1.768  1.00  0.00     0.296 HD
ENDBRANCH   2   4
ENDBRANCH   1   2
BRANCH   1   6
ATOM      6  C   UNL     1       6.504   1.807   0.700  1.00  0.00     0.047 C 
BRANCH   6   7
ATOM      7  C   UNL     1       7.116   1.018  -0.366  1.00  0.00    -0.047 A 
ATOM      8  C   UNL     1       6.439   0.083  -1.111  1.00  0.00     0.004 A 
ATOM      9  C   UNL     1       8.445   1.209  -0.652  1.00  0.00     0.004 A 
ATOM     10  C   UNL     1       7.031  -0.651  -2.111  1.00  0.00     0.000 A 
ATOM     11  C   UNL     1       9.070   0.491  -1.646  1.00  0.00     0.000 A 
ATOM     12  C   UNL     1       8.366  -0.453  -2.391  1.00  0.00     0.000 A 
ENDBRANCH   6   7
ENDBRANCH   1   6
TORSDOF 4
ENDMDL
MODEL 5
REMARK VINA RESULT:      -6.8      3.378      5.092
REMARK SMILES O=C(O)CCc1ccccc1
REMARK SMILES IDX 4 1 2 2 1 3 3 4 5 6 6 7 7 8 11 9 8 10 10 11 9 12
REMARK H PARENT 3 5
REMARK Flexibility Score: inf
ROOT
ATOM      1  C   UNL     1       5.049   1.831   0.732  1.00  0.00     0.127 C 
ENDROOT
BRANCH   1   2
ATOM      2  C   UNL     1       4.533   1.119   1.930  1.00  0.00     0.303 C 
ATOM      3  O   UNL     1       5.165   0.216   2.535  1.00  0.00    -0.252 OA
BRANCH   2   4
ATOM      4  O   UNL     1       3.283   1.457   2.424  1.00  0.00    -0.481 OA
ATOM      5  H   UNL     1       2.690   0.677   2.717  1.00  0.00     0.296 HD
ENDBRANCH   2   4
ENDBRANCH   1   2
BRANCH   1   6
ATOM      6  C   UNL     1       6.549   1.826   0.755  1.00  0.00     0.047 C 
BRANCH   6   7
ATOM      7  C   UNL     1       7.167   1.062  -0.327  1.00  0.00    -0.047 A 
ATOM      8  C   UNL     1       8.494   1.158  -0.669  1.00  0.00     0.004 A 
ATOM      9  C   UNL     1       6.390   0.195  -1.053  1.00  0.00     0.004 A 
ATOM     10  C   UNL     1       9.059   0.432  -1.689  1.00  0.00     0.000 A 
ATOM     11  C   UNL     1       6.922  -0.547  -2.082  1.00  0.00     0.000 A 
ATOM     12  C   UNL     1       8.272  -0.437  -2.414  1.00  0.00     0.000 A 
ENDBRANCH   6   7
ENDBRANCH   1   6
TORSDOF 4
ENDMDL
