@<TRIPOS>MOLECULE
/home/cewinharhar/GITHUB/reincatalyze/data/processed/docking_pred/2023-Apr-25-2140_maxeplen10_maxtrainstep200_exh16_gamma099_lrac3e-4_lrcr1e-3/db57195a81496af8cffcd6b4d9524a1fe0637e4f_ligand_2.pdbqt
 12 12 0 0 0
SMALL
GASTEIGER

@<TRIPOS>ATOM
      1  C          8.3370   -0.8010   -1.9760 C.3     1  UNL1        0.1270
      2  C          8.4610   -1.9910   -2.8570 C.2     1  UNL1        0.3030
      3  O          9.5500   -2.5690   -3.1060 O.2     1  UNL1       -0.2520
      4  O          7.3190   -2.5100   -3.4480 O.3     1  UNL1       -0.4810
      5  H          6.9410   -1.9790   -4.2360 H       1  UNL1        0.2960
      6  C          7.7370   -1.2120   -0.6630 C.3     1  UNL1        0.0470
      7  C          6.7820   -0.2550   -0.1100 C.2     1  UNL1       -0.0470
      8  C          6.3060    0.8350   -0.7980 C.2     1  UNL1        0.0040
      9  C          6.3240   -0.4410    1.1710 C.2     1  UNL1        0.0040
     10  C          5.4080    1.7260   -0.2620 C.2     1  UNL1        0.0000
     11  C          5.4250    0.4320    1.7390 C.2     1  UNL1        0.0000
     12  C          4.9530    1.5330    1.0250 C.2     1  UNL1        0.0000
@<TRIPOS>BOND
     1     5     4    1
     2     4     2    1
     3     3     2    2
     4     2     1    1
     5     1     6    1
     6     8    10    1
     7     8     7    2
     8     6     7    1
     9    10    12    2
    10     7     9    1
    11    12    11    1
    12     9    11    2
