@<TRIPOS>MOLECULE
/home/cewinharhar/GITHUB/reincatalyze/data/processed/docking_pred/2023-Apr-25-2140_maxeplen10_maxtrainstep200_exh16_gamma099_lrac3e-4_lrcr1e-3/db57195a81496af8cffcd6b4d9524a1fe0637e4f_ligand_2.pdbqt
 12 12 0 0 0
SMALL
GASTEIGER

@<TRIPOS>ATOM
      1  C          5.0490    1.8310    0.7320 C.3     1  UNL1        0.1270
      2  C          4.5330    1.1190    1.9300 C.2     1  UNL1        0.3030
      3  O          5.1650    0.2160    2.5350 O.2     1  UNL1       -0.2520
      4  O          3.2830    1.4570    2.4240 O.3     1  UNL1       -0.4810
      5  H          2.6900    0.6770    2.7170 H       1  UNL1        0.2960
      6  C          6.5490    1.8260    0.7550 C.3     1  UNL1        0.0470
      7  C          7.1670    1.0620   -0.3270 C.2     1  UNL1       -0.0470
      8  C          8.4940    1.1580   -0.6690 C.2     1  UNL1        0.0040
      9  C          6.3900    0.1950   -1.0530 C.2     1  UNL1        0.0040
     10  C          9.0590    0.4320   -1.6890 C.2     1  UNL1        0.0000
     11  C          6.9220   -0.5470   -2.0820 C.2     1  UNL1        0.0000
     12  C          8.2720   -0.4370   -2.4140 C.2     1  UNL1        0.0000
@<TRIPOS>BOND
     1    12    11    2
     2    12    10    1
     3    11     9    1
     4    10     8    2
     5     9     7    2
     6     8     7    1
     7     7     6    1
     8     1     6    1
     9     1     2    1
    10     2     4    1
    11     2     3    2
    12     4     5    1
