@<TRIPOS>MOLECULE
/home/cewinharhar/GITHUB/reincatalyze/data/processed/docking_pred/2023-Apr-25-2140_maxeplen10_maxtrainstep200_exh16_gamma099_lrac3e-4_lrcr1e-3/db6d960fae65c9d90f474a1e8ae318b6f28ec3f2_ligand_2.pdbqt
 12 12 0 0 0
SMALL
GASTEIGER

@<TRIPOS>ATOM
      1  C          8.2220   -1.6100    1.1350 C.3     1  UNL1        0.1270
      2  C          8.5410   -2.8450    0.3720 C.2     1  UNL1        0.3030
      3  O          9.1950   -3.8100    0.8420 O.2     1  UNL1       -0.2520
      4  O          8.0980   -2.9580   -0.9370 O.3     1  UNL1       -0.4810
      5  H          8.5180   -2.3120   -1.6100 H       1  UNL1        0.2960
      6  C          6.7350   -1.4850    1.2840 C.3     1  UNL1        0.0470
      7  C          6.1820   -0.2250    0.7940 C.2     1  UNL1       -0.0470
      8  C          5.4170    0.6230    1.5570 C.2     1  UNL1        0.0040
      9  C          6.4320    0.1480   -0.5030 C.2     1  UNL1        0.0040
     10  C          4.9050    1.8050    1.0800 C.2     1  UNL1        0.0000
     11  C          5.9350    1.3250   -1.0140 C.2     1  UNL1        0.0000
     12  C          5.1600    2.1720   -0.2240 C.2     1  UNL1        0.0000
@<TRIPOS>BOND
     1     5     4    1
     2    11     9    1
     3    11    12    2
     4     4     2    1
     5     9     7    2
     6    12    10    1
     7     2     3    2
     8     2     1    1
     9     7     6    1
    10     7     8    1
    11    10     8    2
    12     1     6    1
