MODEL 1
REMARK VINA RESULT:      -7.3      0.000      0.000
REMARK SMILES O=C(O)CCc1ccccc1
REMARK SMILES IDX 4 1 2 2 1 3 3 4 5 6 6 7 7 8 11 9 8 10 10 11 9 12
REMARK H PARENT 3 5
REMARK Flexibility Score: inf
ROOT
ATOM      1  C   UNL     1       8.437  -0.523  -2.258  1.00  0.00     0.127 C 
ENDROOT
BRANCH   1   2
ATOM      2  C   UNL     1       8.512  -1.842  -2.937  1.00  0.00     0.303 C 
ATOM      3  O   UNL     1       9.580  -2.485  -3.106  1.00  0.00    -0.252 OA
BRANCH   2   4
ATOM      4  O   UNL     1       7.345  -2.415  -3.420  1.00  0.00    -0.481 OA
ATOM      5  H   UNL     1       6.610  -1.763  -3.703  1.00  0.00     0.296 HD
ENDBRANCH   2   4
ENDBRANCH   1   2
BRANCH   1   6
ATOM      6  C   UNL     1       7.004  -0.086  -2.172  1.00  0.00     0.047 C 
BRANCH   6   7
ATOM      7  C   UNL     1       6.491   0.039  -0.810  1.00  0.00    -0.047 A 
ATOM      8  C   UNL     1       6.597  -0.948   0.140  1.00  0.00     0.004 A 
ATOM      9  C   UNL     1       5.863   1.203  -0.442  1.00  0.00     0.004 A 
ATOM     10  C   UNL     1       6.109  -0.814   1.418  1.00  0.00     0.000 A 
ATOM     11  C   UNL     1       5.362   1.371   0.828  1.00  0.00     0.000 A 
ATOM     12  C   UNL     1       5.479   0.358   1.779  1.00  0.00     0.000 A 
ENDBRANCH   6   7
ENDBRANCH   1   6
TORSDOF 4
ENDMDL
MODEL 2
REMARK VINA RESULT:      -7.3      0.050      1.426
REMARK SMILES O=C(O)CCc1ccccc1
REMARK SMILES IDX 4 1 2 2 1 3 3 4 5 6 6 7 7 8 11 9 8 10 10 11 9 12
REMARK H PARENT 3 5
REMARK Flexibility Score: inf
ROOT
ATOM      1  C   UNL     1       8.431  -0.543  -2.257  1.00  0.00     0.127 C 
ENDROOT
BRANCH   1   2
ATOM      2  C   UNL     1       8.511  -1.865  -2.931  1.00  0.00     0.303 C 
ATOM      3  O   UNL     1       9.583  -2.496  -3.113  1.00  0.00    -0.252 OA
BRANCH   2   4
ATOM      4  O   UNL     1       7.344  -2.454  -3.393  1.00  0.00    -0.481 OA
ATOM      5  H   UNL     1       7.125  -3.377  -3.009  1.00  0.00     0.296 HD
ENDBRANCH   2   4
ENDBRANCH   1   2
BRANCH   1   6
ATOM      6  C   UNL     1       6.999  -0.099  -2.198  1.00  0.00     0.047 C 
BRANCH   6   7
ATOM      7  C   UNL     1       6.478   0.085  -0.846  1.00  0.00    -0.047 A 
ATOM      8  C   UNL     1       5.872   1.237  -0.410  1.00  0.00     0.004 A 
ATOM      9  C   UNL     1       6.596  -0.945   0.055  1.00  0.00     0.004 A 
ATOM     10  C   UNL     1       5.388   1.393   0.867  1.00  0.00     0.000 A 
ATOM     11  C   UNL     1       6.123  -0.823   1.341  1.00  0.00     0.000 A 
ATOM     12  C   UNL     1       5.510   0.355   1.765  1.00  0.00     0.000 A 
ENDBRANCH   6   7
ENDBRANCH   1   6
TORSDOF 4
ENDMDL
MODEL 3
REMARK VINA RESULT:      -6.8      3.352      5.050
REMARK SMILES O=C(O)CCc1ccccc1
REMARK SMILES IDX 4 1 2 2 1 3 3 4 5 6 6 7 7 8 11 9 8 10 10 11 9 12
REMARK H PARENT 3 5
REMARK Flexibility Score: inf
ROOT
ATOM      1  C   UNL     1       5.040   1.787   0.688  1.00  0.00     0.127 C 
ENDROOT
BRANCH   1   2
ATOM      2  C   UNL     1       4.558   1.083   1.905  1.00  0.00     0.303 C 
ATOM      3  O   UNL     1       5.206   0.184   2.498  1.00  0.00    -0.252 OA
BRANCH   2   4
ATOM      4  O   UNL     1       3.321   1.425   2.432  1.00  0.00    -0.481 OA
ATOM      5  H   UNL     1       2.573   0.740   2.301  1.00  0.00     0.296 HD
ENDBRANCH   2   4
ENDBRANCH   1   2
BRANCH   1   6
ATOM      6  C   UNL     1       6.540   1.790   0.675  1.00  0.00     0.047 C 
BRANCH   6   7
ATOM      7  C   UNL     1       7.137   0.993  -0.394  1.00  0.00    -0.047 A 
ATOM      8  C   UNL     1       6.432   0.107  -1.171  1.00  0.00     0.004 A 
ATOM      9  C   UNL     1       8.480   1.124  -0.648  1.00  0.00     0.004 A 
ATOM     10  C   UNL     1       7.009  -0.636  -2.173  1.00  0.00     0.000 A 
ATOM     11  C   UNL     1       9.090   0.396  -1.643  1.00  0.00     0.000 A 
ATOM     12  C   UNL     1       8.358  -0.498  -2.422  1.00  0.00     0.000 A 
ENDBRANCH   6   7
ENDBRANCH   1   6
TORSDOF 4
ENDMDL
MODEL 4
REMARK VINA RESULT:      -6.7      3.833      4.970
REMARK SMILES O=C(O)CCc1ccccc1
REMARK SMILES IDX 4 1 2 2 1 3 3 4 5 6 6 7 7 8 11 9 8 10 10 11 9 12
REMARK H PARENT 3 5
REMARK Flexibility Score: inf
ROOT
ATOM      1  C   UNL     1       5.445   2.877   0.009  1.00  0.00     0.127 C 
ENDROOT
BRANCH   1   2
ATOM      2  C   UNL     1       6.254   3.852   0.786  1.00  0.00     0.303 C 
ATOM      3  O   UNL     1       6.934   4.772   0.264  1.00  0.00    -0.252 OA
BRANCH   2   4
ATOM      4  O   UNL     1       6.271   3.758   2.169  1.00  0.00    -0.481 OA
ATOM      5  H   UNL     1       6.533   4.608   2.673  1.00  0.00     0.296 HD
ENDBRANCH   2   4
ENDBRANCH   1   2
BRANCH   1   6
ATOM      6  C   UNL     1       4.936   1.806   0.928  1.00  0.00     0.047 C 
BRANCH   6   7
ATOM      7  C   UNL     1       5.731   0.580   0.927  1.00  0.00    -0.047 A 
ATOM      8  C   UNL     1       6.465   0.146  -0.149  1.00  0.00     0.004 A 
ATOM      9  C   UNL     1       5.755  -0.194   2.060  1.00  0.00     0.004 A 
ATOM     10  C   UNL     1       7.207  -1.010  -0.133  1.00  0.00     0.000 A 
ATOM     11  C   UNL     1       6.487  -1.358   2.111  1.00  0.00     0.000 A 
ATOM     12  C   UNL     1       7.226  -1.782   1.008  1.00  0.00     0.000 A 
ENDBRANCH   6   7
ENDBRANCH   1   6
TORSDOF 4
ENDMDL
MODEL 5
REMARK VINA RESULT:      -6.5      1.910      2.904
REMARK SMILES O=C(O)CCc1ccccc1
REMARK SMILES IDX 4 1 2 2 1 3 3 4 5 6 6 7 7 8 11 9 8 10 10 11 9 12
REMARK H PARENT 3 5
REMARK Flexibility Score: inf
ROOT
ATOM      1  C   UNL     1       8.222  -1.610   1.135  1.00  0.00     0.127 C 
ENDROOT
BRANCH   1   2
ATOM      2  C   UNL     1       8.541  -2.845   0.372  1.00  0.00     0.303 C 
ATOM      3  O   UNL     1       9.195  -3.810   0.842  1.00  0.00    -0.252 OA
BRANCH   2   4
ATOM      4  O   UNL     1       8.098  -2.958  -0.937  1.00  0.00    -0.481 OA
ATOM      5  H   UNL     1       8.518  -2.312  -1.610  1.00  0.00     0.296 HD
ENDBRANCH   2   4
ENDBRANCH   1   2
BRANCH   1   6
ATOM      6  C   UNL     1       6.735  -1.485   1.284  1.00  0.00     0.047 C 
BRANCH   6   7
ATOM      7  C   UNL     1       6.182  -0.225   0.794  1.00  0.00    -0.047 A 
ATOM      8  C   UNL     1       5.417   0.623   1.557  1.00  0.00     0.004 A 
ATOM      9  C   UNL     1       6.432   0.148  -0.503  1.00  0.00     0.004 A 
ATOM     10  C   UNL     1       4.905   1.805   1.080  1.00  0.00     0.000 A 
ATOM     11  C   UNL     1       5.935   1.325  -1.014  1.00  0.00     0.000 A 
ATOM     12  C   UNL     1       5.160   2.172  -0.224  1.00  0.00     0.000 A 
ENDBRANCH   6   7
ENDBRANCH   1   6
TORSDOF 4
ENDMDL
