@<TRIPOS>MOLECULE
/home/cewinharhar/GITHUB/reincatalyze/data/processed/docking_pred/2023-Apr-25-2140_maxeplen10_maxtrainstep200_exh16_gamma099_lrac3e-4_lrcr1e-3/db6d960fae65c9d90f474a1e8ae318b6f28ec3f2_ligand_2.pdbqt
 12 12 0 0 0
SMALL
GASTEIGER

@<TRIPOS>ATOM
      1  C          5.0400    1.7870    0.6880 C.3     1  UNL1        0.1270
      2  C          4.5580    1.0830    1.9050 C.2     1  UNL1        0.3030
      3  O          5.2060    0.1840    2.4980 O.2     1  UNL1       -0.2520
      4  O          3.3210    1.4250    2.4320 O.3     1  UNL1       -0.4810
      5  H          2.5730    0.7400    2.3010 H       1  UNL1        0.2960
      6  C          6.5400    1.7900    0.6750 C.3     1  UNL1        0.0470
      7  C          7.1370    0.9930   -0.3940 C.2     1  UNL1       -0.0470
      8  C          6.4320    0.1070   -1.1710 C.2     1  UNL1        0.0040
      9  C          8.4800    1.1240   -0.6480 C.2     1  UNL1        0.0040
     10  C          7.0090   -0.6360   -2.1730 C.2     1  UNL1        0.0000
     11  C          9.0900    0.3960   -1.6430 C.2     1  UNL1        0.0000
     12  C          8.3580   -0.4980   -2.4220 C.2     1  UNL1        0.0000
@<TRIPOS>BOND
     1    12    10    2
     2    12    11    1
     3    10     8    1
     4    11     9    2
     5     8     7    2
     6     9     7    1
     7     7     6    1
     8     6     1    1
     9     1     2    1
    10     2     4    1
    11     2     3    2
    12     5     4    1
