@<TRIPOS>MOLECULE
/home/cewinharhar/GITHUB/reincatalyze/data/processed/docking_pred/2023-Apr-25-2140_maxeplen10_maxtrainstep200_exh16_gamma099_lrac3e-4_lrcr1e-3/db6d960fae65c9d90f474a1e8ae318b6f28ec3f2_ligand_2.pdbqt
 12 12 0 0 0
SMALL
GASTEIGER

@<TRIPOS>ATOM
      1  C          5.4450    2.8770    0.0090 C.3     1  UNL1        0.1270
      2  C          6.2540    3.8520    0.7860 C.2     1  UNL1        0.3030
      3  O          6.9340    4.7720    0.2640 O.2     1  UNL1       -0.2520
      4  O          6.2710    3.7580    2.1690 O.3     1  UNL1       -0.4810
      5  H          6.5330    4.6080    2.6730 H       1  UNL1        0.2960
      6  C          4.9360    1.8060    0.9280 C.3     1  UNL1        0.0470
      7  C          5.7310    0.5800    0.9270 C.2     1  UNL1       -0.0470
      8  C          6.4650    0.1460   -0.1490 C.2     1  UNL1        0.0040
      9  C          5.7550   -0.1940    2.0600 C.2     1  UNL1        0.0040
     10  C          7.2070   -1.0100   -0.1330 C.2     1  UNL1        0.0000
     11  C          6.4870   -1.3580    2.1110 C.2     1  UNL1        0.0000
     12  C          7.2260   -1.7820    1.0080 C.2     1  UNL1        0.0000
@<TRIPOS>BOND
     1     8    10    1
     2     8     7    2
     3    10    12    2
     4     1     2    1
     5     1     6    1
     6     3     2    2
     7     2     4    1
     8     7     6    1
     9     7     9    1
    10    12    11    1
    11     9    11    2
    12     4     5    1
