@<TRIPOS>MOLECULE
/home/cewinharhar/GITHUB/reincatalyze/data/processed/docking_pred/2023-Apr-25-2140_maxeplen10_maxtrainstep200_exh16_gamma099_lrac3e-4_lrcr1e-3/db6d960fae65c9d90f474a1e8ae318b6f28ec3f2_ligand_2.pdbqt
 12 12 0 0 0
SMALL
GASTEIGER

@<TRIPOS>ATOM
      1  C          8.4370   -0.5230   -2.2580 C.3     1  UNL1        0.1270
      2  C          8.5120   -1.8420   -2.9370 C.2     1  UNL1        0.3030
      3  O          9.5800   -2.4850   -3.1060 O.2     1  UNL1       -0.2520
      4  O          7.3450   -2.4150   -3.4200 O.3     1  UNL1       -0.4810
      5  H          6.6100   -1.7630   -3.7030 H       1  UNL1        0.2960
      6  C          7.0040   -0.0860   -2.1720 C.3     1  UNL1        0.0470
      7  C          6.4910    0.0390   -0.8100 C.2     1  UNL1       -0.0470
      8  C          6.5970   -0.9480    0.1400 C.2     1  UNL1        0.0040
      9  C          5.8630    1.2030   -0.4420 C.2     1  UNL1        0.0040
     10  C          6.1090   -0.8140    1.4180 C.2     1  UNL1        0.0000
     11  C          5.3620    1.3710    0.8280 C.2     1  UNL1        0.0000
     12  C          5.4790    0.3580    1.7790 C.2     1  UNL1        0.0000
@<TRIPOS>BOND
     1     5     4    1
     2     4     2    1
     3     3     2    2
     4     2     1    1
     5     1     6    1
     6     6     7    1
     7     7     9    2
     8     7     8    1
     9     9    11    1
    10     8    10    2
    11    11    12    2
    12    10    12    1
