MODEL 1
REMARK VINA RESULT:      -7.3      0.000      0.000
REMARK SMILES O=C(O)CCc1ccccc1
REMARK SMILES IDX 4 1 2 2 1 3 3 4 5 6 6 7 7 8 11 9 8 10 10 11 9 12
REMARK H PARENT 3 5
REMARK Flexibility Score: inf
ROOT
ATOM      1  C   UNL     1       8.480  -0.621  -2.165  1.00  0.00     0.127 C 
ENDROOT
BRANCH   1   2
ATOM      2  C   UNL     1       8.527  -1.909  -2.905  1.00  0.00     0.303 C 
ATOM      3  O   UNL     1       9.580  -2.567  -3.101  1.00  0.00    -0.252 OA
BRANCH   2   4
ATOM      4  O   UNL     1       7.349  -2.432  -3.416  1.00  0.00    -0.481 OA
ATOM      5  H   UNL     1       7.386  -2.756  -4.385  1.00  0.00     0.296 HD
ENDBRANCH   2   4
ENDBRANCH   1   2
BRANCH   1   6
ATOM      6  C   UNL     1       7.066  -0.122  -2.119  1.00  0.00     0.047 C 
BRANCH   6   7
ATOM      7  C   UNL     1       6.516   0.012  -0.772  1.00  0.00    -0.047 A 
ATOM      8  C   UNL     1       6.589  -0.970   0.184  1.00  0.00     0.004 A 
ATOM      9  C   UNL     1       5.888   1.183  -0.427  1.00  0.00     0.004 A 
ATOM     10  C   UNL     1       6.067  -0.827   1.448  1.00  0.00     0.000 A 
ATOM     11  C   UNL     1       5.353   1.360   0.828  1.00  0.00     0.000 A 
ATOM     12  C   UNL     1       5.437   0.352   1.786  1.00  0.00     0.000 A 
ENDBRANCH   6   7
ENDBRANCH   1   6
TORSDOF 4
ENDMDL
MODEL 2
REMARK VINA RESULT:      -7.3      0.093      1.427
REMARK SMILES O=C(O)CCc1ccccc1
REMARK SMILES IDX 4 1 2 2 1 3 3 4 5 6 6 7 7 8 11 9 8 10 10 11 9 12
REMARK H PARENT 3 5
REMARK Flexibility Score: inf
ROOT
ATOM      1  C   UNL     1       8.427  -0.528  -2.248  1.00  0.00     0.127 C 
ENDROOT
BRANCH   1   2
ATOM      2  C   UNL     1       8.516  -1.849  -2.923  1.00  0.00     0.303 C 
ATOM      3  O   UNL     1       9.591  -2.478  -3.095  1.00  0.00    -0.252 OA
BRANCH   2   4
ATOM      4  O   UNL     1       7.354  -2.439  -3.398  1.00  0.00    -0.481 OA
ATOM      5  H   UNL     1       7.059  -3.294  -2.922  1.00  0.00     0.296 HD
ENDBRANCH   2   4
ENDBRANCH   1   2
BRANCH   1   6
ATOM      6  C   UNL     1       6.992  -0.093  -2.190  1.00  0.00     0.047 C 
BRANCH   6   7
ATOM      7  C   UNL     1       6.471   0.092  -0.837  1.00  0.00    -0.047 A 
ATOM      8  C   UNL     1       5.854   1.240  -0.406  1.00  0.00     0.004 A 
ATOM      9  C   UNL     1       6.599  -0.933   0.067  1.00  0.00     0.004 A 
ATOM     10  C   UNL     1       5.369   1.396   0.871  1.00  0.00     0.000 A 
ATOM     11  C   UNL     1       6.126  -0.811   1.353  1.00  0.00     0.000 A 
ATOM     12  C   UNL     1       5.502   0.363   1.773  1.00  0.00     0.000 A 
ENDBRANCH   6   7
ENDBRANCH   1   6
TORSDOF 4
ENDMDL
MODEL 3
REMARK VINA RESULT:      -6.7      3.367      5.071
REMARK SMILES O=C(O)CCc1ccccc1
REMARK SMILES IDX 4 1 2 2 1 3 3 4 5 6 6 7 7 8 11 9 8 10 10 11 9 12
REMARK H PARENT 3 5
REMARK Flexibility Score: inf
ROOT
ATOM      1  C   UNL     1       5.016   1.803   0.689  1.00  0.00     0.127 C 
ENDROOT
BRANCH   1   2
ATOM      2  C   UNL     1       4.516   1.098   1.898  1.00  0.00     0.303 C 
ATOM      3  O   UNL     1       5.143   0.179   2.484  1.00  0.00    -0.252 OA
BRANCH   2   4
ATOM      4  O   UNL     1       3.288   1.464   2.428  1.00  0.00    -0.481 OA
ATOM      5  H   UNL     1       2.690   0.697   2.744  1.00  0.00     0.296 HD
ENDBRANCH   2   4
ENDBRANCH   1   2
BRANCH   1   6
ATOM      6  C   UNL     1       6.517   1.804   0.696  1.00  0.00     0.047 C 
BRANCH   6   7
ATOM      7  C   UNL     1       7.127   1.018  -0.373  1.00  0.00    -0.047 A 
ATOM      8  C   UNL     1       6.443   0.099  -1.131  1.00  0.00     0.004 A 
ATOM      9  C   UNL     1       8.460   1.195  -0.648  1.00  0.00     0.004 A 
ATOM     10  C   UNL     1       7.033  -0.633  -2.134  1.00  0.00     0.000 A 
ATOM     11  C   UNL     1       9.083   0.479  -1.644  1.00  0.00     0.000 A 
ATOM     12  C   UNL     1       8.372  -0.449  -2.404  1.00  0.00     0.000 A 
ENDBRANCH   6   7
ENDBRANCH   1   6
TORSDOF 4
ENDMDL
MODEL 4
REMARK VINA RESULT:      -6.6      2.015      2.687
REMARK SMILES O=C(O)CCc1ccccc1
REMARK SMILES IDX 4 1 2 2 1 3 3 4 5 6 6 7 7 8 11 9 8 10 10 11 9 12
REMARK H PARENT 3 5
REMARK Flexibility Score: inf
ROOT
ATOM      1  C   UNL     1       8.305   0.468  -1.994  1.00  0.00     0.127 C 
ENDROOT
BRANCH   1   2
ATOM      2  C   UNL     1       9.474   0.422  -1.077  1.00  0.00     0.303 C 
ATOM      3  O   UNL     1       9.561  -0.351  -0.090  1.00  0.00    -0.252 OA
BRANCH   2   4
ATOM      4  O   UNL     1      10.542   1.276  -1.310  1.00  0.00    -0.481 OA
ATOM      5  H   UNL     1      10.309   2.186  -1.713  1.00  0.00     0.296 HD
ENDBRANCH   2   4
ENDBRANCH   1   2
BRANCH   1   6
ATOM      6  C   UNL     1       7.212  -0.406  -1.453  1.00  0.00     0.047 C 
BRANCH   6   7
ATOM      7  C   UNL     1       6.387   0.224  -0.425  1.00  0.00    -0.047 A 
ATOM      8  C   UNL     1       5.778   1.446  -0.577  1.00  0.00     0.004 A 
ATOM      9  C   UNL     1       6.201  -0.429   0.768  1.00  0.00     0.004 A 
ATOM     10  C   UNL     1       5.005   2.025   0.400  1.00  0.00     0.000 A 
ATOM     11  C   UNL     1       5.434   0.122   1.769  1.00  0.00     0.000 A 
ATOM     12  C   UNL     1       4.823   1.363   1.596  1.00  0.00     0.000 A 
ENDBRANCH   6   7
ENDBRANCH   1   6
TORSDOF 4
ENDMDL
MODEL 5
REMARK VINA RESULT:      -6.5      1.883      2.846
REMARK SMILES O=C(O)CCc1ccccc1
REMARK SMILES IDX 4 1 2 2 1 3 3 4 5 6 6 7 7 8 11 9 8 10 10 11 9 12
REMARK H PARENT 3 5
REMARK Flexibility Score: inf
ROOT
ATOM      1  C   UNL     1       8.258  -1.533   1.056  1.00  0.00     0.127 C 
ENDROOT
BRANCH   1   2
ATOM      2  C   UNL     1       8.533  -2.790   0.312  1.00  0.00     0.303 C 
ATOM      3  O   UNL     1       9.156  -3.769   0.796  1.00  0.00    -0.252 OA
BRANCH   2   4
ATOM      4  O   UNL     1       8.083  -2.908  -0.994  1.00  0.00    -0.481 OA
ATOM      5  H   UNL     1       7.881  -2.031  -1.480  1.00  0.00     0.296 HD
ENDBRANCH   2   4
ENDBRANCH   1   2
BRANCH   1   6
ATOM      6  C   UNL     1       6.781  -1.403   1.288  1.00  0.00     0.047 C 
BRANCH   6   7
ATOM      7  C   UNL     1       6.198  -0.160   0.786  1.00  0.00    -0.047 A 
ATOM      8  C   UNL     1       5.422   0.680   1.544  1.00  0.00     0.004 A 
ATOM      9  C   UNL     1       6.431   0.201  -0.518  1.00  0.00     0.004 A 
ATOM     10  C   UNL     1       4.881   1.846   1.056  1.00  0.00     0.000 A 
ATOM     11  C   UNL     1       5.905   1.360  -1.040  1.00  0.00     0.000 A 
ATOM     12  C   UNL     1       5.119   2.202  -0.254  1.00  0.00     0.000 A 
ENDBRANCH   6   7
ENDBRANCH   1   6
TORSDOF 4
ENDMDL
