@<TRIPOS>MOLECULE
/home/cewinharhar/GITHUB/reincatalyze/data/processed/docking_pred/2023-Apr-25-2140_maxeplen10_maxtrainstep200_exh16_gamma099_lrac3e-4_lrcr1e-3/dea2b8be3c05a7e32d8e1c0cb085cc688668c765_ligand_2.pdbqt
 12 12 0 0 0
SMALL
GASTEIGER

@<TRIPOS>ATOM
      1  C          8.3050    0.4680   -1.9940 C.3     1  UNL1        0.1270
      2  C          9.4740    0.4220   -1.0770 C.2     1  UNL1        0.3030
      3  O          9.5610   -0.3510   -0.0900 O.2     1  UNL1       -0.2520
      4  O         10.5420    1.2760   -1.3100 O.3     1  UNL1       -0.4810
      5  H         10.3090    2.1860   -1.7130 H       1  UNL1        0.2960
      6  C          7.2120   -0.4060   -1.4530 C.3     1  UNL1        0.0470
      7  C          6.3870    0.2240   -0.4250 C.2     1  UNL1       -0.0470
      8  C          5.7780    1.4460   -0.5770 C.2     1  UNL1        0.0040
      9  C          6.2010   -0.4290    0.7680 C.2     1  UNL1        0.0040
     10  C          5.0050    2.0250    0.4000 C.2     1  UNL1        0.0000
     11  C          5.4340    0.1220    1.7690 C.2     1  UNL1        0.0000
     12  C          4.8230    1.3630    1.5960 C.2     1  UNL1        0.0000
@<TRIPOS>BOND
     1     1     6    1
     2     1     2    1
     3     5     4    1
     4     6     7    1
     5     4     2    1
     6     2     3    2
     7     8     7    2
     8     8    10    1
     9     7     9    1
    10    10    12    2
    11     9    11    2
    12    12    11    1
