@<TRIPOS>MOLECULE
/home/cewinharhar/GITHUB/reincatalyze/data/processed/docking_pred/2023-Apr-25-2140_maxeplen10_maxtrainstep200_exh16_gamma099_lrac3e-4_lrcr1e-3/dea2b8be3c05a7e32d8e1c0cb085cc688668c765_ligand_2.pdbqt
 12 12 0 0 0
SMALL
GASTEIGER

@<TRIPOS>ATOM
      1  C          8.4800   -0.6210   -2.1650 C.3     1  UNL1        0.1270
      2  C          8.5270   -1.9090   -2.9050 C.2     1  UNL1        0.3030
      3  O          9.5800   -2.5670   -3.1010 O.2     1  UNL1       -0.2520
      4  O          7.3490   -2.4320   -3.4160 O.3     1  UNL1       -0.4810
      5  H          7.3860   -2.7560   -4.3850 H       1  UNL1        0.2960
      6  C          7.0660   -0.1220   -2.1190 C.3     1  UNL1        0.0470
      7  C          6.5160    0.0120   -0.7720 C.2     1  UNL1       -0.0470
      8  C          6.5890   -0.9700    0.1840 C.2     1  UNL1        0.0040
      9  C          5.8880    1.1830   -0.4270 C.2     1  UNL1        0.0040
     10  C          6.0670   -0.8270    1.4480 C.2     1  UNL1        0.0000
     11  C          5.3530    1.3600    0.8280 C.2     1  UNL1        0.0000
     12  C          5.4370    0.3520    1.7860 C.2     1  UNL1        0.0000
@<TRIPOS>BOND
     1     5     4    1
     2     4     2    1
     3     3     2    2
     4     2     1    1
     5     1     6    1
     6     6     7    1
     7     7     9    2
     8     7     8    1
     9     9    11    1
    10     8    10    2
    11    11    12    2
    12    10    12    1
