@<TRIPOS>MOLECULE
/home/cewinharhar/GITHUB/reincatalyze/data/processed/docking_pred/2023-Apr-25-2140_maxeplen10_maxtrainstep200_exh16_gamma099_lrac3e-4_lrcr1e-3/dea2b8be3c05a7e32d8e1c0cb085cc688668c765_ligand_2.pdbqt
 12 12 0 0 0
SMALL
GASTEIGER

@<TRIPOS>ATOM
      1  C          8.4270   -0.5280   -2.2480 C.3     1  UNL1        0.1270
      2  C          8.5160   -1.8490   -2.9230 C.2     1  UNL1        0.3030
      3  O          9.5910   -2.4780   -3.0950 O.2     1  UNL1       -0.2520
      4  O          7.3540   -2.4390   -3.3980 O.3     1  UNL1       -0.4810
      5  H          7.0590   -3.2940   -2.9220 H       1  UNL1        0.2960
      6  C          6.9920   -0.0930   -2.1900 C.3     1  UNL1        0.0470
      7  C          6.4710    0.0920   -0.8370 C.2     1  UNL1       -0.0470
      8  C          5.8540    1.2400   -0.4060 C.2     1  UNL1        0.0040
      9  C          6.5990   -0.9330    0.0670 C.2     1  UNL1        0.0040
     10  C          5.3690    1.3960    0.8710 C.2     1  UNL1        0.0000
     11  C          6.1260   -0.8110    1.3530 C.2     1  UNL1        0.0000
     12  C          5.5020    0.3630    1.7730 C.2     1  UNL1        0.0000
@<TRIPOS>BOND
     1     4     2    1
     2     4     5    1
     3     3     2    2
     4     2     1    1
     5     1     6    1
     6     6     7    1
     7     7     8    2
     8     7     9    1
     9     8    10    1
    10     9    11    2
    11    10    12    2
    12    11    12    1
