@<TRIPOS>MOLECULE
/home/cewinharhar/GITHUB/reincatalyze/data/processed/docking_pred/2023-Apr-25-2140_maxeplen10_maxtrainstep200_exh16_gamma099_lrac3e-4_lrcr1e-3/dea2b8be3c05a7e32d8e1c0cb085cc688668c765_ligand_2.pdbqt
 12 12 0 0 0
SMALL
GASTEIGER

@<TRIPOS>ATOM
      1  C          8.2580   -1.5330    1.0560 C.3     1  UNL1        0.1270
      2  C          8.5330   -2.7900    0.3120 C.2     1  UNL1        0.3030
      3  O          9.1560   -3.7690    0.7960 O.2     1  UNL1       -0.2520
      4  O          8.0830   -2.9080   -0.9940 O.3     1  UNL1       -0.4810
      5  H          7.8810   -2.0310   -1.4800 H       1  UNL1        0.2960
      6  C          6.7810   -1.4030    1.2880 C.3     1  UNL1        0.0470
      7  C          6.1980   -0.1600    0.7860 C.2     1  UNL1       -0.0470
      8  C          5.4220    0.6800    1.5440 C.2     1  UNL1        0.0040
      9  C          6.4310    0.2010   -0.5180 C.2     1  UNL1        0.0040
     10  C          4.8810    1.8460    1.0560 C.2     1  UNL1        0.0000
     11  C          5.9050    1.3600   -1.0400 C.2     1  UNL1        0.0000
     12  C          5.1190    2.2020   -0.2540 C.2     1  UNL1        0.0000
@<TRIPOS>BOND
     1     5     4    1
     2    11     9    1
     3    11    12    2
     4     4     2    1
     5     9     7    2
     6    12    10    1
     7     2     3    2
     8     2     1    1
     9     7     6    1
    10     7     8    1
    11     1     6    1
    12    10     8    2
