@<TRIPOS>MOLECULE
/home/cewinharhar/GITHUB/reincatalyze/data/processed/docking_pred/2023-Apr-25-2140_maxeplen10_maxtrainstep200_exh16_gamma099_lrac3e-4_lrcr1e-3/dea2b8be3c05a7e32d8e1c0cb085cc688668c765_ligand_2.pdbqt
 12 12 0 0 0
SMALL
GASTEIGER

@<TRIPOS>ATOM
      1  C          5.0160    1.8030    0.6890 C.3     1  UNL1        0.1270
      2  C          4.5160    1.0980    1.8980 C.2     1  UNL1        0.3030
      3  O          5.1430    0.1790    2.4840 O.2     1  UNL1       -0.2520
      4  O          3.2880    1.4640    2.4280 O.3     1  UNL1       -0.4810
      5  H          2.6900    0.6970    2.7440 H       1  UNL1        0.2960
      6  C          6.5170    1.8040    0.6960 C.3     1  UNL1        0.0470
      7  C          7.1270    1.0180   -0.3730 C.2     1  UNL1       -0.0470
      8  C          6.4430    0.0990   -1.1310 C.2     1  UNL1        0.0040
      9  C          8.4600    1.1950   -0.6480 C.2     1  UNL1        0.0040
     10  C          7.0330   -0.6330   -2.1340 C.2     1  UNL1        0.0000
     11  C          9.0830    0.4790   -1.6440 C.2     1  UNL1        0.0000
     12  C          8.3720   -0.4490   -2.4040 C.2     1  UNL1        0.0000
@<TRIPOS>BOND
     1    12    10    2
     2    12    11    1
     3    10     8    1
     4    11     9    2
     5     8     7    2
     6     9     7    1
     7     7     6    1
     8     1     6    1
     9     1     2    1
    10     2     4    1
    11     2     3    2
    12     4     5    1
