MODEL 1
REMARK VINA RESULT:      -7.4      0.000      0.000
REMARK SMILES O=C(O)CCc1ccccc1
REMARK SMILES IDX 4 1 2 2 1 3 3 4 5 6 6 7 7 8 11 9 8 10 10 11 9 12
REMARK H PARENT 3 5
REMARK Flexibility Score: inf
ROOT
ATOM      1  C   UNL     1       8.452  -0.571  -2.224  1.00  0.00     0.127 C 
ENDROOT
BRANCH   1   2
ATOM      2  C   UNL     1       8.519  -1.883  -2.920  1.00  0.00     0.303 C 
ATOM      3  O   UNL     1       9.582  -2.533  -3.091  1.00  0.00    -0.252 OA
BRANCH   2   4
ATOM      4  O   UNL     1       7.350  -2.438  -3.417  1.00  0.00    -0.481 OA
ATOM      5  H   UNL     1       6.727  -1.800  -3.917  1.00  0.00     0.296 HD
ENDBRANCH   2   4
ENDBRANCH   1   2
BRANCH   1   6
ATOM      6  C   UNL     1       7.024  -0.117  -2.151  1.00  0.00     0.047 C 
BRANCH   6   7
ATOM      7  C   UNL     1       6.503   0.020  -0.793  1.00  0.00    -0.047 A 
ATOM      8  C   UNL     1       6.599  -0.959   0.165  1.00  0.00     0.004 A 
ATOM      9  C   UNL     1       5.878   1.190  -0.438  1.00  0.00     0.004 A 
ATOM     10  C   UNL     1       6.103  -0.814   1.439  1.00  0.00     0.000 A 
ATOM     11  C   UNL     1       5.369   1.369   0.828  1.00  0.00     0.000 A 
ATOM     12  C   UNL     1       5.477   0.363   1.787  1.00  0.00     0.000 A 
ENDBRANCH   6   7
ENDBRANCH   1   6
TORSDOF 4
ENDMDL
MODEL 2
REMARK VINA RESULT:      -7.3      0.069      1.426
REMARK SMILES O=C(O)CCc1ccccc1
REMARK SMILES IDX 4 1 2 2 1 3 3 4 5 6 6 7 7 8 11 9 8 10 10 11 9 12
REMARK H PARENT 3 5
REMARK Flexibility Score: inf
ROOT
ATOM      1  C   UNL     1       8.404  -0.524  -2.251  1.00  0.00     0.127 C 
ENDROOT
BRANCH   1   2
ATOM      2  C   UNL     1       8.494  -1.844  -2.929  1.00  0.00     0.303 C 
ATOM      3  O   UNL     1       9.567  -2.479  -3.087  1.00  0.00    -0.252 OA
BRANCH   2   4
ATOM      4  O   UNL     1       7.335  -2.425  -3.421  1.00  0.00    -0.481 OA
ATOM      5  H   UNL     1       6.872  -3.094  -2.803  1.00  0.00     0.296 HD
ENDBRANCH   2   4
ENDBRANCH   1   2
BRANCH   1   6
ATOM      6  C   UNL     1       6.969  -0.093  -2.186  1.00  0.00     0.047 C 
BRANCH   6   7
ATOM      7  C   UNL     1       6.451   0.079  -0.831  1.00  0.00    -0.047 A 
ATOM      8  C   UNL     1       5.827   1.220  -0.390  1.00  0.00     0.004 A 
ATOM      9  C   UNL     1       6.589  -0.951   0.066  1.00  0.00     0.004 A 
ATOM     10  C   UNL     1       5.346   1.365   0.889  1.00  0.00     0.000 A 
ATOM     11  C   UNL     1       6.119  -0.840   1.355  1.00  0.00     0.000 A 
ATOM     12  C   UNL     1       5.488   0.327   1.784  1.00  0.00     0.000 A 
ENDBRANCH   6   7
ENDBRANCH   1   6
TORSDOF 4
ENDMDL
MODEL 3
REMARK VINA RESULT:      -6.8      3.371      5.062
REMARK SMILES O=C(O)CCc1ccccc1
REMARK SMILES IDX 4 1 2 2 1 3 3 4 5 6 6 7 7 8 11 9 8 10 10 11 9 12
REMARK H PARENT 3 5
REMARK Flexibility Score: inf
ROOT
ATOM      1  C   UNL     1       5.002   1.820   0.693  1.00  0.00     0.127 C 
ENDROOT
BRANCH   1   2
ATOM      2  C   UNL     1       4.512   1.108   1.902  1.00  0.00     0.303 C 
ATOM      3  O   UNL     1       5.147   0.191   2.481  1.00  0.00    -0.252 OA
BRANCH   2   4
ATOM      4  O   UNL     1       3.283   1.463   2.437  1.00  0.00    -0.481 OA
ATOM      5  H   UNL     1       2.978   2.423   2.262  1.00  0.00     0.296 HD
ENDBRANCH   2   4
ENDBRANCH   1   2
BRANCH   1   6
ATOM      6  C   UNL     1       6.503   1.832   0.694  1.00  0.00     0.047 C 
BRANCH   6   7
ATOM      7  C   UNL     1       7.114   1.034  -0.366  1.00  0.00    -0.047 A 
ATOM      8  C   UNL     1       6.436   0.092  -1.101  1.00  0.00     0.004 A 
ATOM      9  C   UNL     1       8.442   1.224  -0.657  1.00  0.00     0.004 A 
ATOM     10  C   UNL     1       7.027  -0.650  -2.096  1.00  0.00     0.000 A 
ATOM     11  C   UNL     1       9.065   0.498  -1.645  1.00  0.00     0.000 A 
ATOM     12  C   UNL     1       8.361  -0.453  -2.381  1.00  0.00     0.000 A 
ENDBRANCH   6   7
ENDBRANCH   1   6
TORSDOF 4
ENDMDL
MODEL 4
REMARK VINA RESULT:      -6.7      1.945      2.300
REMARK SMILES O=C(O)CCc1ccccc1
REMARK SMILES IDX 4 1 2 2 1 3 3 4 5 6 6 7 7 8 11 9 8 10 10 11 9 12
REMARK H PARENT 3 5
REMARK Flexibility Score: inf
ROOT
ATOM      1  C   UNL     1       8.281   0.186  -2.213  1.00  0.00     0.127 C 
ENDROOT
BRANCH   1   2
ATOM      2  C   UNL     1       9.384   0.332  -1.227  1.00  0.00     0.303 C 
ATOM      3  O   UNL     1       9.493  -0.367  -0.188  1.00  0.00    -0.252 OA
BRANCH   2   4
ATOM      4  O   UNL     1      10.361   1.290  -1.452  1.00  0.00    -0.481 OA
ATOM      5  H   UNL     1      10.970   1.504  -0.658  1.00  0.00     0.296 HD
ENDBRANCH   2   4
ENDBRANCH   1   2
BRANCH   1   6
ATOM      6  C   UNL     1       7.140  -0.554  -1.579  1.00  0.00     0.047 C 
BRANCH   6   7
ATOM      7  C   UNL     1       6.372   0.231  -0.616  1.00  0.00    -0.047 A 
ATOM      8  C   UNL     1       6.132  -0.167   0.677  1.00  0.00     0.004 A 
ATOM      9  C   UNL     1       5.853   1.439  -1.010  1.00  0.00     0.004 A 
ATOM     10  C   UNL     1       5.407   0.585   1.570  1.00  0.00     0.000 A 
ATOM     11  C   UNL     1       5.121   2.217  -0.142  1.00  0.00     0.000 A 
ATOM     12  C   UNL     1       4.888   1.796   1.166  1.00  0.00     0.000 A 
ENDBRANCH   6   7
ENDBRANCH   1   6
TORSDOF 4
ENDMDL
MODEL 5
REMARK VINA RESULT:      -6.6      3.844      4.925
REMARK SMILES O=C(O)CCc1ccccc1
REMARK SMILES IDX 4 1 2 2 1 3 3 4 5 6 6 7 7 8 11 9 8 10 10 11 9 12
REMARK H PARENT 3 5
REMARK Flexibility Score: inf
ROOT
ATOM      1  C   UNL     1       5.651   2.903  -0.135  1.00  0.00     0.127 C 
ENDROOT
BRANCH   1   2
ATOM      2  C   UNL     1       6.354   3.852   0.767  1.00  0.00     0.303 C 
ATOM      3  O   UNL     1       7.107   4.775   0.364  1.00  0.00    -0.252 OA
BRANCH   2   4
ATOM      4  O   UNL     1       6.181   3.729   2.137  1.00  0.00    -0.481 OA
ATOM      5  H   UNL     1       7.031   3.574   2.684  1.00  0.00     0.296 HD
ENDBRANCH   2   4
ENDBRANCH   1   2
BRANCH   1   6
ATOM      6  C   UNL     1       4.993   1.831   0.684  1.00  0.00     0.047 C 
BRANCH   6   7
ATOM      7  C   UNL     1       5.770   0.600   0.803  1.00  0.00    -0.047 A 
ATOM      8  C   UNL     1       6.496   0.052  -0.225  1.00  0.00     0.004 A 
ATOM      9  C   UNL     1       5.784  -0.061   2.007  1.00  0.00     0.004 A 
ATOM     10  C   UNL     1       7.222  -1.108  -0.095  1.00  0.00     0.000 A 
ATOM     11  C   UNL     1       6.498  -1.225   2.172  1.00  0.00     0.000 A 
ATOM     12  C   UNL     1       7.231  -1.765   1.116  1.00  0.00     0.000 A 
ENDBRANCH   6   7
ENDBRANCH   1   6
TORSDOF 4
ENDMDL
