@<TRIPOS>MOLECULE
/home/cewinharhar/GITHUB/reincatalyze/data/processed/docking_pred/2023-Apr-25-2140_maxeplen10_maxtrainstep200_exh16_gamma099_lrac3e-4_lrcr1e-3/e1ac879641feb84a16575019a922afe40680d27c_ligand_2.pdbqt
 12 12 0 0 0
SMALL
GASTEIGER

@<TRIPOS>ATOM
      1  C          5.6510    2.9030   -0.1350 C.3     1  UNL1        0.1270
      2  C          6.3540    3.8520    0.7670 C.2     1  UNL1        0.3030
      3  O          7.1070    4.7750    0.3640 O.2     1  UNL1       -0.2520
      4  O          6.1810    3.7290    2.1370 O.3     1  UNL1       -0.4810
      5  H          7.0310    3.5740    2.6840 H       1  UNL1        0.2960
      6  C          4.9930    1.8310    0.6840 C.3     1  UNL1        0.0470
      7  C          5.7700    0.6000    0.8030 C.2     1  UNL1       -0.0470
      8  C          6.4960    0.0520   -0.2250 C.2     1  UNL1        0.0040
      9  C          5.7840   -0.0610    2.0070 C.2     1  UNL1        0.0040
     10  C          7.2220   -1.1080   -0.0950 C.2     1  UNL1        0.0000
     11  C          6.4980   -1.2250    2.1720 C.2     1  UNL1        0.0000
     12  C          7.2310   -1.7650    1.1160 C.2     1  UNL1        0.0000
@<TRIPOS>BOND
     1     8    10    1
     2     8     7    2
     3     1     6    1
     4     1     2    1
     5    10    12    2
     6     3     2    2
     7     6     7    1
     8     2     4    1
     9     7     9    1
    10    12    11    1
    11     9    11    2
    12     4     5    1
