@<TRIPOS>MOLECULE
/home/cewinharhar/GITHUB/reincatalyze/data/processed/docking_pred/2023-Apr-25-2140_maxeplen10_maxtrainstep200_exh16_gamma099_lrac3e-4_lrcr1e-3/e1ac879641feb84a16575019a922afe40680d27c_ligand_2.pdbqt
 12 12 0 0 0
SMALL
GASTEIGER

@<TRIPOS>ATOM
      1  C          8.4520   -0.5710   -2.2240 C.3     1  UNL1        0.1270
      2  C          8.5190   -1.8830   -2.9200 C.2     1  UNL1        0.3030
      3  O          9.5820   -2.5330   -3.0910 O.2     1  UNL1       -0.2520
      4  O          7.3500   -2.4380   -3.4170 O.3     1  UNL1       -0.4810
      5  H          6.7270   -1.8000   -3.9170 H       1  UNL1        0.2960
      6  C          7.0240   -0.1170   -2.1510 C.3     1  UNL1        0.0470
      7  C          6.5030    0.0200   -0.7930 C.2     1  UNL1       -0.0470
      8  C          6.5990   -0.9590    0.1650 C.2     1  UNL1        0.0040
      9  C          5.8780    1.1900   -0.4380 C.2     1  UNL1        0.0040
     10  C          6.1030   -0.8140    1.4390 C.2     1  UNL1        0.0000
     11  C          5.3690    1.3690    0.8280 C.2     1  UNL1        0.0000
     12  C          5.4770    0.3630    1.7870 C.2     1  UNL1        0.0000
@<TRIPOS>BOND
     1     5     4    1
     2     4     2    1
     3     3     2    2
     4     2     1    1
     5     1     6    1
     6     6     7    1
     7     7     9    2
     8     7     8    1
     9     9    11    1
    10     8    10    2
    11    11    12    2
    12    10    12    1
