@<TRIPOS>MOLECULE
/home/cewinharhar/GITHUB/reincatalyze/data/processed/docking_pred/2023-Apr-25-2140_maxeplen10_maxtrainstep200_exh16_gamma099_lrac3e-4_lrcr1e-3/e1ac879641feb84a16575019a922afe40680d27c_ligand_2.pdbqt
 12 12 0 0 0
SMALL
GASTEIGER

@<TRIPOS>ATOM
      1  C          8.4040   -0.5240   -2.2510 C.3     1  UNL1        0.1270
      2  C          8.4940   -1.8440   -2.9290 C.2     1  UNL1        0.3030
      3  O          9.5670   -2.4790   -3.0870 O.2     1  UNL1       -0.2520
      4  O          7.3350   -2.4250   -3.4210 O.3     1  UNL1       -0.4810
      5  H          6.8720   -3.0940   -2.8030 H       1  UNL1        0.2960
      6  C          6.9690   -0.0930   -2.1860 C.3     1  UNL1        0.0470
      7  C          6.4510    0.0790   -0.8310 C.2     1  UNL1       -0.0470
      8  C          5.8270    1.2200   -0.3900 C.2     1  UNL1        0.0040
      9  C          6.5890   -0.9510    0.0660 C.2     1  UNL1        0.0040
     10  C          5.3460    1.3650    0.8890 C.2     1  UNL1        0.0000
     11  C          6.1190   -0.8400    1.3550 C.2     1  UNL1        0.0000
     12  C          5.4880    0.3270    1.7840 C.2     1  UNL1        0.0000
@<TRIPOS>BOND
     1     4     2    1
     2     4     5    1
     3     3     2    2
     4     2     1    1
     5     1     6    1
     6     6     7    1
     7     7     8    2
     8     7     9    1
     9     8    10    1
    10     9    11    2
    11    10    12    2
    12    11    12    1
