@<TRIPOS>MOLECULE
/home/cewinharhar/GITHUB/reincatalyze/data/processed/docking_pred/2023-Apr-25-2140_maxeplen10_maxtrainstep200_exh16_gamma099_lrac3e-4_lrcr1e-3/e1ac879641feb84a16575019a922afe40680d27c_ligand_2.pdbqt
 12 12 0 0 0
SMALL
GASTEIGER

@<TRIPOS>ATOM
      1  C          5.0020    1.8200    0.6930 C.3     1  UNL1        0.1270
      2  C          4.5120    1.1080    1.9020 C.2     1  UNL1        0.3030
      3  O          5.1470    0.1910    2.4810 O.2     1  UNL1       -0.2520
      4  O          3.2830    1.4630    2.4370 O.3     1  UNL1       -0.4810
      5  H          2.9780    2.4230    2.2620 H       1  UNL1        0.2960
      6  C          6.5030    1.8320    0.6940 C.3     1  UNL1        0.0470
      7  C          7.1140    1.0340   -0.3660 C.2     1  UNL1       -0.0470
      8  C          6.4360    0.0920   -1.1010 C.2     1  UNL1        0.0040
      9  C          8.4420    1.2240   -0.6570 C.2     1  UNL1        0.0040
     10  C          7.0270   -0.6500   -2.0960 C.2     1  UNL1        0.0000
     11  C          9.0650    0.4980   -1.6450 C.2     1  UNL1        0.0000
     12  C          8.3610   -0.4530   -2.3810 C.2     1  UNL1        0.0000
@<TRIPOS>BOND
     1    12    10    2
     2    12    11    1
     3    10     8    1
     4    11     9    2
     5     8     7    2
     6     9     7    1
     7     7     6    1
     8     1     6    1
     9     1     2    1
    10     2     4    1
    11     2     3    2
    12     5     4    1
