@<TRIPOS>MOLECULE
/home/cewinharhar/GITHUB/reincatalyze/data/processed/docking_pred/2023-Apr-25-2140_maxeplen10_maxtrainstep200_exh16_gamma099_lrac3e-4_lrcr1e-3/e1ac879641feb84a16575019a922afe40680d27c_ligand_2.pdbqt
 12 12 0 0 0
SMALL
GASTEIGER

@<TRIPOS>ATOM
      1  C          8.2810    0.1860   -2.2130 C.3     1  UNL1        0.1270
      2  C          9.3840    0.3320   -1.2270 C.2     1  UNL1        0.3030
      3  O          9.4930   -0.3670   -0.1880 O.2     1  UNL1       -0.2520
      4  O         10.3610    1.2900   -1.4520 O.3     1  UNL1       -0.4810
      5  H         10.9700    1.5040   -0.6580 H       1  UNL1        0.2960
      6  C          7.1400   -0.5540   -1.5790 C.3     1  UNL1        0.0470
      7  C          6.3720    0.2310   -0.6160 C.2     1  UNL1       -0.0470
      8  C          6.1320   -0.1670    0.6770 C.2     1  UNL1        0.0040
      9  C          5.8530    1.4390   -1.0100 C.2     1  UNL1        0.0040
     10  C          5.4070    0.5850    1.5700 C.2     1  UNL1        0.0000
     11  C          5.1210    2.2170   -0.1420 C.2     1  UNL1        0.0000
     12  C          4.8880    1.7960    1.1660 C.2     1  UNL1        0.0000
@<TRIPOS>BOND
     1     1     6    1
     2     1     2    1
     3     6     7    1
     4     4     2    1
     5     4     5    1
     6     2     3    2
     7     9     7    2
     8     9    11    1
     9     7     8    1
    10    11    12    2
    11     8    10    2
    12    12    10    1
