@<TRIPOS>MOLECULE
/home/cewinharhar/GITHUB/reincatalyze/data/processed/docking_pred/2023-Apr-25-2140_maxeplen10_maxtrainstep200_exh16_gamma099_lrac3e-4_lrcr1e-3/e69dee760b6a4f483691253cffcee702e9155e2b_ligand_2.pdbqt
 12 12 0 0 0
SMALL
GASTEIGER

@<TRIPOS>ATOM
      1  C          5.0190    1.7470    0.6920 C.3     1  UNL1        0.1270
      2  C          4.5870    1.0390    1.9260 C.2     1  UNL1        0.3030
      3  O          5.2800    0.1720    2.5160 O.2     1  UNL1       -0.2520
      4  O          3.3500    1.3420    2.4740 O.3     1  UNL1       -0.4810
      5  H          3.2630    2.2660    2.9010 H       1  UNL1        0.2960
      6  C          6.5150    1.8610    0.6790 C.3     1  UNL1        0.0470
      7  C          7.1710    1.0840   -0.3690 C.2     1  UNL1       -0.0470
      8  C          8.5080    1.1790   -0.6680 C.2     1  UNL1        0.0040
      9  C          6.4210    0.2030   -1.1080 C.2     1  UNL1        0.0040
     10  C          9.1100    0.4390   -1.6580 C.2     1  UNL1        0.0000
     11  C          6.9900   -0.5530   -2.1070 C.2     1  UNL1        0.0000
     12  C          8.3500   -0.4430   -2.3960 C.2     1  UNL1        0.0000
@<TRIPOS>BOND
     1    12    11    2
     2    12    10    1
     3    11     9    1
     4    10     8    2
     5     9     7    2
     6     8     7    1
     7     7     6    1
     8     6     1    1
     9     1     2    1
    10     2     4    1
    11     2     3    2
    12     4     5    1
