@<TRIPOS>MOLECULE
/home/cewinharhar/GITHUB/reincatalyze/data/processed/docking_pred/2023-Apr-25-2140_maxeplen10_maxtrainstep200_exh16_gamma099_lrac3e-4_lrcr1e-3/e69dee760b6a4f483691253cffcee702e9155e2b_ligand_2.pdbqt
 12 12 0 0 0
SMALL
GASTEIGER

@<TRIPOS>ATOM
      1  C          8.4450   -0.5280   -2.2570 C.3     1  UNL1        0.1270
      2  C          8.5200   -1.8450   -2.9410 C.2     1  UNL1        0.3030
      3  O          9.5870   -2.4870   -3.1130 O.2     1  UNL1       -0.2520
      4  O          7.3520   -2.4160   -3.4250 O.3     1  UNL1       -0.4810
      5  H          6.8560   -3.0350   -2.7800 H       1  UNL1        0.2960
      6  C          7.0130   -0.0880   -2.1750 C.3     1  UNL1        0.0470
      7  C          6.4940    0.0320   -0.8150 C.2     1  UNL1       -0.0470
      8  C          6.6090   -0.9530    0.1360 C.2     1  UNL1        0.0040
      9  C          5.8510    1.1880   -0.4500 C.2     1  UNL1        0.0040
     10  C          6.1150   -0.8240    1.4120 C.2     1  UNL1        0.0000
     11  C          5.3440    1.3510    0.8180 C.2     1  UNL1        0.0000
     12  C          5.4710    0.3410    1.7700 C.2     1  UNL1        0.0000
@<TRIPOS>BOND
     1     4     2    1
     2     4     5    1
     3     3     2    2
     4     2     1    1
     5     1     6    1
     6     6     7    1
     7     7     9    2
     8     7     8    1
     9     9    11    1
    10     8    10    2
    11    11    12    2
    12    10    12    1
