@<TRIPOS>MOLECULE
/home/cewinharhar/GITHUB/reincatalyze/data/processed/docking_pred/2023-Apr-25-2140_maxeplen10_maxtrainstep200_exh16_gamma099_lrac3e-4_lrcr1e-3/e69dee760b6a4f483691253cffcee702e9155e2b_ligand_2.pdbqt
 12 12 0 0 0
SMALL
GASTEIGER

@<TRIPOS>ATOM
      1  C          8.4400   -0.6350   -2.0930 C.3     1  UNL1        0.1270
      2  C          8.3730   -1.8890   -2.8880 C.2     1  UNL1        0.3030
      3  O          7.2990   -2.4290   -3.2570 O.2     1  UNL1       -0.2520
      4  O          9.5550   -2.5140   -3.2550 O.3     1  UNL1       -0.4810
      5  H         10.3530   -2.3650   -2.6330 H       1  UNL1        0.2960
      6  C          7.0940    0.0280   -2.0910 C.3     1  UNL1        0.0470
      7  C          6.4980    0.1810   -0.7660 C.2     1  UNL1       -0.0470
      8  C          5.8040    1.2960   -0.3650 C.2     1  UNL1        0.0040
      9  C          6.6320   -0.8390    0.1420 C.2     1  UNL1        0.0040
     10  C          5.2490    1.4240    0.8860 C.2     1  UNL1        0.0000
     11  C          6.0910   -0.7440    1.4040 C.2     1  UNL1        0.0000
     12  C          5.3880    0.3950    1.7930 C.2     1  UNL1        0.0000
@<TRIPOS>BOND
     1     3     2    2
     2     4     2    1
     3     4     5    1
     4     2     1    1
     5     1     6    1
     6     6     7    1
     7     7     8    2
     8     7     9    1
     9     8    10    1
    10     9    11    2
    11    10    12    2
    12    11    12    1
