@<TRIPOS>MOLECULE
/home/cewinharhar/GITHUB/reincatalyze/data/processed/docking_pred/2023-Apr-25-2140_maxeplen10_maxtrainstep200_exh16_gamma099_lrac3e-4_lrcr1e-3/e69dee760b6a4f483691253cffcee702e9155e2b_ligand_2.pdbqt
 12 12 0 0 0
SMALL
GASTEIGER

@<TRIPOS>ATOM
      1  C          8.2260    0.2950   -2.1880 C.3     1  UNL1        0.1270
      2  C          9.3650    0.3600   -1.2370 C.2     1  UNL1        0.3030
      3  O          9.4760   -0.3770   -0.2240 O.2     1  UNL1       -0.2520
      4  O         10.3770    1.2810   -1.4630 O.3     1  UNL1       -0.4810
      5  H         10.2570    2.1960   -1.0230 H       1  UNL1        0.2960
      6  C          7.1030   -0.4860   -1.5710 C.3     1  UNL1        0.0470
      7  C          6.3320    0.2500   -0.5720 C.2     1  UNL1       -0.0470
      8  C          5.7750    1.4850   -0.7950 C.2     1  UNL1        0.0040
      9  C          6.1460   -0.3120    0.6660 C.2     1  UNL1        0.0040
     10  C          5.0530    2.1640    0.1570 C.2     1  UNL1        0.0000
     11  C          5.4290    0.3400    1.6430 C.2     1  UNL1        0.0000
     12  C          4.8700    1.5940    1.3980 C.2     1  UNL1        0.0000
@<TRIPOS>BOND
     1     1     6    1
     2     1     2    1
     3     6     7    1
     4     4     2    1
     5     4     5    1
     6     2     3    2
     7     8     7    2
     8     8    10    1
     9     7     9    1
    10    10    12    2
    11     9    11    2
    12    12    11    1
