@<TRIPOS>MOLECULE
/home/cewinharhar/GITHUB/reincatalyze/data/processed/docking_pred/2023-Apr-25-2140_maxeplen10_maxtrainstep200_exh16_gamma099_lrac3e-4_lrcr1e-3/e69dee760b6a4f483691253cffcee702e9155e2b_ligand_2.pdbqt
 12 12 0 0 0
SMALL
GASTEIGER

@<TRIPOS>ATOM
      1  C          8.0660   -0.8330   -2.0040 C.3     1  UNL1        0.1270
      2  C          8.3490   -1.9910   -2.8910 C.2     1  UNL1        0.3030
      3  O          9.5010   -2.4540   -3.0940 O.2     1  UNL1       -0.2520
      4  O          7.2940   -2.6120   -3.5410 O.3     1  UNL1       -0.4810
      5  H          7.1000   -3.5770   -3.2630 H       1  UNL1        0.2960
      6  C          7.3330   -1.3060   -0.7840 C.3     1  UNL1        0.0470
      7  C          6.5170   -0.2820   -0.1340 C.2     1  UNL1       -0.0470
      8  C          6.0450   -0.3830    1.1510 C.2     1  UNL1        0.0040
      9  C          6.1960    0.8530   -0.8370 C.2     1  UNL1        0.0040
     10  C          5.2790    0.5910    1.7470 C.2     1  UNL1        0.0000
     11  C          5.4300    1.8470   -0.2720 C.2     1  UNL1        0.0000
     12  C          4.9600    1.7270    1.0350 C.2     1  UNL1        0.0000
@<TRIPOS>BOND
     1     4     5    1
     2     4     2    1
     3     3     2    2
     4     2     1    1
     5     1     6    1
     6     9    11    1
     7     9     7    2
     8     6     7    1
     9    11    12    2
    10     7     8    1
    11    12    10    1
    12     8    10    2
