MODEL 1
REMARK VINA RESULT:      -7.4      0.000      0.000
REMARK SMILES O=C(O)CCc1ccccc1
REMARK SMILES IDX 4 1 2 2 1 3 3 4 5 6 6 7 7 8 11 9 8 10 10 11 9 12
REMARK H PARENT 3 5
REMARK Flexibility Score: inf
ROOT
ATOM      1  C   UNL     1       8.435  -0.575  -2.195  1.00  0.00     0.127 C 
ENDROOT
BRANCH   1   2
ATOM      2  C   UNL     1       8.505  -1.879  -2.906  1.00  0.00     0.303 C 
ATOM      3  O   UNL     1       9.571  -2.518  -3.094  1.00  0.00    -0.252 OA
BRANCH   2   4
ATOM      4  O   UNL     1       7.335  -2.439  -3.396  1.00  0.00    -0.481 OA
ATOM      5  H   UNL     1       7.139  -2.273  -4.386  1.00  0.00     0.296 HD
ENDBRANCH   2   4
ENDBRANCH   1   2
BRANCH   1   6
ATOM      6  C   UNL     1       7.011  -0.104  -2.155  1.00  0.00     0.047 C 
BRANCH   6   7
ATOM      7  C   UNL     1       6.471   0.070  -0.808  1.00  0.00    -0.047 A 
ATOM      8  C   UNL     1       5.828   1.206  -0.384  1.00  0.00     0.004 A 
ATOM      9  C   UNL     1       6.606  -0.953   0.097  1.00  0.00     0.004 A 
ATOM     10  C   UNL     1       5.325   1.353   0.887  1.00  0.00     0.000 A 
ATOM     11  C   UNL     1       6.116  -0.840   1.378  1.00  0.00     0.000 A 
ATOM     12  C   UNL     1       5.466   0.322   1.790  1.00  0.00     0.000 A 
ENDBRANCH   6   7
ENDBRANCH   1   6
TORSDOF 4
ENDMDL
MODEL 2
REMARK VINA RESULT:      -7.3      0.081      1.427
REMARK SMILES O=C(O)CCc1ccccc1
REMARK SMILES IDX 4 1 2 2 1 3 3 4 5 6 6 7 7 8 11 9 8 10 10 11 9 12
REMARK H PARENT 3 5
REMARK Flexibility Score: inf
ROOT
ATOM      1  C   UNL     1       8.407  -0.500  -2.294  1.00  0.00     0.127 C 
ENDROOT
BRANCH   1   2
ATOM      2  C   UNL     1       8.492  -1.845  -2.919  1.00  0.00     0.303 C 
ATOM      3  O   UNL     1       9.563  -2.490  -3.052  1.00  0.00    -0.252 OA
BRANCH   2   4
ATOM      4  O   UNL     1       7.332  -2.441  -3.389  1.00  0.00    -0.481 OA
ATOM      5  H   UNL     1       7.237  -3.443  -3.206  1.00  0.00     0.296 HD
ENDBRANCH   2   4
ENDBRANCH   1   2
BRANCH   1   6
ATOM      6  C   UNL     1       6.968  -0.082  -2.204  1.00  0.00     0.047 C 
BRANCH   6   7
ATOM      7  C   UNL     1       6.465   0.062  -0.839  1.00  0.00    -0.047 A 
ATOM      8  C   UNL     1       6.570  -0.915   0.120  1.00  0.00     0.004 A 
ATOM      9  C   UNL     1       5.849   1.235  -0.480  1.00  0.00     0.004 A 
ATOM     10  C   UNL     1       6.091  -0.764   1.399  1.00  0.00     0.000 A 
ATOM     11  C   UNL     1       5.358   1.420   0.791  1.00  0.00     0.000 A 
ATOM     12  C   UNL     1       5.473   0.417   1.752  1.00  0.00     0.000 A 
ENDBRANCH   6   7
ENDBRANCH   1   6
TORSDOF 4
ENDMDL
MODEL 3
REMARK VINA RESULT:      -7.0      0.667      1.468
REMARK SMILES O=C(O)CCc1ccccc1
REMARK SMILES IDX 4 1 2 2 1 3 3 4 5 6 6 7 7 8 11 9 8 10 10 11 9 12
REMARK H PARENT 3 5
REMARK Flexibility Score: inf
ROOT
ATOM      1  C   UNL     1       8.380  -0.784  -1.971  1.00  0.00     0.127 C 
ENDROOT
BRANCH   1   2
ATOM      2  C   UNL     1       8.333  -1.960  -2.880  1.00  0.00     0.303 C 
ATOM      3  O   UNL     1       7.271  -2.445  -3.345  1.00  0.00    -0.252 OA
BRANCH   2   4
ATOM      4  O   UNL     1       9.523  -2.570  -3.248  1.00  0.00    -0.481 OA
ATOM      5  H   UNL     1      10.301  -2.466  -2.593  1.00  0.00     0.296 HD
ENDBRANCH   2   4
ENDBRANCH   1   2
BRANCH   1   6
ATOM      6  C   UNL     1       7.795  -1.158  -0.641  1.00  0.00     0.047 C 
BRANCH   6   7
ATOM      7  C   UNL     1       6.825  -0.200  -0.117  1.00  0.00    -0.047 A 
ATOM      8  C   UNL     1       6.351   0.875  -0.828  1.00  0.00     0.004 A 
ATOM      9  C   UNL     1       6.350  -0.369   1.160  1.00  0.00     0.004 A 
ATOM     10  C   UNL     1       5.438   1.767  -0.320  1.00  0.00     0.000 A 
ATOM     11  C   UNL     1       5.436   0.505   1.701  1.00  0.00     0.000 A 
ATOM     12  C   UNL     1       4.966   1.590   0.963  1.00  0.00     0.000 A 
ENDBRANCH   6   7
ENDBRANCH   1   6
TORSDOF 4
ENDMDL
MODEL 4
REMARK VINA RESULT:      -6.8      3.374      5.063
REMARK SMILES O=C(O)CCc1ccccc1
REMARK SMILES IDX 4 1 2 2 1 3 3 4 5 6 6 7 7 8 11 9 8 10 10 11 9 12
REMARK H PARENT 3 5
REMARK Flexibility Score: inf
ROOT
ATOM      1  C   UNL     1       4.984   1.786   0.688  1.00  0.00     0.127 C 
ENDROOT
BRANCH   1   2
ATOM      2  C   UNL     1       4.488   1.099   1.909  1.00  0.00     0.303 C 
ATOM      3  O   UNL     1       5.118   0.191   2.508  1.00  0.00    -0.252 OA
BRANCH   2   4
ATOM      4  O   UNL     1       3.260   1.470   2.435  1.00  0.00    -0.481 OA
ATOM      5  H   UNL     1       2.915   2.393   2.161  1.00  0.00     0.296 HD
ENDBRANCH   2   4
ENDBRANCH   1   2
BRANCH   1   6
ATOM      6  C   UNL     1       6.483   1.842   0.720  1.00  0.00     0.047 C 
BRANCH   6   7
ATOM      7  C   UNL     1       7.139   1.074  -0.336  1.00  0.00    -0.047 A 
ATOM      8  C   UNL     1       8.466   1.205  -0.665  1.00  0.00     0.004 A 
ATOM      9  C   UNL     1       6.399   0.165  -1.051  1.00  0.00     0.004 A 
ATOM     10  C   UNL     1       9.067   0.474  -1.662  1.00  0.00     0.000 A 
ATOM     11  C   UNL     1       6.968  -0.583  -2.056  1.00  0.00     0.000 A 
ATOM     12  C   UNL     1       8.317  -0.436  -2.375  1.00  0.00     0.000 A 
ENDBRANCH   6   7
ENDBRANCH   1   6
TORSDOF 4
ENDMDL
MODEL 5
REMARK VINA RESULT:      -6.6      2.005      2.311
REMARK SMILES O=C(O)CCc1ccccc1
REMARK SMILES IDX 4 1 2 2 1 3 3 4 5 6 6 7 7 8 11 9 8 10 10 11 9 12
REMARK H PARENT 3 5
REMARK Flexibility Score: inf
ROOT
ATOM      1  C   UNL     1       8.325   0.452  -1.990  1.00  0.00     0.127 C 
ENDROOT
BRANCH   1   2
ATOM      2  C   UNL     1       9.480   0.412  -1.056  1.00  0.00     0.303 C 
ATOM      3  O   UNL     1       9.556  -0.361  -0.068  1.00  0.00    -0.252 OA
BRANCH   2   4
ATOM      4  O   UNL     1      10.547   1.271  -1.272  1.00  0.00    -0.481 OA
ATOM      5  H   UNL     1      11.366   1.127  -0.676  1.00  0.00     0.296 HD
ENDBRANCH   2   4
ENDBRANCH   1   2
BRANCH   1   6
ATOM      6  C   UNL     1       7.222  -0.415  -1.458  1.00  0.00     0.047 C 
BRANCH   6   7
ATOM      7  C   UNL     1       6.397   0.220  -0.433  1.00  0.00    -0.047 A 
ATOM      8  C   UNL     1       5.788   1.441  -0.589  1.00  0.00     0.004 A 
ATOM      9  C   UNL     1       6.210  -0.429   0.762  1.00  0.00     0.004 A 
ATOM     10  C   UNL     1       5.015   2.024   0.386  1.00  0.00     0.000 A 
ATOM     11  C   UNL     1       5.443   0.125   1.761  1.00  0.00     0.000 A 
ATOM     12  C   UNL     1       4.832   1.366   1.584  1.00  0.00     0.000 A 
ENDBRANCH   6   7
ENDBRANCH   1   6
TORSDOF 4
ENDMDL
