@<TRIPOS>MOLECULE
/home/cewinharhar/GITHUB/reincatalyze/data/processed/docking_pred/2023-Apr-25-2140_maxeplen10_maxtrainstep200_exh16_gamma099_lrac3e-4_lrcr1e-3/e72dfb9ce69b60d9dd63e32278a4acfac8a78322_ligand_2.pdbqt
 12 12 0 0 0
SMALL
GASTEIGER

@<TRIPOS>ATOM
      1  C          4.9840    1.7860    0.6880 C.3     1  UNL1        0.1270
      2  C          4.4880    1.0990    1.9090 C.2     1  UNL1        0.3030
      3  O          5.1180    0.1910    2.5080 O.2     1  UNL1       -0.2520
      4  O          3.2600    1.4700    2.4350 O.3     1  UNL1       -0.4810
      5  H          2.9150    2.3930    2.1610 H       1  UNL1        0.2960
      6  C          6.4830    1.8420    0.7200 C.3     1  UNL1        0.0470
      7  C          7.1390    1.0740   -0.3360 C.2     1  UNL1       -0.0470
      8  C          8.4660    1.2050   -0.6650 C.2     1  UNL1        0.0040
      9  C          6.3990    0.1650   -1.0510 C.2     1  UNL1        0.0040
     10  C          9.0670    0.4740   -1.6620 C.2     1  UNL1        0.0000
     11  C          6.9680   -0.5830   -2.0560 C.2     1  UNL1        0.0000
     12  C          8.3170   -0.4360   -2.3750 C.2     1  UNL1        0.0000
@<TRIPOS>BOND
     1    12    11    2
     2    12    10    1
     3    11     9    1
     4    10     8    2
     5     9     7    2
     6     8     7    1
     7     7     6    1
     8     1     6    1
     9     1     2    1
    10     2     4    1
    11     2     3    2
    12     5     4    1
