@<TRIPOS>MOLECULE
/home/cewinharhar/GITHUB/reincatalyze/data/processed/docking_pred/2023-Apr-25-2140_maxeplen10_maxtrainstep200_exh16_gamma099_lrac3e-4_lrcr1e-3/e72dfb9ce69b60d9dd63e32278a4acfac8a78322_ligand_2.pdbqt
 12 12 0 0 0
SMALL
GASTEIGER

@<TRIPOS>ATOM
      1  C          8.3250    0.4520   -1.9900 C.3     1  UNL1        0.1270
      2  C          9.4800    0.4120   -1.0560 C.2     1  UNL1        0.3030
      3  O          9.5560   -0.3610   -0.0680 O.2     1  UNL1       -0.2520
      4  O         10.5470    1.2710   -1.2720 O.3     1  UNL1       -0.4810
      5  H         11.3660    1.1270   -0.6760 H       1  UNL1        0.2960
      6  C          7.2220   -0.4150   -1.4580 C.3     1  UNL1        0.0470
      7  C          6.3970    0.2200   -0.4330 C.2     1  UNL1       -0.0470
      8  C          5.7880    1.4410   -0.5890 C.2     1  UNL1        0.0040
      9  C          6.2100   -0.4290    0.7620 C.2     1  UNL1        0.0040
     10  C          5.0150    2.0240    0.3860 C.2     1  UNL1        0.0000
     11  C          5.4430    0.1250    1.7610 C.2     1  UNL1        0.0000
     12  C          4.8320    1.3660    1.5840 C.2     1  UNL1        0.0000
@<TRIPOS>BOND
     1     1     6    1
     2     1     2    1
     3     6     7    1
     4     4     2    1
     5     4     5    1
     6     2     3    2
     7     8     7    2
     8     8    10    1
     9     7     9    1
    10    10    12    2
    11     9    11    2
    12    12    11    1
