@<TRIPOS>MOLECULE
/home/cewinharhar/GITHUB/reincatalyze/data/processed/docking_pred/2023-Apr-25-2140_maxeplen10_maxtrainstep200_exh16_gamma099_lrac3e-4_lrcr1e-3/e72dfb9ce69b60d9dd63e32278a4acfac8a78322_ligand_2.pdbqt
 12 12 0 0 0
SMALL
GASTEIGER

@<TRIPOS>ATOM
      1  C          8.4350   -0.5750   -2.1950 C.3     1  UNL1        0.1270
      2  C          8.5050   -1.8790   -2.9060 C.2     1  UNL1        0.3030
      3  O          9.5710   -2.5180   -3.0940 O.2     1  UNL1       -0.2520
      4  O          7.3350   -2.4390   -3.3960 O.3     1  UNL1       -0.4810
      5  H          7.1390   -2.2730   -4.3860 H       1  UNL1        0.2960
      6  C          7.0110   -0.1040   -2.1550 C.3     1  UNL1        0.0470
      7  C          6.4710    0.0700   -0.8080 C.2     1  UNL1       -0.0470
      8  C          5.8280    1.2060   -0.3840 C.2     1  UNL1        0.0040
      9  C          6.6060   -0.9530    0.0970 C.2     1  UNL1        0.0040
     10  C          5.3250    1.3530    0.8870 C.2     1  UNL1        0.0000
     11  C          6.1160   -0.8400    1.3780 C.2     1  UNL1        0.0000
     12  C          5.4660    0.3220    1.7900 C.2     1  UNL1        0.0000
@<TRIPOS>BOND
     1     5     4    1
     2     4     2    1
     3     3     2    2
     4     2     1    1
     5     1     6    1
     6     6     7    1
     7     7     8    2
     8     7     9    1
     9     8    10    1
    10     9    11    2
    11    10    12    2
    12    11    12    1
