@<TRIPOS>MOLECULE
/home/cewinharhar/GITHUB/reincatalyze/data/processed/docking_pred/2023-Apr-25-2140_maxeplen10_maxtrainstep200_exh16_gamma099_lrac3e-4_lrcr1e-3/e72dfb9ce69b60d9dd63e32278a4acfac8a78322_ligand_2.pdbqt
 12 12 0 0 0
SMALL
GASTEIGER

@<TRIPOS>ATOM
      1  C          8.4070   -0.5000   -2.2940 C.3     1  UNL1        0.1270
      2  C          8.4920   -1.8450   -2.9190 C.2     1  UNL1        0.3030
      3  O          9.5630   -2.4900   -3.0520 O.2     1  UNL1       -0.2520
      4  O          7.3320   -2.4410   -3.3890 O.3     1  UNL1       -0.4810
      5  H          7.2370   -3.4430   -3.2060 H       1  UNL1        0.2960
      6  C          6.9680   -0.0820   -2.2040 C.3     1  UNL1        0.0470
      7  C          6.4650    0.0620   -0.8390 C.2     1  UNL1       -0.0470
      8  C          6.5700   -0.9150    0.1200 C.2     1  UNL1        0.0040
      9  C          5.8490    1.2350   -0.4800 C.2     1  UNL1        0.0040
     10  C          6.0910   -0.7640    1.3990 C.2     1  UNL1        0.0000
     11  C          5.3580    1.4200    0.7910 C.2     1  UNL1        0.0000
     12  C          5.4730    0.4170    1.7520 C.2     1  UNL1        0.0000
@<TRIPOS>BOND
     1     4     5    1
     2     4     2    1
     3     3     2    2
     4     2     1    1
     5     1     6    1
     6     6     7    1
     7     7     9    2
     8     7     8    1
     9     9    11    1
    10     8    10    2
    11    11    12    2
    12    10    12    1
