@<TRIPOS>MOLECULE
/home/cewinharhar/GITHUB/reincatalyze/data/processed/docking_pred/2023-Apr-25-2140_maxeplen10_maxtrainstep200_exh16_gamma099_lrac3e-4_lrcr1e-3/e72dfb9ce69b60d9dd63e32278a4acfac8a78322_ligand_2.pdbqt
 12 12 0 0 0
SMALL
GASTEIGER

@<TRIPOS>ATOM
      1  C          8.3800   -0.7840   -1.9710 C.3     1  UNL1        0.1270
      2  C          8.3330   -1.9600   -2.8800 C.2     1  UNL1        0.3030
      3  O          7.2710   -2.4450   -3.3450 O.2     1  UNL1       -0.2520
      4  O          9.5230   -2.5700   -3.2480 O.3     1  UNL1       -0.4810
      5  H         10.3010   -2.4660   -2.5930 H       1  UNL1        0.2960
      6  C          7.7950   -1.1580   -0.6410 C.3     1  UNL1        0.0470
      7  C          6.8250   -0.2000   -0.1170 C.2     1  UNL1       -0.0470
      8  C          6.3510    0.8750   -0.8280 C.2     1  UNL1        0.0040
      9  C          6.3500   -0.3690    1.1600 C.2     1  UNL1        0.0040
     10  C          5.4380    1.7670   -0.3200 C.2     1  UNL1        0.0000
     11  C          5.4360    0.5050    1.7010 C.2     1  UNL1        0.0000
     12  C          4.9660    1.5900    0.9630 C.2     1  UNL1        0.0000
@<TRIPOS>BOND
     1     3     2    2
     2     4     2    1
     3     4     5    1
     4     2     1    1
     5     1     6    1
     6     8    10    1
     7     8     7    2
     8     6     7    1
     9    10    12    2
    10     7     9    1
    11    12    11    1
    12     9    11    2
