@<TRIPOS>MOLECULE
/home/cewinharhar/GITHUB/reincatalyze/data/processed/docking_pred/2023-Apr-25-2140_maxeplen10_maxtrainstep200_exh16_gamma099_lrac3e-4_lrcr1e-3/ea9f39b4277e7ba3f00603e8654b95ed05d2571c_ligand_2.pdbqt
 12 12 0 0 0
SMALL
GASTEIGER

@<TRIPOS>ATOM
      1  C          8.4860   -0.6020   -2.1750 C.3     1  UNL1        0.1270
      2  C          8.5350   -1.8950   -2.9060 C.2     1  UNL1        0.3030
      3  O          9.5910   -2.5500   -3.1010 O.2     1  UNL1       -0.2520
      4  O          7.3580   -2.4270   -3.4090 O.3     1  UNL1       -0.4810
      5  H          7.0910   -3.3470   -3.0480 H       1  UNL1        0.2960
      6  C          7.0790   -0.0780   -2.1830 C.3     1  UNL1        0.0470
      7  C          6.5030    0.1220   -0.8550 C.2     1  UNL1       -0.0470
      8  C          5.8250    1.2560   -0.4800 C.2     1  UNL1        0.0040
      9  C          6.6380   -0.8720    0.0820 C.2     1  UNL1        0.0040
     10  C          5.2890    1.4280    0.7740 C.2     1  UNL1        0.0000
     11  C          6.1140   -0.7330    1.3470 C.2     1  UNL1        0.0000
     12  C          5.4290    0.4260    1.7100 C.2     1  UNL1        0.0000
@<TRIPOS>BOND
     1     4     5    1
     2     4     2    1
     3     3     2    2
     4     2     1    1
     5     6     1    1
     6     6     7    1
     7     7     8    2
     8     7     9    1
     9     8    10    1
    10     9    11    2
    11    10    12    2
    12    11    12    1
