@<TRIPOS>MOLECULE
/home/cewinharhar/GITHUB/reincatalyze/data/processed/docking_pred/2023-Apr-25-2140_maxeplen10_maxtrainstep200_exh16_gamma099_lrac3e-4_lrcr1e-3/ea9f39b4277e7ba3f00603e8654b95ed05d2571c_ligand_2.pdbqt
 12 12 0 0 0
SMALL
GASTEIGER

@<TRIPOS>ATOM
      1  C          8.4390   -0.5440   -2.2260 C.3     1  UNL1        0.1270
      2  C          8.4960   -1.8570   -2.9200 C.2     1  UNL1        0.3030
      3  O          9.5500   -2.5240   -3.0710 O.2     1  UNL1       -0.2520
      4  O          7.3260   -2.3930   -3.4360 O.3     1  UNL1       -0.4810
      5  H          6.4580   -1.9370   -3.1470 H       1  UNL1        0.2960
      6  C          7.0120   -0.0870   -2.1360 C.3     1  UNL1        0.0470
      7  C          6.4930    0.0100   -0.7740 C.2     1  UNL1       -0.0470
      8  C          6.6170   -0.9850    0.1640 C.2     1  UNL1        0.0040
      9  C          5.8410    1.1560   -0.3940 C.2     1  UNL1        0.0040
     10  C          6.1230   -0.8770    1.4420 C.2     1  UNL1        0.0000
     11  C          5.3320    1.2980    0.8770 C.2     1  UNL1        0.0000
     12  C          5.4690    0.2770    1.8150 C.2     1  UNL1        0.0000
@<TRIPOS>BOND
     1     4     5    1
     2     4     2    1
     3     3     2    2
     4     2     1    1
     5     1     6    1
     6     6     7    1
     7     7     9    2
     8     7     8    1
     9     9    11    1
    10     8    10    2
    11    11    12    2
    12    10    12    1
