@<TRIPOS>MOLECULE
/home/cewinharhar/GITHUB/reincatalyze/data/processed/docking_pred/2023-Apr-25-2140_maxeplen10_maxtrainstep200_exh16_gamma099_lrac3e-4_lrcr1e-3/ea9f39b4277e7ba3f00603e8654b95ed05d2571c_ligand_2.pdbqt
 12 12 0 0 0
SMALL
GASTEIGER

@<TRIPOS>ATOM
      1  C          8.2860    0.2030   -2.2290 C.3     1  UNL1        0.1270
      2  C          9.3840    0.3340   -1.2370 C.2     1  UNL1        0.3030
      3  O          9.4840   -0.3750   -0.2030 O.2     1  UNL1       -0.2520
      4  O         10.3660    1.2900   -1.4470 O.3     1  UNL1       -0.4810
      5  H         10.7410    1.7400   -0.6080 H       1  UNL1        0.2960
      6  C          7.1380   -0.5390   -1.6090 C.3     1  UNL1        0.0470
      7  C          6.3670    0.2400   -0.6430 C.2     1  UNL1       -0.0470
      8  C          6.1230   -0.1670    0.6460 C.2     1  UNL1        0.0040
      9  C          5.8490    1.4500   -1.0310 C.2     1  UNL1        0.0040
     10  C          5.3950    0.5790    1.5420 C.2     1  UNL1        0.0000
     11  C          5.1150    2.2220   -0.1600 C.2     1  UNL1        0.0000
     12  C          4.8780    1.7930    1.1450 C.2     1  UNL1        0.0000
@<TRIPOS>BOND
     1     1     6    1
     2     1     2    1
     3     6     7    1
     4     4     2    1
     5     4     5    1
     6     2     3    2
     7     9     7    2
     8     9    11    1
     9     7     8    1
    10    11    12    2
    11     8    10    2
    12    12    10    1
