@<TRIPOS>MOLECULE
/home/cewinharhar/GITHUB/reincatalyze/data/processed/docking_pred/2023-Apr-25-2140_maxeplen10_maxtrainstep200_exh16_gamma099_lrac3e-4_lrcr1e-3/ea9f39b4277e7ba3f00603e8654b95ed05d2571c_ligand_2.pdbqt
 12 12 0 0 0
SMALL
GASTEIGER

@<TRIPOS>ATOM
      1  C          5.0140    1.7770    0.7260 C.3     1  UNL1        0.1270
      2  C          4.5860    1.0310    1.9380 C.2     1  UNL1        0.3030
      3  O          5.2790    0.1450    2.4980 O.2     1  UNL1       -0.2520
      4  O          3.3510    1.3180    2.5000 O.3     1  UNL1       -0.4810
      5  H          2.8370    0.5210    2.8840 H       1  UNL1        0.2960
      6  C          6.5110    1.8840    0.7090 C.3     1  UNL1        0.0470
      7  C          7.1590    1.1130   -0.3500 C.2     1  UNL1       -0.0470
      8  C          8.4970    1.1960   -0.6460 C.2     1  UNL1        0.0040
      9  C          6.3990    0.2520   -1.1020 C.2     1  UNL1        0.0040
     10  C          9.0910    0.4640   -1.6470 C.2     1  UNL1        0.0000
     11  C          6.9600   -0.4960   -2.1120 C.2     1  UNL1        0.0000
     12  C          8.3210   -0.3980   -2.3970 C.2     1  UNL1        0.0000
@<TRIPOS>BOND
     1    12    11    2
     2    12    10    1
     3    11     9    1
     4    10     8    2
     5     9     7    2
     6     8     7    1
     7     7     6    1
     8     6     1    1
     9     1     2    1
    10     2     3    2
    11     2     4    1
    12     4     5    1
