@<TRIPOS>MOLECULE
/home/cewinharhar/GITHUB/reincatalyze/data/processed/docking_pred/2023-Apr-25-2140_maxeplen10_maxtrainstep200_exh16_gamma099_lrac3e-4_lrcr1e-3/ea9f39b4277e7ba3f00603e8654b95ed05d2571c_ligand_2.pdbqt
 12 12 0 0 0
SMALL
GASTEIGER

@<TRIPOS>ATOM
      1  C          8.1770   -1.5320    1.0810 C.3     1  UNL1        0.1270
      2  C          8.4720   -2.7610    0.3000 C.2     1  UNL1        0.3030
      3  O          9.0840   -3.7570    0.7630 O.2     1  UNL1       -0.2520
      4  O          8.0530   -2.8330   -1.0200 O.3     1  UNL1       -0.4810
      5  H          8.7570   -2.6090   -1.7270 H       1  UNL1        0.2960
      6  C          6.6920   -1.3820    1.2350 C.3     1  UNL1        0.0470
      7  C          6.1540   -0.1310    0.7060 C.2     1  UNL1       -0.0470
      8  C          6.3550    0.3040   -0.5810 C.2     1  UNL1        0.0040
      9  C          5.4020    0.6680    1.5310 C.2     1  UNL1        0.0040
     10  C          5.8410    1.4850   -1.0620 C.2     1  UNL1        0.0000
     11  C          4.8730    1.8570    1.0830 C.2     1  UNL1        0.0000
     12  C          5.0870    2.2810   -0.2270 C.2     1  UNL1        0.0000
@<TRIPOS>BOND
     1     5     4    1
     2    10     8    1
     3    10    12    2
     4     4     2    1
     5     8     7    2
     6    12    11    1
     7     2     3    2
     8     2     1    1
     9     7     6    1
    10     7     9    1
    11     1     6    1
    12    11     9    2
