@<TRIPOS>MOLECULE
/home/cewinharhar/GITHUB/reincatalyze/data/processed/docking_pred/2023-Apr-25-2140_maxeplen10_maxtrainstep200_exh16_gamma099_lrac3e-4_lrcr1e-3/eb53456adf8787420c4e8f25112cf644d6bf88f9_ligand_2.pdbqt
 12 12 0 0 0
SMALL
GASTEIGER

@<TRIPOS>ATOM
      1  C          8.4360   -0.5360   -2.2670 C.3     1  UNL1        0.1270
      2  C          8.5130   -1.8670   -2.9240 C.2     1  UNL1        0.3030
      3  O          9.5800   -2.5120   -3.0780 O.2     1  UNL1       -0.2520
      4  O          7.3470   -2.4470   -3.4020 O.3     1  UNL1       -0.4810
      5  H          6.6070   -2.6000   -2.7130 H       1  UNL1        0.2960
      6  C          7.0010   -0.1050   -2.1780 C.3     1  UNL1        0.0470
      7  C          6.4910    0.0160   -0.8140 C.2     1  UNL1       -0.0470
      8  C          6.6090   -0.9680    0.1370 C.2     1  UNL1        0.0040
      9  C          5.8520    1.1740   -0.4460 C.2     1  UNL1        0.0040
     10  C          6.1230   -0.8370    1.4160 C.2     1  UNL1        0.0000
     11  C          5.3530    1.3390    0.8250 C.2     1  UNL1        0.0000
     12  C          5.4830    0.3280    1.7770 C.2     1  UNL1        0.0000
@<TRIPOS>BOND
     1     4     2    1
     2     4     5    1
     3     3     2    2
     4     2     1    1
     5     1     6    1
     6     6     7    1
     7     7     9    2
     8     7     8    1
     9     9    11    1
    10     8    10    2
    11    11    12    2
    12    10    12    1
