@<TRIPOS>MOLECULE
/home/cewinharhar/GITHUB/reincatalyze/data/processed/docking_pred/2023-Apr-25-2140_maxeplen10_maxtrainstep200_exh16_gamma099_lrac3e-4_lrcr1e-3/eb53456adf8787420c4e8f25112cf644d6bf88f9_ligand_2.pdbqt
 12 12 0 0 0
SMALL
GASTEIGER

@<TRIPOS>ATOM
      1  C          8.4400   -0.5770   -2.2170 C.3     1  UNL1        0.1270
      2  C          8.5170   -1.8810   -2.9240 C.2     1  UNL1        0.3030
      3  O          9.5870   -2.5140   -3.1140 O.2     1  UNL1       -0.2520
      4  O          7.3500   -2.4500   -3.4100 O.3     1  UNL1       -0.4810
      5  H          7.1080   -3.3690   -3.0320 H       1  UNL1        0.2960
      6  C          7.0140   -0.1120   -2.1800 C.3     1  UNL1        0.0470
      7  C          6.4730    0.0700   -0.8350 C.2     1  UNL1       -0.0470
      8  C          5.8410    1.2140   -0.4140 C.2     1  UNL1        0.0040
      9  C          6.5960   -0.9530    0.0720 C.2     1  UNL1        0.0040
     10  C          5.3370    1.3680    0.8560 C.2     1  UNL1        0.0000
     11  C          6.1040   -0.8330    1.3510 C.2     1  UNL1        0.0000
     12  C          5.4650    0.3360    1.7610 C.2     1  UNL1        0.0000
@<TRIPOS>BOND
     1     4     5    1
     2     4     2    1
     3     3     2    2
     4     2     1    1
     5     1     6    1
     6     6     7    1
     7     7     8    2
     8     7     9    1
     9     8    10    1
    10     9    11    2
    11    10    12    2
    12    11    12    1
