@<TRIPOS>MOLECULE
/home/cewinharhar/GITHUB/reincatalyze/data/processed/docking_pred/2023-Apr-25-2140_maxeplen10_maxtrainstep200_exh16_gamma099_lrac3e-4_lrcr1e-3/eb53456adf8787420c4e8f25112cf644d6bf88f9_ligand_2.pdbqt
 12 12 0 0 0
SMALL
GASTEIGER

@<TRIPOS>ATOM
      1  C          5.3390    2.9090    0.1480 C.3     1  UNL1        0.1270
      2  C          6.2320    3.8590    0.8610 C.2     1  UNL1        0.3030
      3  O          6.8870    4.7680    0.2910 O.2     1  UNL1       -0.2520
      4  O          6.3620    3.7520    2.2370 O.3     1  UNL1       -0.4810
      5  H          7.0500    3.0730    2.5710 H       1  UNL1        0.2960
      6  C          5.3150    1.6000    0.8800 C.3     1  UNL1        0.0470
      7  C          6.0710    0.5310    0.2320 C.2     1  UNL1       -0.0470
      8  C          6.5660   -0.5650    0.8950 C.2     1  UNL1        0.0040
      9  C          6.3100    0.6130   -1.1170 C.2     1  UNL1        0.0040
     10  C          7.2760   -1.5620    0.2690 C.2     1  UNL1        0.0000
     11  C          7.0180   -0.3660   -1.7750 C.2     1  UNL1        0.0000
     12  C          7.5120   -1.4720   -1.0860 C.2     1  UNL1        0.0000
@<TRIPOS>BOND
     1    11     9    1
     2    11    12    2
     3     9     7    2
     4    12    10    1
     5     1     2    1
     6     1     6    1
     7     7     6    1
     8     7     8    1
     9    10     8    2
    10     3     2    2
    11     2     4    1
    12     4     5    1
