@<TRIPOS>MOLECULE
/home/cewinharhar/GITHUB/reincatalyze/data/processed/docking_pred/2023-Apr-25-2140_maxeplen10_maxtrainstep200_exh16_gamma099_lrac3e-4_lrcr1e-3/eb53456adf8787420c4e8f25112cf644d6bf88f9_ligand_2.pdbqt
 12 12 0 0 0
SMALL
GASTEIGER

@<TRIPOS>ATOM
      1  C          8.2720    0.1700   -2.2050 C.3     1  UNL1        0.1270
      2  C          9.3770    0.3330   -1.2250 C.2     1  UNL1        0.3030
      3  O          9.5060   -0.3680   -0.1890 O.2     1  UNL1       -0.2520
      4  O         10.3330    1.3120   -1.4500 O.3     1  UNL1       -0.4810
      5  H         10.3200    1.7480   -2.3750 H       1  UNL1        0.2960
      6  C          7.1280   -0.5480   -1.5520 C.3     1  UNL1        0.0470
      7  C          6.3490    0.2720   -0.6270 C.2     1  UNL1       -0.0470
      8  C          5.8080    1.4900   -0.9550 C.2     1  UNL1        0.0040
      9  C          6.1390   -0.1880    0.6490 C.2     1  UNL1        0.0040
     10  C          5.0780    2.2490   -0.0720 C.2     1  UNL1        0.0000
     11  C          5.4140    0.5450    1.5600 C.2     1  UNL1        0.0000
     12  C          4.8710    1.7800    1.2080 C.2     1  UNL1        0.0000
@<TRIPOS>BOND
     1     5     4    1
     2     1     6    1
     3     1     2    1
     4     6     7    1
     5     4     2    1
     6     2     3    2
     7     8     7    2
     8     8    10    1
     9     7     9    1
    10    10    12    2
    11     9    11    2
    12    12    11    1
