@<TRIPOS>MOLECULE
/home/cewinharhar/GITHUB/reincatalyze/data/processed/docking_pred/2023-Apr-25-2140_maxeplen10_maxtrainstep200_exh16_gamma099_lrac3e-4_lrcr1e-3/eb53456adf8787420c4e8f25112cf644d6bf88f9_ligand_2.pdbqt
 12 12 0 0 0
SMALL
GASTEIGER

@<TRIPOS>ATOM
      1  C          5.0530    1.8140    0.7370 C.3     1  UNL1        0.1270
      2  C          4.5110    1.0940    1.9190 C.2     1  UNL1        0.3030
      3  O          5.1060    0.1520    2.5000 O.2     1  UNL1       -0.2520
      4  O          3.2750    1.4710    2.4240 O.3     1  UNL1       -0.4810
      5  H          2.9410    0.9410    3.2320 H       1  UNL1        0.2960
      6  C          6.5520    1.7410    0.7530 C.3     1  UNL1        0.0470
      7  C          7.1300    0.9610   -0.3390 C.2     1  UNL1       -0.0470
      8  C          6.4550   -0.0270   -1.0140 C.2     1  UNL1        0.0040
      9  C          8.4220    1.2180   -0.7250 C.2     1  UNL1        0.0040
     10  C          7.0150   -0.7510   -2.0390 C.2     1  UNL1        0.0000
     11  C          9.0140    0.5120   -1.7470 C.2     1  UNL1        0.0000
     12  C          8.3130   -0.4870   -2.4200 C.2     1  UNL1        0.0000
@<TRIPOS>BOND
     1    12    10    2
     2    12    11    1
     3    10     8    1
     4    11     9    2
     5     8     7    2
     6     9     7    1
     7     7     6    1
     8     1     6    1
     9     1     2    1
    10     2     4    1
    11     2     3    2
    12     4     5    1
