MODEL 1
REMARK VINA RESULT:      -7.4      0.000      0.000
REMARK SMILES O=C(O)CCc1ccccc1
REMARK SMILES IDX 4 1 2 2 1 3 3 4 5 6 6 7 7 8 11 9 8 10 10 11 9 12
REMARK H PARENT 3 5
REMARK Flexibility Score: inf
ROOT
ATOM      1  C   UNL     1       8.440  -0.577  -2.217  1.00  0.00     0.127 C 
ENDROOT
BRANCH   1   2
ATOM      2  C   UNL     1       8.517  -1.881  -2.924  1.00  0.00     0.303 C 
ATOM      3  O   UNL     1       9.587  -2.514  -3.114  1.00  0.00    -0.252 OA
BRANCH   2   4
ATOM      4  O   UNL     1       7.350  -2.450  -3.410  1.00  0.00    -0.481 OA
ATOM      5  H   UNL     1       7.108  -3.369  -3.032  1.00  0.00     0.296 HD
ENDBRANCH   2   4
ENDBRANCH   1   2
BRANCH   1   6
ATOM      6  C   UNL     1       7.014  -0.112  -2.180  1.00  0.00     0.047 C 
BRANCH   6   7
ATOM      7  C   UNL     1       6.473   0.070  -0.835  1.00  0.00    -0.047 A 
ATOM      8  C   UNL     1       5.841   1.214  -0.414  1.00  0.00     0.004 A 
ATOM      9  C   UNL     1       6.596  -0.953   0.072  1.00  0.00     0.004 A 
ATOM     10  C   UNL     1       5.337   1.368   0.856  1.00  0.00     0.000 A 
ATOM     11  C   UNL     1       6.104  -0.833   1.351  1.00  0.00     0.000 A 
ATOM     12  C   UNL     1       5.465   0.336   1.761  1.00  0.00     0.000 A 
ENDBRANCH   6   7
ENDBRANCH   1   6
TORSDOF 4
ENDMDL
MODEL 2
REMARK VINA RESULT:      -7.3      0.047      1.426
REMARK SMILES O=C(O)CCc1ccccc1
REMARK SMILES IDX 4 1 2 2 1 3 3 4 5 6 6 7 7 8 11 9 8 10 10 11 9 12
REMARK H PARENT 3 5
REMARK Flexibility Score: inf
ROOT
ATOM      1  C   UNL     1       8.436  -0.536  -2.267  1.00  0.00     0.127 C 
ENDROOT
BRANCH   1   2
ATOM      2  C   UNL     1       8.513  -1.867  -2.924  1.00  0.00     0.303 C 
ATOM      3  O   UNL     1       9.580  -2.512  -3.078  1.00  0.00    -0.252 OA
BRANCH   2   4
ATOM      4  O   UNL     1       7.347  -2.447  -3.402  1.00  0.00    -0.481 OA
ATOM      5  H   UNL     1       6.607  -2.600  -2.713  1.00  0.00     0.296 HD
ENDBRANCH   2   4
ENDBRANCH   1   2
BRANCH   1   6
ATOM      6  C   UNL     1       7.001  -0.105  -2.178  1.00  0.00     0.047 C 
BRANCH   6   7
ATOM      7  C   UNL     1       6.491   0.016  -0.814  1.00  0.00    -0.047 A 
ATOM      8  C   UNL     1       6.609  -0.968   0.137  1.00  0.00     0.004 A 
ATOM      9  C   UNL     1       5.852   1.174  -0.446  1.00  0.00     0.004 A 
ATOM     10  C   UNL     1       6.123  -0.837   1.416  1.00  0.00     0.000 A 
ATOM     11  C   UNL     1       5.353   1.339   0.825  1.00  0.00     0.000 A 
ATOM     12  C   UNL     1       5.483   0.328   1.777  1.00  0.00     0.000 A 
ENDBRANCH   6   7
ENDBRANCH   1   6
TORSDOF 4
ENDMDL
MODEL 3
REMARK VINA RESULT:      -6.8      3.372      5.095
REMARK SMILES O=C(O)CCc1ccccc1
REMARK SMILES IDX 4 1 2 2 1 3 3 4 5 6 6 7 7 8 11 9 8 10 10 11 9 12
REMARK H PARENT 3 5
REMARK Flexibility Score: inf
ROOT
ATOM      1  C   UNL     1       5.053   1.814   0.737  1.00  0.00     0.127 C 
ENDROOT
BRANCH   1   2
ATOM      2  C   UNL     1       4.511   1.094   1.919  1.00  0.00     0.303 C 
ATOM      3  O   UNL     1       5.106   0.152   2.500  1.00  0.00    -0.252 OA
BRANCH   2   4
ATOM      4  O   UNL     1       3.275   1.471   2.424  1.00  0.00    -0.481 OA
ATOM      5  H   UNL     1       2.941   0.941   3.232  1.00  0.00     0.296 HD
ENDBRANCH   2   4
ENDBRANCH   1   2
BRANCH   1   6
ATOM      6  C   UNL     1       6.552   1.741   0.753  1.00  0.00     0.047 C 
BRANCH   6   7
ATOM      7  C   UNL     1       7.130   0.961  -0.339  1.00  0.00    -0.047 A 
ATOM      8  C   UNL     1       6.455  -0.027  -1.014  1.00  0.00     0.004 A 
ATOM      9  C   UNL     1       8.422   1.218  -0.725  1.00  0.00     0.004 A 
ATOM     10  C   UNL     1       7.015  -0.751  -2.039  1.00  0.00     0.000 A 
ATOM     11  C   UNL     1       9.014   0.512  -1.747  1.00  0.00     0.000 A 
ATOM     12  C   UNL     1       8.313  -0.487  -2.420  1.00  0.00     0.000 A 
ENDBRANCH   6   7
ENDBRANCH   1   6
TORSDOF 4
ENDMDL
MODEL 4
REMARK VINA RESULT:      -6.7      1.945      2.301
REMARK SMILES O=C(O)CCc1ccccc1
REMARK SMILES IDX 4 1 2 2 1 3 3 4 5 6 6 7 7 8 11 9 8 10 10 11 9 12
REMARK H PARENT 3 5
REMARK Flexibility Score: inf
ROOT
ATOM      1  C   UNL     1       8.272   0.170  -2.205  1.00  0.00     0.127 C 
ENDROOT
BRANCH   1   2
ATOM      2  C   UNL     1       9.377   0.333  -1.225  1.00  0.00     0.303 C 
ATOM      3  O   UNL     1       9.506  -0.368  -0.189  1.00  0.00    -0.252 OA
BRANCH   2   4
ATOM      4  O   UNL     1      10.333   1.312  -1.450  1.00  0.00    -0.481 OA
ATOM      5  H   UNL     1      10.320   1.748  -2.375  1.00  0.00     0.296 HD
ENDBRANCH   2   4
ENDBRANCH   1   2
BRANCH   1   6
ATOM      6  C   UNL     1       7.128  -0.548  -1.552  1.00  0.00     0.047 C 
BRANCH   6   7
ATOM      7  C   UNL     1       6.349   0.272  -0.627  1.00  0.00    -0.047 A 
ATOM      8  C   UNL     1       5.808   1.490  -0.955  1.00  0.00     0.004 A 
ATOM      9  C   UNL     1       6.139  -0.188   0.649  1.00  0.00     0.004 A 
ATOM     10  C   UNL     1       5.078   2.249  -0.072  1.00  0.00     0.000 A 
ATOM     11  C   UNL     1       5.414   0.545   1.560  1.00  0.00     0.000 A 
ATOM     12  C   UNL     1       4.871   1.780   1.208  1.00  0.00     0.000 A 
ENDBRANCH   6   7
ENDBRANCH   1   6
TORSDOF 4
ENDMDL
MODEL 5
REMARK VINA RESULT:      -6.5      3.726      5.119
REMARK SMILES O=C(O)CCc1ccccc1
REMARK SMILES IDX 4 1 2 2 1 3 3 4 5 6 6 7 7 8 11 9 8 10 10 11 9 12
REMARK H PARENT 3 5
REMARK Flexibility Score: inf
ROOT
ATOM      1  C   UNL     1       5.339   2.909   0.148  1.00  0.00     0.127 C 
ENDROOT
BRANCH   1   2
ATOM      2  C   UNL     1       6.232   3.859   0.861  1.00  0.00     0.303 C 
ATOM      3  O   UNL     1       6.887   4.768   0.291  1.00  0.00    -0.252 OA
BRANCH   2   4
ATOM      4  O   UNL     1       6.362   3.752   2.237  1.00  0.00    -0.481 OA
ATOM      5  H   UNL     1       7.050   3.073   2.571  1.00  0.00     0.296 HD
ENDBRANCH   2   4
ENDBRANCH   1   2
BRANCH   1   6
ATOM      6  C   UNL     1       5.315   1.600   0.880  1.00  0.00     0.047 C 
BRANCH   6   7
ATOM      7  C   UNL     1       6.071   0.531   0.232  1.00  0.00    -0.047 A 
ATOM      8  C   UNL     1       6.566  -0.565   0.895  1.00  0.00     0.004 A 
ATOM      9  C   UNL     1       6.310   0.613  -1.117  1.00  0.00     0.004 A 
ATOM     10  C   UNL     1       7.276  -1.562   0.269  1.00  0.00     0.000 A 
ATOM     11  C   UNL     1       7.018  -0.366  -1.775  1.00  0.00     0.000 A 
ATOM     12  C   UNL     1       7.512  -1.472  -1.086  1.00  0.00     0.000 A 
ENDBRANCH   6   7
ENDBRANCH   1   6
TORSDOF 4
ENDMDL
