@<TRIPOS>MOLECULE
/home/cewinharhar/GITHUB/reincatalyze/data/processed/docking_pred/2023-Apr-25-2140_maxeplen10_maxtrainstep200_exh16_gamma099_lrac3e-4_lrcr1e-3/f103505c31d1e9178b980ac5ab47259be3cc1632_ligand_2.pdbqt
 12 12 0 0 0
SMALL
GASTEIGER

@<TRIPOS>ATOM
      1  C          8.4210   -0.5700   -2.1910 C.3     1  UNL1        0.1270
      2  C          8.4900   -1.8720   -2.9060 C.2     1  UNL1        0.3030
      3  O          9.5550   -2.5140   -3.0900 O.2     1  UNL1       -0.2520
      4  O          7.3210   -2.4260   -3.4050 O.3     1  UNL1       -0.4810
      5  H          6.8110   -1.8580   -4.0850 H       1  UNL1        0.2960
      6  C          6.9950   -0.1040   -2.1400 C.3     1  UNL1        0.0470
      7  C          6.4650    0.0690   -0.7900 C.2     1  UNL1       -0.0470
      8  C          5.8460    1.2140   -0.3530 C.2     1  UNL1        0.0040
      9  C          6.5840   -0.9640    0.1060 C.2     1  UNL1        0.0040
     10  C          5.3530    1.3600    0.9220 C.2     1  UNL1        0.0000
     11  C          6.1020   -0.8520    1.3900 C.2     1  UNL1        0.0000
     12  C          5.4770    0.3180    1.8160 C.2     1  UNL1        0.0000
@<TRIPOS>BOND
     1     5     4    1
     2     4     2    1
     3     3     2    2
     4     2     1    1
     5     1     6    1
     6     6     7    1
     7     7     8    2
     8     7     9    1
     9     8    10    1
    10     9    11    2
    11    10    12    2
    12    11    12    1
