@<TRIPOS>MOLECULE
/home/cewinharhar/GITHUB/reincatalyze/data/processed/docking_pred/2023-Apr-25-2140_maxeplen10_maxtrainstep200_exh16_gamma099_lrac3e-4_lrcr1e-3/f103505c31d1e9178b980ac5ab47259be3cc1632_ligand_2.pdbqt
 12 12 0 0 0
SMALL
GASTEIGER

@<TRIPOS>ATOM
      1  C          5.4550    2.8790   -0.0130 C.3     1  UNL1        0.1270
      2  C          6.2450    3.8680    0.7660 C.2     1  UNL1        0.3030
      3  O          6.9430    4.7750    0.2450 O.2     1  UNL1       -0.2520
      4  O          6.2220    3.8030    2.1510 O.3     1  UNL1       -0.4810
      5  H          7.0060    3.3140    2.5890 H       1  UNL1        0.2960
      6  C          4.9500    1.8070    0.9070 C.3     1  UNL1        0.0470
      7  C          5.7470    0.5820    0.9030 C.2     1  UNL1       -0.0470
      8  C          6.4610    0.1390   -0.1830 C.2     1  UNL1        0.0040
      9  C          5.7950   -0.1810    2.0430 C.2     1  UNL1        0.0040
     10  C          7.2060   -1.0160   -0.1700 C.2     1  UNL1        0.0000
     11  C          6.5290   -1.3430    2.0910 C.2     1  UNL1        0.0000
     12  C          7.2490   -1.7770    0.9790 C.2     1  UNL1        0.0000
@<TRIPOS>BOND
     1     8    10    1
     2     8     7    2
     3    10    12    2
     4     1     2    1
     5     1     6    1
     6     3     2    2
     7     2     4    1
     8     7     6    1
     9     7     9    1
    10    12    11    1
    11     9    11    2
    12     4     5    1
