@<TRIPOS>MOLECULE
/home/cewinharhar/GITHUB/reincatalyze/data/processed/docking_pred/2023-Apr-25-2140_maxeplen10_maxtrainstep200_exh16_gamma099_lrac3e-4_lrcr1e-3/f103505c31d1e9178b980ac5ab47259be3cc1632_ligand_2.pdbqt
 12 12 0 0 0
SMALL
GASTEIGER

@<TRIPOS>ATOM
      1  C          8.4590   -0.5630   -2.2390 C.3     1  UNL1        0.1270
      2  C          8.5150   -1.8770   -2.9300 C.2     1  UNL1        0.3030
      3  O          9.5700   -2.5430   -3.0850 O.2     1  UNL1       -0.2520
      4  O          7.3440   -2.4180   -3.4380 O.3     1  UNL1       -0.4810
      5  H          6.4990   -2.2550   -2.8870 H       1  UNL1        0.2960
      6  C          7.0340   -0.0970   -2.1660 C.3     1  UNL1        0.0470
      7  C          6.5080    0.0260   -0.8080 C.2     1  UNL1       -0.0470
      8  C          6.6100   -0.9600    0.1430 C.2     1  UNL1        0.0040
      9  C          5.8710    1.1870   -0.4470 C.2     1  UNL1        0.0040
     10  C          6.1090   -0.8270    1.4160 C.2     1  UNL1        0.0000
     11  C          5.3570    1.3530    0.8180 C.2     1  UNL1        0.0000
     12  C          5.4710    0.3420    1.7710 C.2     1  UNL1        0.0000
@<TRIPOS>BOND
     1     4     2    1
     2     4     5    1
     3     3     2    2
     4     2     1    1
     5     1     6    1
     6     6     7    1
     7     7     9    2
     8     7     8    1
     9     9    11    1
    10     8    10    2
    11    11    12    2
    12    10    12    1
