MODEL 1
REMARK VINA RESULT:      -7.3      0.000      0.000
REMARK SMILES O=C(O)CCc1ccccc1
REMARK SMILES IDX 4 1 2 2 1 3 3 4 5 6 6 7 7 8 11 9 8 10 10 11 9 12
REMARK H PARENT 3 5
REMARK Flexibility Score: inf
ROOT
ATOM      1  C   UNL     1       8.459  -0.563  -2.239  1.00  0.00     0.127 C 
ENDROOT
BRANCH   1   2
ATOM      2  C   UNL     1       8.515  -1.877  -2.930  1.00  0.00     0.303 C 
ATOM      3  O   UNL     1       9.570  -2.543  -3.085  1.00  0.00    -0.252 OA
BRANCH   2   4
ATOM      4  O   UNL     1       7.344  -2.418  -3.438  1.00  0.00    -0.481 OA
ATOM      5  H   UNL     1       6.499  -2.255  -2.887  1.00  0.00     0.296 HD
ENDBRANCH   2   4
ENDBRANCH   1   2
BRANCH   1   6
ATOM      6  C   UNL     1       7.034  -0.097  -2.166  1.00  0.00     0.047 C 
BRANCH   6   7
ATOM      7  C   UNL     1       6.508   0.026  -0.808  1.00  0.00    -0.047 A 
ATOM      8  C   UNL     1       6.610  -0.960   0.143  1.00  0.00     0.004 A 
ATOM      9  C   UNL     1       5.871   1.187  -0.447  1.00  0.00     0.004 A 
ATOM     10  C   UNL     1       6.109  -0.827   1.416  1.00  0.00     0.000 A 
ATOM     11  C   UNL     1       5.357   1.353   0.818  1.00  0.00     0.000 A 
ATOM     12  C   UNL     1       5.471   0.342   1.771  1.00  0.00     0.000 A 
ENDBRANCH   6   7
ENDBRANCH   1   6
TORSDOF 4
ENDMDL
MODEL 2
REMARK VINA RESULT:      -7.3      0.061      1.426
REMARK SMILES O=C(O)CCc1ccccc1
REMARK SMILES IDX 4 1 2 2 1 3 3 4 5 6 6 7 7 8 11 9 8 10 10 11 9 12
REMARK H PARENT 3 5
REMARK Flexibility Score: inf
ROOT
ATOM      1  C   UNL     1       8.421  -0.570  -2.191  1.00  0.00     0.127 C 
ENDROOT
BRANCH   1   2
ATOM      2  C   UNL     1       8.490  -1.872  -2.906  1.00  0.00     0.303 C 
ATOM      3  O   UNL     1       9.555  -2.514  -3.090  1.00  0.00    -0.252 OA
BRANCH   2   4
ATOM      4  O   UNL     1       7.321  -2.426  -3.405  1.00  0.00    -0.481 OA
ATOM      5  H   UNL     1       6.811  -1.858  -4.085  1.00  0.00     0.296 HD
ENDBRANCH   2   4
ENDBRANCH   1   2
BRANCH   1   6
ATOM      6  C   UNL     1       6.995  -0.104  -2.140  1.00  0.00     0.047 C 
BRANCH   6   7
ATOM      7  C   UNL     1       6.465   0.069  -0.790  1.00  0.00    -0.047 A 
ATOM      8  C   UNL     1       5.846   1.214  -0.353  1.00  0.00     0.004 A 
ATOM      9  C   UNL     1       6.584  -0.964   0.106  1.00  0.00     0.004 A 
ATOM     10  C   UNL     1       5.353   1.360   0.922  1.00  0.00     0.000 A 
ATOM     11  C   UNL     1       6.102  -0.852   1.390  1.00  0.00     0.000 A 
ATOM     12  C   UNL     1       5.477   0.318   1.816  1.00  0.00     0.000 A 
ENDBRANCH   6   7
ENDBRANCH   1   6
TORSDOF 4
ENDMDL
MODEL 3
REMARK VINA RESULT:      -6.8      3.343      5.030
REMARK SMILES O=C(O)CCc1ccccc1
REMARK SMILES IDX 4 1 2 2 1 3 3 4 5 6 6 7 7 8 11 9 8 10 10 11 9 12
REMARK H PARENT 3 5
REMARK Flexibility Score: inf
ROOT
ATOM      1  C   UNL     1       5.018   1.766   0.695  1.00  0.00     0.127 C 
ENDROOT
BRANCH   1   2
ATOM      2  C   UNL     1       4.599   1.031   1.917  1.00  0.00     0.303 C 
ATOM      3  O   UNL     1       5.301   0.155   2.483  1.00  0.00    -0.252 OA
BRANCH   2   4
ATOM      4  O   UNL     1       3.365   1.316   2.481  1.00  0.00    -0.481 OA
ATOM      5  H   UNL     1       2.612   1.535   1.824  1.00  0.00     0.296 HD
ENDBRANCH   2   4
ENDBRANCH   1   2
BRANCH   1   6
ATOM      6  C   UNL     1       6.516   1.846   0.649  1.00  0.00     0.047 C 
BRANCH   6   7
ATOM      7  C   UNL     1       7.132   1.031  -0.396  1.00  0.00    -0.047 A 
ATOM      8  C   UNL     1       6.449   0.107  -1.147  1.00  0.00     0.004 A 
ATOM      9  C   UNL     1       8.472   1.185  -0.652  1.00  0.00     0.004 A 
ATOM     10  C   UNL     1       7.045  -0.652  -2.126  1.00  0.00     0.000 A 
ATOM     11  C   UNL     1       9.101   0.442  -1.624  1.00  0.00     0.000 A 
ATOM     12  C   UNL     1       8.391  -0.491  -2.377  1.00  0.00     0.000 A 
ENDBRANCH   6   7
ENDBRANCH   1   6
TORSDOF 4
ENDMDL
MODEL 4
REMARK VINA RESULT:      -6.7      3.832      4.985
REMARK SMILES O=C(O)CCc1ccccc1
REMARK SMILES IDX 4 1 2 2 1 3 3 4 5 6 6 7 7 8 11 9 8 10 10 11 9 12
REMARK H PARENT 3 5
REMARK Flexibility Score: inf
ROOT
ATOM      1  C   UNL     1       5.455   2.879  -0.013  1.00  0.00     0.127 C 
ENDROOT
BRANCH   1   2
ATOM      2  C   UNL     1       6.245   3.868   0.766  1.00  0.00     0.303 C 
ATOM      3  O   UNL     1       6.943   4.775   0.245  1.00  0.00    -0.252 OA
BRANCH   2   4
ATOM      4  O   UNL     1       6.222   3.803   2.151  1.00  0.00    -0.481 OA
ATOM      5  H   UNL     1       7.006   3.314   2.589  1.00  0.00     0.296 HD
ENDBRANCH   2   4
ENDBRANCH   1   2
BRANCH   1   6
ATOM      6  C   UNL     1       4.950   1.807   0.907  1.00  0.00     0.047 C 
BRANCH   6   7
ATOM      7  C   UNL     1       5.747   0.582   0.903  1.00  0.00    -0.047 A 
ATOM      8  C   UNL     1       6.461   0.139  -0.183  1.00  0.00     0.004 A 
ATOM      9  C   UNL     1       5.795  -0.181   2.043  1.00  0.00     0.004 A 
ATOM     10  C   UNL     1       7.206  -1.016  -0.170  1.00  0.00     0.000 A 
ATOM     11  C   UNL     1       6.529  -1.343   2.091  1.00  0.00     0.000 A 
ATOM     12  C   UNL     1       7.249  -1.777   0.979  1.00  0.00     0.000 A 
ENDBRANCH   6   7
ENDBRANCH   1   6
TORSDOF 4
ENDMDL
MODEL 5
REMARK VINA RESULT:      -6.7      1.958      2.300
REMARK SMILES O=C(O)CCc1ccccc1
REMARK SMILES IDX 4 1 2 2 1 3 3 4 5 6 6 7 7 8 11 9 8 10 10 11 9 12
REMARK H PARENT 3 5
REMARK Flexibility Score: inf
ROOT
ATOM      1  C   UNL     1       8.286   0.277  -2.160  1.00  0.00     0.127 C 
ENDROOT
BRANCH   1   2
ATOM      2  C   UNL     1       9.403   0.342  -1.181  1.00  0.00     0.303 C 
ATOM      3  O   UNL     1       9.488  -0.392  -0.164  1.00  0.00    -0.252 OA
BRANCH   2   4
ATOM      4  O   UNL     1      10.421   1.261  -1.386  1.00  0.00    -0.481 OA
ATOM      5  H   UNL     1      11.153   0.981  -2.043  1.00  0.00     0.296 HD
ENDBRANCH   2   4
ENDBRANCH   1   2
BRANCH   1   6
ATOM      6  C   UNL     1       7.147  -0.499  -1.567  1.00  0.00     0.047 C 
BRANCH   6   7
ATOM      7  C   UNL     1       6.367   0.236  -0.575  1.00  0.00    -0.047 A 
ATOM      8  C   UNL     1       6.129  -0.217   0.699  1.00  0.00     0.004 A 
ATOM      9  C   UNL     1       5.832   1.452  -0.922  1.00  0.00     0.004 A 
ATOM     10  C   UNL     1       5.392   0.489   1.620  1.00  0.00     0.000 A 
ATOM     11  C   UNL     1       5.088   2.185  -0.026  1.00  0.00     0.000 A 
ATOM     12  C   UNL     1       4.858   1.709   1.264  1.00  0.00     0.000 A 
ENDBRANCH   6   7
ENDBRANCH   1   6
TORSDOF 4
ENDMDL
