@<TRIPOS>MOLECULE
/home/cewinharhar/GITHUB/reincatalyze/data/processed/docking_pred/2023-Apr-25-2140_maxeplen10_maxtrainstep200_exh16_gamma099_lrac3e-4_lrcr1e-3/f103505c31d1e9178b980ac5ab47259be3cc1632_ligand_2.pdbqt
 12 12 0 0 0
SMALL
GASTEIGER

@<TRIPOS>ATOM
      1  C          8.2860    0.2770   -2.1600 C.3     1  UNL1        0.1270
      2  C          9.4030    0.3420   -1.1810 C.2     1  UNL1        0.3030
      3  O          9.4880   -0.3920   -0.1640 O.2     1  UNL1       -0.2520
      4  O         10.4210    1.2610   -1.3860 O.3     1  UNL1       -0.4810
      5  H         11.1530    0.9810   -2.0430 H       1  UNL1        0.2960
      6  C          7.1470   -0.4990   -1.5670 C.3     1  UNL1        0.0470
      7  C          6.3670    0.2360   -0.5750 C.2     1  UNL1       -0.0470
      8  C          6.1290   -0.2170    0.6990 C.2     1  UNL1        0.0040
      9  C          5.8320    1.4520   -0.9220 C.2     1  UNL1        0.0040
     10  C          5.3920    0.4890    1.6200 C.2     1  UNL1        0.0000
     11  C          5.0880    2.1850   -0.0260 C.2     1  UNL1        0.0000
     12  C          4.8580    1.7090    1.2640 C.2     1  UNL1        0.0000
@<TRIPOS>BOND
     1     1     6    1
     2     1     2    1
     3     5     4    1
     4     6     7    1
     5     4     2    1
     6     2     3    2
     7     9     7    2
     8     9    11    1
     9     7     8    1
    10    11    12    2
    11     8    10    2
    12    12    10    1
