@<TRIPOS>MOLECULE
/home/cewinharhar/GITHUB/reincatalyze/data/processed/docking_pred/2023-Apr-25-2140_maxeplen10_maxtrainstep200_exh16_gamma099_lrac3e-4_lrcr1e-3/f15420a79f585431148ea344134f913ab78e73cd_ligand_2.pdbqt
 12 12 0 0 0
SMALL
GASTEIGER

@<TRIPOS>ATOM
      1  C          8.4100   -0.5060   -2.1590 C.3     1  UNL1        0.1270
      2  C          8.4020   -1.8140   -2.8640 C.2     1  UNL1        0.3030
      3  O          7.3570   -2.3940   -3.2530 O.2     1  UNL1       -0.2520
      4  O          9.6100   -2.4460   -3.1180 O.3     1  UNL1       -0.4810
      5  H         10.1570   -2.0720   -3.8960 H       1  UNL1        0.2960
      6  C          7.0200    0.0590   -2.1380 C.3     1  UNL1        0.0470
      7  C          6.4490    0.2090   -0.8010 C.2     1  UNL1       -0.0470
      8  C          5.7440    1.3130   -0.3910 C.2     1  UNL1        0.0040
      9  C          6.6200   -0.8050    0.1090 C.2     1  UNL1        0.0040
     10  C          5.2130    1.4380    0.8710 C.2     1  UNL1        0.0000
     11  C          6.1030   -0.7130    1.3810 C.2     1  UNL1        0.0000
     12  C          5.3890    0.4160    1.7790 C.2     1  UNL1        0.0000
@<TRIPOS>BOND
     1     5     4    1
     2     3     2    2
     3     4     2    1
     4     2     1    1
     5     1     6    1
     6     6     7    1
     7     7     8    2
     8     7     9    1
     9     8    10    1
    10     9    11    2
    11    10    12    2
    12    11    12    1
