MODEL 1
REMARK VINA RESULT:      -6.8      0.000      0.000
REMARK SMILES O=C(O)CCc1ccccc1
REMARK SMILES IDX 4 1 2 2 1 3 3 4 5 6 6 7 7 8 11 9 8 10 10 11 9 12
REMARK H PARENT 3 5
REMARK Flexibility Score: inf
ROOT
ATOM      1  C   UNL     1       4.991   1.809   0.687  1.00  0.00     0.127 C 
ENDROOT
BRANCH   1   2
ATOM      2  C   UNL     1       4.508   1.103   1.902  1.00  0.00     0.303 C 
ATOM      3  O   UNL     1       5.150   0.194   2.487  1.00  0.00    -0.252 OA
BRANCH   2   4
ATOM      4  O   UNL     1       3.277   1.453   2.436  1.00  0.00    -0.481 OA
ATOM      5  H   UNL     1       3.257   2.314   2.989  1.00  0.00     0.296 HD
ENDBRANCH   2   4
ENDBRANCH   1   2
BRANCH   1   6
ATOM      6  C   UNL     1       6.491   1.838   0.690  1.00  0.00     0.047 C 
BRANCH   6   7
ATOM      7  C   UNL     1       7.113   1.044  -0.367  1.00  0.00    -0.047 A 
ATOM      8  C   UNL     1       6.444   0.102  -1.110  1.00  0.00     0.004 A 
ATOM      9  C   UNL     1       8.443   1.238  -0.647  1.00  0.00     0.004 A 
ATOM     10  C   UNL     1       7.044  -0.636  -2.101  1.00  0.00     0.000 A 
ATOM     11  C   UNL     1       9.076   0.516  -1.632  1.00  0.00     0.000 A 
ATOM     12  C   UNL     1       8.380  -0.435  -2.376  1.00  0.00     0.000 A 
ENDBRANCH   6   7
ENDBRANCH   1   6
TORSDOF 4
ENDMDL
MODEL 2
REMARK VINA RESULT:      -6.7      3.253      4.988
REMARK SMILES O=C(O)CCc1ccccc1
REMARK SMILES IDX 4 1 2 2 1 3 3 4 5 6 6 7 7 8 11 9 8 10 10 11 9 12
REMARK H PARENT 3 5
REMARK Flexibility Score: inf
ROOT
ATOM      1  C   UNL     1       8.415  -0.358  -2.115  1.00  0.00     0.127 C 
ENDROOT
BRANCH   1   2
ATOM      2  C   UNL     1       8.482  -1.684  -2.783  1.00  0.00     0.303 C 
ATOM      3  O   UNL     1       9.553  -2.300  -3.014  1.00  0.00    -0.252 OA
BRANCH   2   4
ATOM      4  O   UNL     1       7.302  -2.294  -3.182  1.00  0.00    -0.481 OA
ATOM      5  H   UNL     1       7.381  -3.265  -3.492  1.00  0.00     0.296 HD
ENDBRANCH   2   4
ENDBRANCH   1   2
BRANCH   1   6
ATOM      6  C   UNL     1       6.987   0.097  -2.051  1.00  0.00     0.047 C 
BRANCH   6   7
ATOM      7  C   UNL     1       6.434   0.164  -0.700  1.00  0.00    -0.047 A 
ATOM      8  C   UNL     1       6.541  -0.850   0.220  1.00  0.00     0.004 A 
ATOM      9  C   UNL     1       5.766   1.299  -0.313  1.00  0.00     0.004 A 
ATOM     10  C   UNL     1       6.015  -0.770   1.488  1.00  0.00     0.000 A 
ATOM     11  C   UNL     1       5.226   1.412   0.947  1.00  0.00     0.000 A 
ATOM     12  C   UNL     1       5.345   0.372   1.868  1.00  0.00     0.000 A 
ENDBRANCH   6   7
ENDBRANCH   1   6
TORSDOF 4
ENDMDL
MODEL 3
REMARK VINA RESULT:      -6.7      3.309      5.120
REMARK SMILES O=C(O)CCc1ccccc1
REMARK SMILES IDX 4 1 2 2 1 3 3 4 5 6 6 7 7 8 11 9 8 10 10 11 9 12
REMARK H PARENT 3 5
REMARK Flexibility Score: inf
ROOT
ATOM      1  C   UNL     1       8.410  -0.506  -2.159  1.00  0.00     0.127 C 
ENDROOT
BRANCH   1   2
ATOM      2  C   UNL     1       8.402  -1.814  -2.864  1.00  0.00     0.303 C 
ATOM      3  O   UNL     1       7.357  -2.394  -3.253  1.00  0.00    -0.252 OA
BRANCH   2   4
ATOM      4  O   UNL     1       9.610  -2.446  -3.118  1.00  0.00    -0.481 OA
ATOM      5  H   UNL     1      10.157  -2.072  -3.896  1.00  0.00     0.296 HD
ENDBRANCH   2   4
ENDBRANCH   1   2
BRANCH   1   6
ATOM      6  C   UNL     1       7.020   0.059  -2.138  1.00  0.00     0.047 C 
BRANCH   6   7
ATOM      7  C   UNL     1       6.449   0.209  -0.801  1.00  0.00    -0.047 A 
ATOM      8  C   UNL     1       5.744   1.313  -0.391  1.00  0.00     0.004 A 
ATOM      9  C   UNL     1       6.620  -0.805   0.109  1.00  0.00     0.004 A 
ATOM     10  C   UNL     1       5.213   1.438   0.871  1.00  0.00     0.000 A 
ATOM     11  C   UNL     1       6.103  -0.713   1.381  1.00  0.00     0.000 A 
ATOM     12  C   UNL     1       5.389   0.416   1.779  1.00  0.00     0.000 A 
ENDBRANCH   6   7
ENDBRANCH   1   6
TORSDOF 4
ENDMDL
MODEL 4
REMARK VINA RESULT:      -6.6      2.760      4.684
REMARK SMILES O=C(O)CCc1ccccc1
REMARK SMILES IDX 4 1 2 2 1 3 3 4 5 6 6 7 7 8 11 9 8 10 10 11 9 12
REMARK H PARENT 3 5
REMARK Flexibility Score: inf
ROOT
ATOM      1  C   UNL     1       8.267   0.246  -2.227  1.00  0.00     0.127 C 
ENDROOT
BRANCH   1   2
ATOM      2  C   UNL     1       9.372   0.364  -1.241  1.00  0.00     0.303 C 
ATOM      3  O   UNL     1       9.474  -0.353  -0.213  1.00  0.00    -0.252 OA
BRANCH   2   4
ATOM      4  O   UNL     1      10.359   1.315  -1.450  1.00  0.00    -0.481 OA
ATOM      5  H   UNL     1      10.347   1.781  -2.361  1.00  0.00     0.296 HD
ENDBRANCH   2   4
ENDBRANCH   1   2
BRANCH   1   6
ATOM      6  C   UNL     1       7.109  -0.469  -1.596  1.00  0.00     0.047 C 
BRANCH   6   7
ATOM      7  C   UNL     1       6.328   0.345  -0.668  1.00  0.00    -0.047 A 
ATOM      8  C   UNL     1       5.787   1.566  -0.991  1.00  0.00     0.004 A 
ATOM      9  C   UNL     1       6.114  -0.122   0.605  1.00  0.00     0.004 A 
ATOM     10  C   UNL     1       5.055   2.320  -0.105  1.00  0.00     0.000 A 
ATOM     11  C   UNL     1       5.387   0.607   1.518  1.00  0.00     0.000 A 
ATOM     12  C   UNL     1       4.845   1.844   1.172  1.00  0.00     0.000 A 
ENDBRANCH   6   7
ENDBRANCH   1   6
TORSDOF 4
ENDMDL
MODEL 5
REMARK VINA RESULT:      -6.5      2.629      3.219
REMARK SMILES O=C(O)CCc1ccccc1
REMARK SMILES IDX 4 1 2 2 1 3 3 4 5 6 6 7 7 8 11 9 8 10 10 11 9 12
REMARK H PARENT 3 5
REMARK Flexibility Score: inf
ROOT
ATOM      1  C   UNL     1       5.424   2.874   0.123  1.00  0.00     0.127 C 
ENDROOT
BRANCH   1   2
ATOM      2  C   UNL     1       6.274   3.757   0.964  1.00  0.00     0.303 C 
ATOM      3  O   UNL     1       6.389   3.639   2.210  1.00  0.00    -0.252 OA
BRANCH   2   4
ATOM      4  O   UNL     1       6.992   4.775   0.355  1.00  0.00    -0.481 OA
ATOM      5  H   UNL     1       7.534   5.377   0.979  1.00  0.00     0.296 HD
ENDBRANCH   2   4
ENDBRANCH   1   2
BRANCH   1   6
ATOM      6  C   UNL     1       4.964   1.701   0.937  1.00  0.00     0.047 C 
BRANCH   6   7
ATOM      7  C   UNL     1       5.811   0.516   0.821  1.00  0.00    -0.047 A 
ATOM      8  C   UNL     1       6.533   0.200  -0.303  1.00  0.00     0.004 A 
ATOM      9  C   UNL     1       5.901  -0.341   1.890  1.00  0.00     0.004 A 
ATOM     10  C   UNL     1       7.325  -0.919  -0.396  1.00  0.00     0.000 A 
ATOM     11  C   UNL     1       6.684  -1.471   1.832  1.00  0.00     0.000 A 
ATOM     12  C   UNL     1       7.410  -1.775   0.681  1.00  0.00     0.000 A 
ENDBRANCH   6   7
ENDBRANCH   1   6
TORSDOF 4
ENDMDL
