@<TRIPOS>MOLECULE
/home/cewinharhar/GITHUB/reincatalyze/data/processed/docking_pred/2023-Apr-25-2140_maxeplen10_maxtrainstep200_exh16_gamma099_lrac3e-4_lrcr1e-3/f15420a79f585431148ea344134f913ab78e73cd_ligand_2.pdbqt
 12 12 0 0 0
SMALL
GASTEIGER

@<TRIPOS>ATOM
      1  C          4.9910    1.8090    0.6870 C.3     1  UNL1        0.1270
      2  C          4.5080    1.1030    1.9020 C.2     1  UNL1        0.3030
      3  O          5.1500    0.1940    2.4870 O.2     1  UNL1       -0.2520
      4  O          3.2770    1.4530    2.4360 O.3     1  UNL1       -0.4810
      5  H          3.2570    2.3140    2.9890 H       1  UNL1        0.2960
      6  C          6.4910    1.8380    0.6900 C.3     1  UNL1        0.0470
      7  C          7.1130    1.0440   -0.3670 C.2     1  UNL1       -0.0470
      8  C          6.4440    0.1020   -1.1100 C.2     1  UNL1        0.0040
      9  C          8.4430    1.2380   -0.6470 C.2     1  UNL1        0.0040
     10  C          7.0440   -0.6360   -2.1010 C.2     1  UNL1        0.0000
     11  C          9.0760    0.5160   -1.6320 C.2     1  UNL1        0.0000
     12  C          8.3800   -0.4350   -2.3760 C.2     1  UNL1        0.0000
@<TRIPOS>BOND
     1    12    10    2
     2    12    11    1
     3    10     8    1
     4    11     9    2
     5     8     7    2
     6     9     7    1
     7     7     6    1
     8     1     6    1
     9     1     2    1
    10     2     4    1
    11     2     3    2
    12     4     5    1
