@<TRIPOS>MOLECULE
/home/cewinharhar/GITHUB/reincatalyze/data/processed/docking_pred/2023-Apr-25-2140_maxeplen10_maxtrainstep200_exh16_gamma099_lrac3e-4_lrcr1e-3/f15420a79f585431148ea344134f913ab78e73cd_ligand_2.pdbqt
 12 12 0 0 0
SMALL
GASTEIGER

@<TRIPOS>ATOM
      1  C          5.4240    2.8740    0.1230 C.3     1  UNL1        0.1270
      2  C          6.2740    3.7570    0.9640 C.2     1  UNL1        0.3030
      3  O          6.3890    3.6390    2.2100 O.2     1  UNL1       -0.2520
      4  O          6.9920    4.7750    0.3550 O.3     1  UNL1       -0.4810
      5  H          7.5340    5.3770    0.9790 H       1  UNL1        0.2960
      6  C          4.9640    1.7010    0.9370 C.3     1  UNL1        0.0470
      7  C          5.8110    0.5160    0.8210 C.2     1  UNL1       -0.0470
      8  C          6.5330    0.2000   -0.3030 C.2     1  UNL1        0.0040
      9  C          5.9010   -0.3410    1.8900 C.2     1  UNL1        0.0040
     10  C          7.3250   -0.9190   -0.3960 C.2     1  UNL1        0.0000
     11  C          6.6840   -1.4710    1.8320 C.2     1  UNL1        0.0000
     12  C          7.4100   -1.7750    0.6810 C.2     1  UNL1        0.0000
@<TRIPOS>BOND
     1    10     8    1
     2    10    12    2
     3     8     7    2
     4     1     6    1
     5     1     2    1
     6     4     2    1
     7     4     5    1
     8    12    11    1
     9     7     6    1
    10     7     9    1
    11     2     3    2
    12    11     9    2
