@<TRIPOS>MOLECULE
/home/cewinharhar/GITHUB/reincatalyze/data/processed/docking_pred/2023-Apr-25-2140_maxeplen10_maxtrainstep200_exh16_gamma099_lrac3e-4_lrcr1e-3/f15420a79f585431148ea344134f913ab78e73cd_ligand_2.pdbqt
 12 12 0 0 0
SMALL
GASTEIGER

@<TRIPOS>ATOM
      1  C          8.4150   -0.3580   -2.1150 C.3     1  UNL1        0.1270
      2  C          8.4820   -1.6840   -2.7830 C.2     1  UNL1        0.3030
      3  O          9.5530   -2.3000   -3.0140 O.2     1  UNL1       -0.2520
      4  O          7.3020   -2.2940   -3.1820 O.3     1  UNL1       -0.4810
      5  H          7.3810   -3.2650   -3.4920 H       1  UNL1        0.2960
      6  C          6.9870    0.0970   -2.0510 C.3     1  UNL1        0.0470
      7  C          6.4340    0.1640   -0.7000 C.2     1  UNL1       -0.0470
      8  C          6.5410   -0.8500    0.2200 C.2     1  UNL1        0.0040
      9  C          5.7660    1.2990   -0.3130 C.2     1  UNL1        0.0040
     10  C          6.0150   -0.7700    1.4880 C.2     1  UNL1        0.0000
     11  C          5.2260    1.4120    0.9470 C.2     1  UNL1        0.0000
     12  C          5.3450    0.3720    1.8680 C.2     1  UNL1        0.0000
@<TRIPOS>BOND
     1     5     4    1
     2     4     2    1
     3     3     2    2
     4     2     1    1
     5     1     6    1
     6     6     7    1
     7     7     9    2
     8     7     8    1
     9     9    11    1
    10     8    10    2
    11    11    12    2
    12    10    12    1
