@<TRIPOS>MOLECULE
/home/cewinharhar/GITHUB/reincatalyze/data/processed/docking_pred/2023-Apr-25-2140_maxeplen10_maxtrainstep200_exh16_gamma099_lrac3e-4_lrcr1e-3/f15420a79f585431148ea344134f913ab78e73cd_ligand_2.pdbqt
 12 12 0 0 0
SMALL
GASTEIGER

@<TRIPOS>ATOM
      1  C          8.2670    0.2460   -2.2270 C.3     1  UNL1        0.1270
      2  C          9.3720    0.3640   -1.2410 C.2     1  UNL1        0.3030
      3  O          9.4740   -0.3530   -0.2130 O.2     1  UNL1       -0.2520
      4  O         10.3590    1.3150   -1.4500 O.3     1  UNL1       -0.4810
      5  H         10.3470    1.7810   -2.3610 H       1  UNL1        0.2960
      6  C          7.1090   -0.4690   -1.5960 C.3     1  UNL1        0.0470
      7  C          6.3280    0.3450   -0.6680 C.2     1  UNL1       -0.0470
      8  C          5.7870    1.5660   -0.9910 C.2     1  UNL1        0.0040
      9  C          6.1140   -0.1220    0.6050 C.2     1  UNL1        0.0040
     10  C          5.0550    2.3200   -0.1050 C.2     1  UNL1        0.0000
     11  C          5.3870    0.6070    1.5180 C.2     1  UNL1        0.0000
     12  C          4.8450    1.8440    1.1720 C.2     1  UNL1        0.0000
@<TRIPOS>BOND
     1     5     4    1
     2     1     6    1
     3     1     2    1
     4     6     7    1
     5     4     2    1
     6     2     3    2
     7     8     7    2
     8     8    10    1
     9     7     9    1
    10    10    12    2
    11     9    11    2
    12    12    11    1
