@<TRIPOS>MOLECULE
/home/cewinharhar/GITHUB/reincatalyze/data/processed/docking_pred/2023-Apr-25-2140_maxeplen10_maxtrainstep200_exh16_gamma099_lrac3e-4_lrcr1e-3/f32d20faebe3d2be17d1bcf3c85c7c889e58fe23_ligand_2.pdbqt
 12 12 0 0 0
SMALL
GASTEIGER

@<TRIPOS>ATOM
      1  C          5.3040    2.9140    0.0990 C.3     1  UNL1        0.1270
      2  C          6.2730    3.7840    0.8160 C.2     1  UNL1        0.3030
      3  O          6.8440    4.7750    0.2940 O.2     1  UNL1       -0.2520
      4  O          6.5750    3.5020    2.1390 O.3     1  UNL1       -0.4810
      5  H          7.3470    2.8490    2.2930 H       1  UNL1        0.2960
      6  C          5.2330    1.5790    0.7800 C.3     1  UNL1        0.0470
      7  C          6.0290    0.5330    0.1420 C.2     1  UNL1       -0.0470
      8  C          6.3690    0.5350   -1.1880 C.2     1  UNL1        0.0040
      9  C          6.4690   -0.5210    0.9040 C.2     1  UNL1        0.0040
     10  C          7.1190   -0.4580   -1.7720 C.2     1  UNL1        0.0000
     11  C          7.2210   -1.5330    0.3530 C.2     1  UNL1        0.0000
     12  C          7.5570   -1.5130   -1.0000 C.2     1  UNL1        0.0000
@<TRIPOS>BOND
     1    10     8    1
     2    10    12    2
     3     8     7    2
     4    12    11    1
     5     1     6    1
     6     1     2    1
     7     7     6    1
     8     7     9    1
     9     3     2    2
    10    11     9    2
    11     2     4    1
    12     4     5    1
