@<TRIPOS>MOLECULE
/home/cewinharhar/GITHUB/reincatalyze/data/processed/docking_pred/2023-Apr-25-2140_maxeplen10_maxtrainstep200_exh16_gamma099_lrac3e-4_lrcr1e-3/f32d20faebe3d2be17d1bcf3c85c7c889e58fe23_ligand_2.pdbqt
 12 12 0 0 0
SMALL
GASTEIGER

@<TRIPOS>ATOM
      1  C          8.4730   -0.7220   -2.0490 C.3     1  UNL1        0.1270
      2  C          8.5240   -1.9560   -2.8750 C.2     1  UNL1        0.3030
      3  O          9.5750   -2.6100   -3.0950 O.2     1  UNL1       -0.2520
      4  O          7.3520   -2.4290   -3.4460 O.3     1  UNL1       -0.4810
      5  H          6.7790   -3.0360   -2.8560 H       1  UNL1        0.2960
      6  C          7.0890   -0.1440   -2.0990 C.3     1  UNL1        0.0470
      7  C          6.4880    0.0980   -0.7890 C.2     1  UNL1       -0.0470
      8  C          5.8140    1.2480   -0.4580 C.2     1  UNL1        0.0040
      9  C          6.5950   -0.8710    0.1770 C.2     1  UNL1        0.0040
     10  C          5.2540    1.4590    0.7790 C.2     1  UNL1        0.0000
     11  C          6.0470   -0.6930    1.4270 C.2     1  UNL1        0.0000
     12  C          5.3660    0.4810    1.7440 C.2     1  UNL1        0.0000
@<TRIPOS>BOND
     1     4     2    1
     2     4     5    1
     3     3     2    2
     4     2     1    1
     5     6     1    1
     6     6     7    1
     7     7     8    2
     8     7     9    1
     9     8    10    1
    10     9    11    2
    11    10    12    2
    12    11    12    1
