@<TRIPOS>MOLECULE
/home/cewinharhar/GITHUB/reincatalyze/data/processed/docking_pred/2023-Apr-25-2140_maxeplen10_maxtrainstep200_exh16_gamma099_lrac3e-4_lrcr1e-3/f32d20faebe3d2be17d1bcf3c85c7c889e58fe23_ligand_2.pdbqt
 12 12 0 0 0
SMALL
GASTEIGER

@<TRIPOS>ATOM
      1  C          8.2490    0.2580   -2.1920 C.3     1  UNL1        0.1270
      2  C          9.3660    0.3580   -1.2170 C.2     1  UNL1        0.3030
      3  O          9.4840   -0.3830   -0.2080 O.2     1  UNL1       -0.2520
      4  O         10.3460    1.3190   -1.4150 O.3     1  UNL1       -0.4810
      5  H         10.5450    1.5610   -2.3890 H       1  UNL1        0.2960
      6  C          7.1170   -0.5110   -1.5780 C.3     1  UNL1        0.0470
      7  C          6.3530    0.2320   -0.5790 C.2     1  UNL1       -0.0470
      8  C          6.1250   -0.2170    0.6990 C.2     1  UNL1        0.0040
      9  C          5.8250    1.4520   -0.9220 C.2     1  UNL1        0.0040
     10  C          5.4040    0.4950    1.6270 C.2     1  UNL1        0.0000
     11  C          5.0970    2.1920   -0.0180 C.2     1  UNL1        0.0000
     12  C          4.8770    1.7190    1.2750 C.2     1  UNL1        0.0000
@<TRIPOS>BOND
     1     5     4    1
     2     1     6    1
     3     1     2    1
     4     6     7    1
     5     4     2    1
     6     2     3    2
     7     9     7    2
     8     9    11    1
     9     7     8    1
    10    11    12    2
    11     8    10    2
    12    12    10    1
