@<TRIPOS>MOLECULE
/home/cewinharhar/GITHUB/reincatalyze/data/processed/docking_pred/2023-Apr-25-2140_maxeplen10_maxtrainstep200_exh16_gamma099_lrac3e-4_lrcr1e-3/f32d20faebe3d2be17d1bcf3c85c7c889e58fe23_ligand_2.pdbqt
 12 12 0 0 0
SMALL
GASTEIGER

@<TRIPOS>ATOM
      1  C          8.4650   -0.5630   -2.2250 C.3     1  UNL1        0.1270
      2  C          8.5180   -1.8770   -2.9170 C.2     1  UNL1        0.3030
      3  O          9.5740   -2.5360   -3.0920 O.2     1  UNL1       -0.2520
      4  O          7.3410   -2.4250   -3.4050 O.3     1  UNL1       -0.4810
      5  H          7.3990   -3.3930   -3.7300 H       1  UNL1        0.2960
      6  C          7.0410   -0.0990   -2.1420 C.3     1  UNL1        0.0470
      7  C          6.5170    0.0000   -0.7820 C.2     1  UNL1       -0.0470
      8  C          6.6100   -1.0060    0.1490 C.2     1  UNL1        0.0040
      9  C          5.8920    1.1600   -0.3960 C.2     1  UNL1        0.0040
     10  C          6.1110   -0.8950    1.4250 C.2     1  UNL1        0.0000
     11  C          5.3800    1.3040    0.8730 C.2     1  UNL1        0.0000
     12  C          5.4850    0.2720    1.8040 C.2     1  UNL1        0.0000
@<TRIPOS>BOND
     1     5     4    1
     2     4     2    1
     3     3     2    2
     4     2     1    1
     5     1     6    1
     6     6     7    1
     7     7     9    2
     8     7     8    1
     9     9    11    1
    10     8    10    2
    11    11    12    2
    12    10    12    1
