MODEL 1
REMARK VINA RESULT:      -7.4      0.000      0.000
REMARK SMILES O=C(O)CCc1ccccc1
REMARK SMILES IDX 4 1 2 2 1 3 3 4 5 6 6 7 7 8 11 9 8 10 10 11 9 12
REMARK H PARENT 3 5
REMARK Flexibility Score: inf
ROOT
ATOM      1  C   UNL     1       8.473  -0.722  -2.049  1.00  0.00     0.127 C 
ENDROOT
BRANCH   1   2
ATOM      2  C   UNL     1       8.524  -1.956  -2.875  1.00  0.00     0.303 C 
ATOM      3  O   UNL     1       9.575  -2.610  -3.095  1.00  0.00    -0.252 OA
BRANCH   2   4
ATOM      4  O   UNL     1       7.352  -2.429  -3.446  1.00  0.00    -0.481 OA
ATOM      5  H   UNL     1       6.779  -3.036  -2.856  1.00  0.00     0.296 HD
ENDBRANCH   2   4
ENDBRANCH   1   2
BRANCH   1   6
ATOM      6  C   UNL     1       7.089  -0.144  -2.099  1.00  0.00     0.047 C 
BRANCH   6   7
ATOM      7  C   UNL     1       6.488   0.098  -0.789  1.00  0.00    -0.047 A 
ATOM      8  C   UNL     1       5.814   1.248  -0.458  1.00  0.00     0.004 A 
ATOM      9  C   UNL     1       6.595  -0.871   0.177  1.00  0.00     0.004 A 
ATOM     10  C   UNL     1       5.254   1.459   0.779  1.00  0.00     0.000 A 
ATOM     11  C   UNL     1       6.047  -0.693   1.427  1.00  0.00     0.000 A 
ATOM     12  C   UNL     1       5.366   0.481   1.744  1.00  0.00     0.000 A 
ENDBRANCH   6   7
ENDBRANCH   1   6
TORSDOF 4
ENDMDL
MODEL 2
REMARK VINA RESULT:      -7.4      0.160      1.434
REMARK SMILES O=C(O)CCc1ccccc1
REMARK SMILES IDX 4 1 2 2 1 3 3 4 5 6 6 7 7 8 11 9 8 10 10 11 9 12
REMARK H PARENT 3 5
REMARK Flexibility Score: inf
ROOT
ATOM      1  C   UNL     1       8.465  -0.563  -2.225  1.00  0.00     0.127 C 
ENDROOT
BRANCH   1   2
ATOM      2  C   UNL     1       8.518  -1.877  -2.917  1.00  0.00     0.303 C 
ATOM      3  O   UNL     1       9.574  -2.536  -3.092  1.00  0.00    -0.252 OA
BRANCH   2   4
ATOM      4  O   UNL     1       7.341  -2.425  -3.405  1.00  0.00    -0.481 OA
ATOM      5  H   UNL     1       7.399  -3.393  -3.730  1.00  0.00     0.296 HD
ENDBRANCH   2   4
ENDBRANCH   1   2
BRANCH   1   6
ATOM      6  C   UNL     1       7.041  -0.099  -2.142  1.00  0.00     0.047 C 
BRANCH   6   7
ATOM      7  C   UNL     1       6.517   0.000  -0.782  1.00  0.00    -0.047 A 
ATOM      8  C   UNL     1       6.610  -1.006   0.149  1.00  0.00     0.004 A 
ATOM      9  C   UNL     1       5.892   1.160  -0.396  1.00  0.00     0.004 A 
ATOM     10  C   UNL     1       6.111  -0.895   1.425  1.00  0.00     0.000 A 
ATOM     11  C   UNL     1       5.380   1.304   0.873  1.00  0.00     0.000 A 
ATOM     12  C   UNL     1       5.485   0.272   1.804  1.00  0.00     0.000 A 
ENDBRANCH   6   7
ENDBRANCH   1   6
TORSDOF 4
ENDMDL
MODEL 3
REMARK VINA RESULT:      -6.8      3.378      5.097
REMARK SMILES O=C(O)CCc1ccccc1
REMARK SMILES IDX 4 1 2 2 1 3 3 4 5 6 6 7 7 8 11 9 8 10 10 11 9 12
REMARK H PARENT 3 5
REMARK Flexibility Score: inf
ROOT
ATOM      1  C   UNL     1       4.982   1.834   0.686  1.00  0.00     0.127 C 
ENDROOT
BRANCH   1   2
ATOM      2  C   UNL     1       4.502   1.117   1.897  1.00  0.00     0.303 C 
ATOM      3  O   UNL     1       5.142   0.198   2.467  1.00  0.00    -0.252 OA
BRANCH   2   4
ATOM      4  O   UNL     1       3.278   1.471   2.444  1.00  0.00    -0.481 OA
ATOM      5  H   UNL     1       2.823   2.289   2.032  1.00  0.00     0.296 HD
ENDBRANCH   2   4
ENDBRANCH   1   2
BRANCH   1   6
ATOM      6  C   UNL     1       6.482   1.864   0.686  1.00  0.00     0.047 C 
BRANCH   6   7
ATOM      7  C   UNL     1       7.102   1.061  -0.365  1.00  0.00    -0.047 A 
ATOM      8  C   UNL     1       6.423   0.142  -1.126  1.00  0.00     0.004 A 
ATOM      9  C   UNL     1       8.442   1.222  -0.619  1.00  0.00     0.004 A 
ATOM     10  C   UNL     1       7.022  -0.606  -2.111  1.00  0.00     0.000 A 
ATOM     11  C   UNL     1       9.074   0.490  -1.597  1.00  0.00     0.000 A 
ATOM     12  C   UNL     1       8.367  -0.439  -2.360  1.00  0.00     0.000 A 
ENDBRANCH   6   7
ENDBRANCH   1   6
TORSDOF 4
ENDMDL
MODEL 4
REMARK VINA RESULT:      -6.7      1.952      2.638
REMARK SMILES O=C(O)CCc1ccccc1
REMARK SMILES IDX 4 1 2 2 1 3 3 4 5 6 6 7 7 8 11 9 8 10 10 11 9 12
REMARK H PARENT 3 5
REMARK Flexibility Score: inf
ROOT
ATOM      1  C   UNL     1       8.249   0.258  -2.192  1.00  0.00     0.127 C 
ENDROOT
BRANCH   1   2
ATOM      2  C   UNL     1       9.366   0.358  -1.217  1.00  0.00     0.303 C 
ATOM      3  O   UNL     1       9.484  -0.383  -0.208  1.00  0.00    -0.252 OA
BRANCH   2   4
ATOM      4  O   UNL     1      10.346   1.319  -1.415  1.00  0.00    -0.481 OA
ATOM      5  H   UNL     1      10.545   1.561  -2.389  1.00  0.00     0.296 HD
ENDBRANCH   2   4
ENDBRANCH   1   2
BRANCH   1   6
ATOM      6  C   UNL     1       7.117  -0.511  -1.578  1.00  0.00     0.047 C 
BRANCH   6   7
ATOM      7  C   UNL     1       6.353   0.232  -0.579  1.00  0.00    -0.047 A 
ATOM      8  C   UNL     1       6.125  -0.217   0.699  1.00  0.00     0.004 A 
ATOM      9  C   UNL     1       5.825   1.452  -0.922  1.00  0.00     0.004 A 
ATOM     10  C   UNL     1       5.404   0.495   1.627  1.00  0.00     0.000 A 
ATOM     11  C   UNL     1       5.097   2.192  -0.018  1.00  0.00     0.000 A 
ATOM     12  C   UNL     1       4.877   1.719   1.275  1.00  0.00     0.000 A 
ENDBRANCH   6   7
ENDBRANCH   1   6
TORSDOF 4
ENDMDL
MODEL 5
REMARK VINA RESULT:      -6.5      3.706      4.965
REMARK SMILES O=C(O)CCc1ccccc1
REMARK SMILES IDX 4 1 2 2 1 3 3 4 5 6 6 7 7 8 11 9 8 10 10 11 9 12
REMARK H PARENT 3 5
REMARK Flexibility Score: inf
ROOT
ATOM      1  C   UNL     1       5.304   2.914   0.099  1.00  0.00     0.127 C 
ENDROOT
BRANCH   1   2
ATOM      2  C   UNL     1       6.273   3.784   0.816  1.00  0.00     0.303 C 
ATOM      3  O   UNL     1       6.844   4.775   0.294  1.00  0.00    -0.252 OA
BRANCH   2   4
ATOM      4  O   UNL     1       6.575   3.502   2.139  1.00  0.00    -0.481 OA
ATOM      5  H   UNL     1       7.347   2.849   2.293  1.00  0.00     0.296 HD
ENDBRANCH   2   4
ENDBRANCH   1   2
BRANCH   1   6
ATOM      6  C   UNL     1       5.233   1.579   0.780  1.00  0.00     0.047 C 
BRANCH   6   7
ATOM      7  C   UNL     1       6.029   0.533   0.142  1.00  0.00    -0.047 A 
ATOM      8  C   UNL     1       6.369   0.535  -1.188  1.00  0.00     0.004 A 
ATOM      9  C   UNL     1       6.469  -0.521   0.904  1.00  0.00     0.004 A 
ATOM     10  C   UNL     1       7.119  -0.458  -1.772  1.00  0.00     0.000 A 
ATOM     11  C   UNL     1       7.221  -1.533   0.353  1.00  0.00     0.000 A 
ATOM     12  C   UNL     1       7.557  -1.513  -1.000  1.00  0.00     0.000 A 
ENDBRANCH   6   7
ENDBRANCH   1   6
TORSDOF 4
ENDMDL
