@<TRIPOS>MOLECULE
/home/cewinharhar/GITHUB/reincatalyze/data/processed/docking_pred/2023-Apr-25-2140_maxeplen10_maxtrainstep200_exh16_gamma099_lrac3e-4_lrcr1e-3/f338baa35ded8d3cb3d8a5b9e0cebf8a24c11f6d_ligand_2.pdbqt
 12 12 0 0 0
SMALL
GASTEIGER

@<TRIPOS>ATOM
      1  C          8.4130   -0.5510   -2.2220 C.3     1  UNL1        0.1270
      2  C          8.5030   -1.8580   -2.9250 C.2     1  UNL1        0.3030
      3  O          9.5770   -2.4870   -3.1020 O.2     1  UNL1       -0.2520
      4  O          7.3430   -2.4330   -3.4220 O.3     1  UNL1       -0.4810
      5  H          6.8240   -3.0280   -2.7720 H       1  UNL1        0.2960
      6  C          6.9810   -0.1090   -2.1720 C.3     1  UNL1        0.0470
      7  C          6.4540    0.0810   -0.8220 C.2     1  UNL1       -0.0470
      8  C          5.8260    1.2270   -0.4000 C.2     1  UNL1        0.0040
      9  C          6.5890   -0.9370    0.0900 C.2     1  UNL1        0.0040
     10  C          5.3370    1.3880    0.8740 C.2     1  UNL1        0.0000
     11  C          6.1110   -0.8090    1.3740 C.2     1  UNL1        0.0000
     12  C          5.4750    0.3620    1.7840 C.2     1  UNL1        0.0000
@<TRIPOS>BOND
     1     4     2    1
     2     4     5    1
     3     3     2    2
     4     2     1    1
     5     1     6    1
     6     6     7    1
     7     7     8    2
     8     7     9    1
     9     8    10    1
    10     9    11    2
    11    10    12    2
    12    11    12    1
