@<TRIPOS>MOLECULE
/home/cewinharhar/GITHUB/reincatalyze/data/processed/docking_pred/2023-Apr-25-2140_maxeplen10_maxtrainstep200_exh16_gamma099_lrac3e-4_lrcr1e-3/f338baa35ded8d3cb3d8a5b9e0cebf8a24c11f6d_ligand_2.pdbqt
 12 12 0 0 0
SMALL
GASTEIGER

@<TRIPOS>ATOM
      1  C          8.4190   -0.5250   -2.2810 C.3     1  UNL1        0.1270
      2  C          8.5000   -1.8660   -2.9160 C.2     1  UNL1        0.3030
      3  O          9.5690   -2.5140   -3.0530 O.2     1  UNL1       -0.2520
      4  O          7.3370   -2.4540   -3.3900 O.3     1  UNL1       -0.4810
      5  H          7.4140   -3.4340   -3.6740 H       1  UNL1        0.2960
      6  C          6.9820   -0.1070   -2.1770 C.3     1  UNL1        0.0470
      7  C          6.4830    0.0040   -0.8080 C.2     1  UNL1       -0.0470
      8  C          6.5970   -0.9920    0.1310 C.2     1  UNL1        0.0040
      9  C          5.8620    1.1660   -0.4220 C.2     1  UNL1        0.0040
     10  C          6.1220   -0.8700    1.4150 C.2     1  UNL1        0.0000
     11  C          5.3730    1.3220    0.8550 C.2     1  UNL1        0.0000
     12  C          5.4990    0.2990    1.7940 C.2     1  UNL1        0.0000
@<TRIPOS>BOND
     1     5     4    1
     2     4     2    1
     3     3     2    2
     4     2     1    1
     5     1     6    1
     6     6     7    1
     7     7     9    2
     8     7     8    1
     9     9    11    1
    10     8    10    2
    11    11    12    2
    12    10    12    1
