@<TRIPOS>MOLECULE
/home/cewinharhar/GITHUB/reincatalyze/data/processed/docking_pred/2023-Apr-25-2140_maxeplen10_maxtrainstep200_exh16_gamma099_lrac3e-4_lrcr1e-3/f338baa35ded8d3cb3d8a5b9e0cebf8a24c11f6d_ligand_2.pdbqt
 12 12 0 0 0
SMALL
GASTEIGER

@<TRIPOS>ATOM
      1  C          8.2780    0.2060   -2.2390 C.3     1  UNL1        0.1270
      2  C          9.3630    0.3260   -1.2300 C.2     1  UNL1        0.3030
      3  O          9.4590   -0.4070   -0.2130 O.2     1  UNL1       -0.2520
      4  O         10.3360    1.2990   -1.4040 O.3     1  UNL1       -0.4810
      5  H         11.0980    1.0610   -2.0420 H       1  UNL1        0.2960
      6  C          7.1110   -0.5160   -1.6340 C.3     1  UNL1        0.0470
      7  C          6.3560    0.2670   -0.6580 C.2     1  UNL1       -0.0470
      8  C          6.1120   -0.1450    0.6290 C.2     1  UNL1        0.0040
      9  C          5.8540    1.4880   -1.0350 C.2     1  UNL1        0.0040
     10  C          5.4000    0.6060    1.5340 C.2     1  UNL1        0.0000
     11  C          5.1360    2.2650   -0.1560 C.2     1  UNL1        0.0000
     12  C          4.8990    1.8300    1.1480 C.2     1  UNL1        0.0000
@<TRIPOS>BOND
     1     1     6    1
     2     1     2    1
     3     5     4    1
     4     6     7    1
     5     4     2    1
     6     2     3    2
     7     9     7    2
     8     9    11    1
     9     7     8    1
    10    11    12    2
    11     8    10    2
    12    12    10    1
