MODEL 1
REMARK VINA RESULT:      -7.3      0.000      0.000
REMARK SMILES O=C(O)CCc1ccccc1
REMARK SMILES IDX 4 1 2 2 1 3 3 4 5 6 6 7 7 8 11 9 8 10 10 11 9 12
REMARK H PARENT 3 5
REMARK Flexibility Score: inf
ROOT
ATOM      1  C   UNL     1       8.413  -0.551  -2.222  1.00  0.00     0.127 C 
ENDROOT
BRANCH   1   2
ATOM      2  C   UNL     1       8.503  -1.858  -2.925  1.00  0.00     0.303 C 
ATOM      3  O   UNL     1       9.577  -2.487  -3.102  1.00  0.00    -0.252 OA
BRANCH   2   4
ATOM      4  O   UNL     1       7.343  -2.433  -3.422  1.00  0.00    -0.481 OA
ATOM      5  H   UNL     1       6.824  -3.028  -2.772  1.00  0.00     0.296 HD
ENDBRANCH   2   4
ENDBRANCH   1   2
BRANCH   1   6
ATOM      6  C   UNL     1       6.981  -0.109  -2.172  1.00  0.00     0.047 C 
BRANCH   6   7
ATOM      7  C   UNL     1       6.454   0.081  -0.822  1.00  0.00    -0.047 A 
ATOM      8  C   UNL     1       5.826   1.227  -0.400  1.00  0.00     0.004 A 
ATOM      9  C   UNL     1       6.589  -0.937   0.090  1.00  0.00     0.004 A 
ATOM     10  C   UNL     1       5.337   1.388   0.874  1.00  0.00     0.000 A 
ATOM     11  C   UNL     1       6.111  -0.809   1.374  1.00  0.00     0.000 A 
ATOM     12  C   UNL     1       5.475   0.362   1.784  1.00  0.00     0.000 A 
ENDBRANCH   6   7
ENDBRANCH   1   6
TORSDOF 4
ENDMDL
MODEL 2
REMARK VINA RESULT:      -7.3      0.062      1.427
REMARK SMILES O=C(O)CCc1ccccc1
REMARK SMILES IDX 4 1 2 2 1 3 3 4 5 6 6 7 7 8 11 9 8 10 10 11 9 12
REMARK H PARENT 3 5
REMARK Flexibility Score: inf
ROOT
ATOM      1  C   UNL     1       8.419  -0.525  -2.281  1.00  0.00     0.127 C 
ENDROOT
BRANCH   1   2
ATOM      2  C   UNL     1       8.500  -1.866  -2.916  1.00  0.00     0.303 C 
ATOM      3  O   UNL     1       9.569  -2.514  -3.053  1.00  0.00    -0.252 OA
BRANCH   2   4
ATOM      4  O   UNL     1       7.337  -2.454  -3.390  1.00  0.00    -0.481 OA
ATOM      5  H   UNL     1       7.414  -3.434  -3.674  1.00  0.00     0.296 HD
ENDBRANCH   2   4
ENDBRANCH   1   2
BRANCH   1   6
ATOM      6  C   UNL     1       6.982  -0.107  -2.177  1.00  0.00     0.047 C 
BRANCH   6   7
ATOM      7  C   UNL     1       6.483   0.004  -0.808  1.00  0.00    -0.047 A 
ATOM      8  C   UNL     1       6.597  -0.992   0.131  1.00  0.00     0.004 A 
ATOM      9  C   UNL     1       5.862   1.166  -0.422  1.00  0.00     0.004 A 
ATOM     10  C   UNL     1       6.122  -0.870   1.415  1.00  0.00     0.000 A 
ATOM     11  C   UNL     1       5.373   1.322   0.855  1.00  0.00     0.000 A 
ATOM     12  C   UNL     1       5.499   0.299   1.794  1.00  0.00     0.000 A 
ENDBRANCH   6   7
ENDBRANCH   1   6
TORSDOF 4
ENDMDL
MODEL 3
REMARK VINA RESULT:      -7.2      0.690      1.112
REMARK SMILES O=C(O)CCc1ccccc1
REMARK SMILES IDX 4 1 2 2 1 3 3 4 5 6 6 7 7 8 11 9 8 10 10 11 9 12
REMARK H PARENT 3 5
REMARK Flexibility Score: inf
ROOT
ATOM      1  C   UNL     1       8.346  -0.977  -1.765  1.00  0.00     0.127 C 
ENDROOT
BRANCH   1   2
ATOM      2  C   UNL     1       8.487  -2.006  -2.828  1.00  0.00     0.303 C 
ATOM      3  O   UNL     1       9.579  -2.545  -3.142  1.00  0.00    -0.252 OA
BRANCH   2   4
ATOM      4  O   UNL     1       7.358  -2.409  -3.524  1.00  0.00    -0.481 OA
ATOM      5  H   UNL     1       6.519  -1.842  -3.385  1.00  0.00     0.296 HD
ENDBRANCH   2   4
ENDBRANCH   1   2
BRANCH   1   6
ATOM      6  C   UNL     1       7.310  -1.420  -0.774  1.00  0.00     0.047 C 
BRANCH   6   7
ATOM      7  C   UNL     1       6.525  -0.333  -0.194  1.00  0.00    -0.047 A 
ATOM      8  C   UNL     1       6.166   0.801  -0.880  1.00  0.00     0.004 A 
ATOM      9  C   UNL     1       6.116  -0.436   1.112  1.00  0.00     0.004 A 
ATOM     10  C   UNL     1       5.427   1.815  -0.319  1.00  0.00     0.000 A 
ATOM     11  C   UNL     1       5.376   0.560   1.706  1.00  0.00     0.000 A 
ATOM     12  C   UNL     1       5.020   1.704   0.994  1.00  0.00     0.000 A 
ENDBRANCH   6   7
ENDBRANCH   1   6
TORSDOF 4
ENDMDL
MODEL 4
REMARK VINA RESULT:      -6.8      3.378      5.067
REMARK SMILES O=C(O)CCc1ccccc1
REMARK SMILES IDX 4 1 2 2 1 3 3 4 5 6 6 7 7 8 11 9 8 10 10 11 9 12
REMARK H PARENT 3 5
REMARK Flexibility Score: inf
ROOT
ATOM      1  C   UNL     1       5.014   1.814   0.713  1.00  0.00     0.127 C 
ENDROOT
BRANCH   1   2
ATOM      2  C   UNL     1       4.502   1.102   1.912  1.00  0.00     0.303 C 
ATOM      3  O   UNL     1       5.121   0.175   2.495  1.00  0.00    -0.252 OA
BRANCH   2   4
ATOM      4  O   UNL     1       3.271   1.468   2.435  1.00  0.00    -0.481 OA
ATOM      5  H   UNL     1       3.294   1.995   3.311  1.00  0.00     0.296 HD
ENDBRANCH   2   4
ENDBRANCH   1   2
BRANCH   1   6
ATOM      6  C   UNL     1       6.514   1.836   0.747  1.00  0.00     0.047 C 
BRANCH   6   7
ATOM      7  C   UNL     1       7.154   1.083  -0.329  1.00  0.00    -0.047 A 
ATOM      8  C   UNL     1       8.480   1.204  -0.664  1.00  0.00     0.004 A 
ATOM      9  C   UNL     1       6.398   0.198  -1.058  1.00  0.00     0.004 A 
ATOM     10  C   UNL     1       9.066   0.487  -1.680  1.00  0.00     0.000 A 
ATOM     11  C   UNL     1       6.951  -0.535  -2.082  1.00  0.00     0.000 A 
ATOM     12  C   UNL     1       8.300  -0.399  -2.407  1.00  0.00     0.000 A 
ENDBRANCH   6   7
ENDBRANCH   1   6
TORSDOF 4
ENDMDL
MODEL 5
REMARK VINA RESULT:      -6.7      1.923      2.638
REMARK SMILES O=C(O)CCc1ccccc1
REMARK SMILES IDX 4 1 2 2 1 3 3 4 5 6 6 7 7 8 11 9 8 10 10 11 9 12
REMARK H PARENT 3 5
REMARK Flexibility Score: inf
ROOT
ATOM      1  C   UNL     1       8.278   0.206  -2.239  1.00  0.00     0.127 C 
ENDROOT
BRANCH   1   2
ATOM      2  C   UNL     1       9.363   0.326  -1.230  1.00  0.00     0.303 C 
ATOM      3  O   UNL     1       9.459  -0.407  -0.213  1.00  0.00    -0.252 OA
BRANCH   2   4
ATOM      4  O   UNL     1      10.336   1.299  -1.404  1.00  0.00    -0.481 OA
ATOM      5  H   UNL     1      11.098   1.061  -2.042  1.00  0.00     0.296 HD
ENDBRANCH   2   4
ENDBRANCH   1   2
BRANCH   1   6
ATOM      6  C   UNL     1       7.111  -0.516  -1.634  1.00  0.00     0.047 C 
BRANCH   6   7
ATOM      7  C   UNL     1       6.356   0.267  -0.658  1.00  0.00    -0.047 A 
ATOM      8  C   UNL     1       6.112  -0.145   0.629  1.00  0.00     0.004 A 
ATOM      9  C   UNL     1       5.854   1.488  -1.035  1.00  0.00     0.004 A 
ATOM     10  C   UNL     1       5.400   0.606   1.534  1.00  0.00     0.000 A 
ATOM     11  C   UNL     1       5.136   2.265  -0.156  1.00  0.00     0.000 A 
ATOM     12  C   UNL     1       4.899   1.830   1.148  1.00  0.00     0.000 A 
ENDBRANCH   6   7
ENDBRANCH   1   6
TORSDOF 4
ENDMDL
