@<TRIPOS>MOLECULE
/home/cewinharhar/GITHUB/reincatalyze/data/processed/docking_pred/2023-Apr-25-2140_maxeplen10_maxtrainstep200_exh16_gamma099_lrac3e-4_lrcr1e-3/f338baa35ded8d3cb3d8a5b9e0cebf8a24c11f6d_ligand_2.pdbqt
 12 12 0 0 0
SMALL
GASTEIGER

@<TRIPOS>ATOM
      1  C          8.3460   -0.9770   -1.7650 C.3     1  UNL1        0.1270
      2  C          8.4870   -2.0060   -2.8280 C.2     1  UNL1        0.3030
      3  O          9.5790   -2.5450   -3.1420 O.2     1  UNL1       -0.2520
      4  O          7.3580   -2.4090   -3.5240 O.3     1  UNL1       -0.4810
      5  H          6.5190   -1.8420   -3.3850 H       1  UNL1        0.2960
      6  C          7.3100   -1.4200   -0.7740 C.3     1  UNL1        0.0470
      7  C          6.5250   -0.3330   -0.1940 C.2     1  UNL1       -0.0470
      8  C          6.1660    0.8010   -0.8800 C.2     1  UNL1        0.0040
      9  C          6.1160   -0.4360    1.1120 C.2     1  UNL1        0.0040
     10  C          5.4270    1.8150   -0.3190 C.2     1  UNL1        0.0000
     11  C          5.3760    0.5600    1.7060 C.2     1  UNL1        0.0000
     12  C          5.0200    1.7040    0.9940 C.2     1  UNL1        0.0000
@<TRIPOS>BOND
     1     4     5    1
     2     4     2    1
     3     3     2    2
     4     2     1    1
     5     1     6    1
     6     8    10    1
     7     8     7    2
     8     6     7    1
     9    10    12    2
    10     7     9    1
    11    12    11    1
    12     9    11    2
