@<TRIPOS>MOLECULE
/home/cewinharhar/GITHUB/reincatalyze/data/processed/docking_pred/2023-Apr-25-2140_maxeplen10_maxtrainstep200_exh16_gamma099_lrac3e-4_lrcr1e-3/f43d8cd6194682d8f3e5600fbc578d0750565092_ligand_2.pdbqt
 12 12 0 0 0
SMALL
GASTEIGER

@<TRIPOS>ATOM
      1  C          8.0100   -1.4090    2.5820 C.3     1  UNL1        0.1270
      2  C          9.0850   -2.1720    1.8960 C.2     1  UNL1        0.3030
      3  O         10.3130   -1.9660    2.0720 O.2     1  UNL1       -0.2520
      4  O          8.7320   -3.1740    1.0040 O.3     1  UNL1       -0.4810
      5  H          9.0220   -3.0330    0.0340 H       1  UNL1        0.2960
      6  C          6.7140   -1.6050    1.8520 C.3     1  UNL1        0.0470
      7  C          6.2460   -0.4280    1.1250 C.2     1  UNL1       -0.0470
      8  C          5.4390    0.5380    1.6740 C.2     1  UNL1        0.0040
      9  C          6.6270   -0.2630   -0.1840 C.2     1  UNL1        0.0040
     10  C          5.0080    1.6410    0.9750 C.2     1  UNL1        0.0000
     11  C          6.2130    0.8280   -0.9130 C.2     1  UNL1        0.0000
     12  C          5.3940    1.7990   -0.3390 C.2     1  UNL1        0.0000
@<TRIPOS>BOND
     1    11    12    2
     2    11     9    1
     3    12    10    1
     4     9     7    2
     5     5     4    1
     6    10     8    2
     7     4     2    1
     8     7     8    1
     9     7     6    1
    10     6     1    1
    11     2     3    2
    12     2     1    1
