@<TRIPOS>MOLECULE
/home/cewinharhar/GITHUB/reincatalyze/data/processed/docking_pred/2023-Apr-25-2140_maxeplen10_maxtrainstep200_exh16_gamma099_lrac3e-4_lrcr1e-3/f43d8cd6194682d8f3e5600fbc578d0750565092_ligand_2.pdbqt
 12 12 0 0 0
SMALL
GASTEIGER

@<TRIPOS>ATOM
      1  C          8.4470   -0.5750   -2.1910 C.3     1  UNL1        0.1270
      2  C          8.5230   -1.8750   -2.9070 C.2     1  UNL1        0.3030
      3  O          9.5910   -2.5120   -3.0920 O.2     1  UNL1       -0.2520
      4  O          7.3570   -2.4350   -3.4070 O.3     1  UNL1       -0.4810
      5  H          6.8940   -3.1200   -2.8050 H       1  UNL1        0.2960
      6  C          7.0260   -0.0930   -2.1810 C.3     1  UNL1        0.0470
      7  C          6.4680    0.1160   -0.8470 C.2     1  UNL1       -0.0470
      8  C          5.8320    1.2690   -0.4570 C.2     1  UNL1        0.0040
      9  C          6.5790   -0.8880    0.0820 C.2     1  UNL1        0.0040
     10  C          5.3120    1.4490    0.8030 C.2     1  UNL1        0.0000
     11  C          6.0720   -0.7410    1.3530 C.2     1  UNL1        0.0000
     12  C          5.4280    0.4360    1.7300 C.2     1  UNL1        0.0000
@<TRIPOS>BOND
     1     4     2    1
     2     4     5    1
     3     3     2    2
     4     2     1    1
     5     1     6    1
     6     6     7    1
     7     7     8    2
     8     7     9    1
     9     8    10    1
    10     9    11    2
    11    10    12    2
    12    11    12    1
