MODEL 1
REMARK VINA RESULT:      -7.1      0.000      0.000
REMARK SMILES O=C(O)CCc1ccccc1
REMARK SMILES IDX 4 1 2 2 1 3 3 4 5 6 6 7 7 8 11 9 8 10 10 11 9 12
REMARK H PARENT 3 5
REMARK Flexibility Score: inf
ROOT
ATOM      1  C   UNL     1       8.447  -0.575  -2.191  1.00  0.00     0.127 C 
ENDROOT
BRANCH   1   2
ATOM      2  C   UNL     1       8.523  -1.875  -2.907  1.00  0.00     0.303 C 
ATOM      3  O   UNL     1       9.591  -2.512  -3.092  1.00  0.00    -0.252 OA
BRANCH   2   4
ATOM      4  O   UNL     1       7.357  -2.435  -3.407  1.00  0.00    -0.481 OA
ATOM      5  H   UNL     1       6.894  -3.120  -2.805  1.00  0.00     0.296 HD
ENDBRANCH   2   4
ENDBRANCH   1   2
BRANCH   1   6
ATOM      6  C   UNL     1       7.026  -0.093  -2.181  1.00  0.00     0.047 C 
BRANCH   6   7
ATOM      7  C   UNL     1       6.468   0.116  -0.847  1.00  0.00    -0.047 A 
ATOM      8  C   UNL     1       5.832   1.269  -0.457  1.00  0.00     0.004 A 
ATOM      9  C   UNL     1       6.579  -0.888   0.082  1.00  0.00     0.004 A 
ATOM     10  C   UNL     1       5.312   1.449   0.803  1.00  0.00     0.000 A 
ATOM     11  C   UNL     1       6.072  -0.741   1.353  1.00  0.00     0.000 A 
ATOM     12  C   UNL     1       5.428   0.436   1.730  1.00  0.00     0.000 A 
ENDBRANCH   6   7
ENDBRANCH   1   6
TORSDOF 4
ENDMDL
MODEL 2
REMARK VINA RESULT:      -7.1      0.060      1.427
REMARK SMILES O=C(O)CCc1ccccc1
REMARK SMILES IDX 4 1 2 2 1 3 3 4 5 6 6 7 7 8 11 9 8 10 10 11 9 12
REMARK H PARENT 3 5
REMARK Flexibility Score: inf
ROOT
ATOM      1  C   UNL     1       8.455  -0.544  -2.235  1.00  0.00     0.127 C 
ENDROOT
BRANCH   1   2
ATOM      2  C   UNL     1       8.517  -1.865  -2.914  1.00  0.00     0.303 C 
ATOM      3  O   UNL     1       9.577  -2.520  -3.078  1.00  0.00    -0.252 OA
BRANCH   2   4
ATOM      4  O   UNL     1       7.345  -2.424  -3.401  1.00  0.00    -0.481 OA
ATOM      5  H   UNL     1       7.338  -3.443  -3.491  1.00  0.00     0.296 HD
ENDBRANCH   2   4
ENDBRANCH   1   2
BRANCH   1   6
ATOM      6  C   UNL     1       7.030  -0.080  -2.176  1.00  0.00     0.047 C 
BRANCH   6   7
ATOM      7  C   UNL     1       6.490   0.043  -0.824  1.00  0.00    -0.047 A 
ATOM      8  C   UNL     1       6.564  -0.950   0.121  1.00  0.00     0.004 A 
ATOM      9  C   UNL     1       5.869   1.213  -0.463  1.00  0.00     0.004 A 
ATOM     10  C   UNL     1       6.051  -0.818   1.389  1.00  0.00     0.000 A 
ATOM     11  C   UNL     1       5.343   1.379   0.798  1.00  0.00     0.000 A 
ATOM     12  C   UNL     1       5.429   0.360   1.745  1.00  0.00     0.000 A 
ENDBRANCH   6   7
ENDBRANCH   1   6
TORSDOF 4
ENDMDL
MODEL 3
REMARK VINA RESULT:      -6.6      3.368      5.087
REMARK SMILES O=C(O)CCc1ccccc1
REMARK SMILES IDX 4 1 2 2 1 3 3 4 5 6 6 7 7 8 11 9 8 10 10 11 9 12
REMARK H PARENT 3 5
REMARK Flexibility Score: inf
ROOT
ATOM      1  C   UNL     1       4.992   1.815   0.704  1.00  0.00     0.127 C 
ENDROOT
BRANCH   1   2
ATOM      2  C   UNL     1       4.492   1.103   1.909  1.00  0.00     0.303 C 
ATOM      3  O   UNL     1       5.119   0.180   2.489  1.00  0.00    -0.252 OA
BRANCH   2   4
ATOM      4  O   UNL     1       3.264   1.465   2.441  1.00  0.00    -0.481 OA
ATOM      5  H   UNL     1       2.681   0.699   2.784  1.00  0.00     0.296 HD
ENDBRANCH   2   4
ENDBRANCH   1   2
BRANCH   1   6
ATOM      6  C   UNL     1       6.492   1.816   0.711  1.00  0.00     0.047 C 
BRANCH   6   7
ATOM      7  C   UNL     1       7.102   1.024  -0.355  1.00  0.00    -0.047 A 
ATOM      8  C   UNL     1       6.430   0.068  -1.076  1.00  0.00     0.004 A 
ATOM      9  C   UNL     1       8.422   1.236  -0.665  1.00  0.00     0.004 A 
ATOM     10  C   UNL     1       7.019  -0.669  -2.076  1.00  0.00     0.000 A 
ATOM     11  C   UNL     1       9.044   0.516  -1.660  1.00  0.00     0.000 A 
ATOM     12  C   UNL     1       8.345  -0.450  -2.381  1.00  0.00     0.000 A 
ENDBRANCH   6   7
ENDBRANCH   1   6
TORSDOF 4
ENDMDL
MODEL 4
REMARK VINA RESULT:      -6.5      2.499      3.774
REMARK SMILES O=C(O)CCc1ccccc1
REMARK SMILES IDX 4 1 2 2 1 3 3 4 5 6 6 7 7 8 11 9 8 10 10 11 9 12
REMARK H PARENT 3 5
REMARK Flexibility Score: inf
ROOT
ATOM      1  C   UNL     1       8.215  -1.375   2.609  1.00  0.00     0.127 C 
ENDROOT
BRANCH   1   2
ATOM      2  C   UNL     1       9.209  -2.227   1.904  1.00  0.00     0.303 C 
ATOM      3  O   UNL     1       8.901  -3.166   1.127  1.00  0.00    -0.252 OA
BRANCH   2   4
ATOM      4  O   UNL     1      10.560  -1.986   2.104  1.00  0.00    -0.481 OA
ATOM      5  H   UNL     1      10.808  -1.038   2.395  1.00  0.00     0.296 HD
ENDBRANCH   2   4
ENDBRANCH   1   2
BRANCH   1   6
ATOM      6  C   UNL     1       6.858  -1.587   2.005  1.00  0.00     0.047 C 
BRANCH   6   7
ATOM      7  C   UNL     1       6.389  -0.482   1.172  1.00  0.00    -0.047 A 
ATOM      8  C   UNL     1       6.728  -0.324  -0.150  1.00  0.00     0.004 A 
ATOM      9  C   UNL     1       5.560   0.461   1.727  1.00  0.00     0.004 A 
ATOM     10  C   UNL     1       6.277   0.722  -0.919  1.00  0.00     0.000 A 
ATOM     11  C   UNL     1       5.091   1.521   0.986  1.00  0.00     0.000 A 
ATOM     12  C   UNL     1       5.446   1.665  -0.354  1.00  0.00     0.000 A 
ENDBRANCH   6   7
ENDBRANCH   1   6
TORSDOF 4
ENDMDL
MODEL 5
REMARK VINA RESULT:      -6.5      2.448      3.555
REMARK SMILES O=C(O)CCc1ccccc1
REMARK SMILES IDX 4 1 2 2 1 3 3 4 5 6 6 7 7 8 11 9 8 10 10 11 9 12
REMARK H PARENT 3 5
REMARK Flexibility Score: inf
ROOT
ATOM      1  C   UNL     1       8.010  -1.409   2.582  1.00  0.00     0.127 C 
ENDROOT
BRANCH   1   2
ATOM      2  C   UNL     1       9.085  -2.172   1.896  1.00  0.00     0.303 C 
ATOM      3  O   UNL     1      10.313  -1.966   2.072  1.00  0.00    -0.252 OA
BRANCH   2   4
ATOM      4  O   UNL     1       8.732  -3.174   1.004  1.00  0.00    -0.481 OA
ATOM      5  H   UNL     1       9.022  -3.033   0.034  1.00  0.00     0.296 HD
ENDBRANCH   2   4
ENDBRANCH   1   2
BRANCH   1   6
ATOM      6  C   UNL     1       6.714  -1.605   1.852  1.00  0.00     0.047 C 
BRANCH   6   7
ATOM      7  C   UNL     1       6.246  -0.428   1.125  1.00  0.00    -0.047 A 
ATOM      8  C   UNL     1       5.439   0.538   1.674  1.00  0.00     0.004 A 
ATOM      9  C   UNL     1       6.627  -0.263  -0.184  1.00  0.00     0.004 A 
ATOM     10  C   UNL     1       5.008   1.641   0.975  1.00  0.00     0.000 A 
ATOM     11  C   UNL     1       6.213   0.828  -0.913  1.00  0.00     0.000 A 
ATOM     12  C   UNL     1       5.394   1.799  -0.339  1.00  0.00     0.000 A 
ENDBRANCH   6   7
ENDBRANCH   1   6
TORSDOF 4
ENDMDL
