@<TRIPOS>MOLECULE
/home/cewinharhar/GITHUB/reincatalyze/data/processed/docking_pred/2023-Apr-25-2140_maxeplen10_maxtrainstep200_exh16_gamma099_lrac3e-4_lrcr1e-3/f43d8cd6194682d8f3e5600fbc578d0750565092_ligand_2.pdbqt
 12 12 0 0 0
SMALL
GASTEIGER

@<TRIPOS>ATOM
      1  C          8.2150   -1.3750    2.6090 C.3     1  UNL1        0.1270
      2  C          9.2090   -2.2270    1.9040 C.2     1  UNL1        0.3030
      3  O          8.9010   -3.1660    1.1270 O.2     1  UNL1       -0.2520
      4  O         10.5600   -1.9860    2.1040 O.3     1  UNL1       -0.4810
      5  H         10.8080   -1.0380    2.3950 H       1  UNL1        0.2960
      6  C          6.8580   -1.5870    2.0050 C.3     1  UNL1        0.0470
      7  C          6.3890   -0.4820    1.1720 C.2     1  UNL1       -0.0470
      8  C          6.7280   -0.3240   -0.1500 C.2     1  UNL1        0.0040
      9  C          5.5600    0.4610    1.7270 C.2     1  UNL1        0.0040
     10  C          6.2770    0.7220   -0.9190 C.2     1  UNL1        0.0000
     11  C          5.0910    1.5210    0.9860 C.2     1  UNL1        0.0000
     12  C          5.4460    1.6650   -0.3540 C.2     1  UNL1        0.0000
@<TRIPOS>BOND
     1    10    12    2
     2    10     8    1
     3    12    11    1
     4     8     7    2
     5    11     9    2
     6     3     2    2
     7     7     9    1
     8     7     6    1
     9     2     4    1
    10     2     1    1
    11     6     1    1
    12     4     5    1
