@<TRIPOS>MOLECULE
/home/cewinharhar/GITHUB/reincatalyze/data/processed/docking_pred/2023-Apr-25-2140_maxeplen10_maxtrainstep200_exh16_gamma099_lrac3e-4_lrcr1e-3/f43d8cd6194682d8f3e5600fbc578d0750565092_ligand_2.pdbqt
 12 12 0 0 0
SMALL
GASTEIGER

@<TRIPOS>ATOM
      1  C          4.9920    1.8150    0.7040 C.3     1  UNL1        0.1270
      2  C          4.4920    1.1030    1.9090 C.2     1  UNL1        0.3030
      3  O          5.1190    0.1800    2.4890 O.2     1  UNL1       -0.2520
      4  O          3.2640    1.4650    2.4410 O.3     1  UNL1       -0.4810
      5  H          2.6810    0.6990    2.7840 H       1  UNL1        0.2960
      6  C          6.4920    1.8160    0.7110 C.3     1  UNL1        0.0470
      7  C          7.1020    1.0240   -0.3550 C.2     1  UNL1       -0.0470
      8  C          6.4300    0.0680   -1.0760 C.2     1  UNL1        0.0040
      9  C          8.4220    1.2360   -0.6650 C.2     1  UNL1        0.0040
     10  C          7.0190   -0.6690   -2.0760 C.2     1  UNL1        0.0000
     11  C          9.0440    0.5160   -1.6600 C.2     1  UNL1        0.0000
     12  C          8.3450   -0.4500   -2.3810 C.2     1  UNL1        0.0000
@<TRIPOS>BOND
     1    12    10    2
     2    12    11    1
     3    10     8    1
     4    11     9    2
     5     8     7    2
     6     9     7    1
     7     7     6    1
     8     1     6    1
     9     1     2    1
    10     2     4    1
    11     2     3    2
    12     4     5    1
