@<TRIPOS>MOLECULE
/home/cewinharhar/GITHUB/reincatalyze/data/processed/docking_pred/2023-Apr-25-2140_maxeplen10_maxtrainstep200_exh16_gamma099_lrac3e-4_lrcr1e-3/f43d8cd6194682d8f3e5600fbc578d0750565092_ligand_2.pdbqt
 12 12 0 0 0
SMALL
GASTEIGER

@<TRIPOS>ATOM
      1  C          8.4550   -0.5440   -2.2350 C.3     1  UNL1        0.1270
      2  C          8.5170   -1.8650   -2.9140 C.2     1  UNL1        0.3030
      3  O          9.5770   -2.5200   -3.0780 O.2     1  UNL1       -0.2520
      4  O          7.3450   -2.4240   -3.4010 O.3     1  UNL1       -0.4810
      5  H          7.3380   -3.4430   -3.4910 H       1  UNL1        0.2960
      6  C          7.0300   -0.0800   -2.1760 C.3     1  UNL1        0.0470
      7  C          6.4900    0.0430   -0.8240 C.2     1  UNL1       -0.0470
      8  C          6.5640   -0.9500    0.1210 C.2     1  UNL1        0.0040
      9  C          5.8690    1.2130   -0.4630 C.2     1  UNL1        0.0040
     10  C          6.0510   -0.8180    1.3890 C.2     1  UNL1        0.0000
     11  C          5.3430    1.3790    0.7980 C.2     1  UNL1        0.0000
     12  C          5.4290    0.3600    1.7450 C.2     1  UNL1        0.0000
@<TRIPOS>BOND
     1     5     4    1
     2     4     2    1
     3     3     2    2
     4     2     1    1
     5     1     6    1
     6     6     7    1
     7     7     9    2
     8     7     8    1
     9     9    11    1
    10     8    10    2
    11    11    12    2
    12    10    12    1
