@<TRIPOS>MOLECULE
/home/cewinharhar/GITHUB/reincatalyze/data/processed/docking_pred/2023-Apr-25-2140_maxeplen10_maxtrainstep200_exh16_gamma099_lrac3e-4_lrcr1e-3/f56adf6440abdf94ed5aca5eaefea0329b307251_ligand_2.pdbqt
 12 12 0 0 0
SMALL
GASTEIGER

@<TRIPOS>ATOM
      1  C          8.0520   -0.7610   -2.0800 C.3     1  UNL1        0.1270
      2  C          8.3490   -1.9530   -2.9160 C.2     1  UNL1        0.3030
      3  O          9.5050   -2.4170   -3.0900 O.2     1  UNL1       -0.2520
      4  O          7.3030   -2.6060   -3.5500 O.3     1  UNL1       -0.4810
      5  H          7.5240   -3.5170   -3.9590 H       1  UNL1        0.2960
      6  C          7.4400   -1.2020   -0.7820 C.3     1  UNL1        0.0470
      7  C          6.5830   -0.2030   -0.1490 C.2     1  UNL1       -0.0470
      8  C          6.1200   -0.3000    1.1410 C.2     1  UNL1        0.0040
      9  C          6.2090    0.9030   -0.8710 C.2     1  UNL1        0.0040
     10  C          5.3140    0.6500    1.7220 C.2     1  UNL1        0.0000
     11  C          5.4020    1.8720   -0.3210 C.2     1  UNL1        0.0000
     12  C          4.9430    1.7570    0.9900 C.2     1  UNL1        0.0000
@<TRIPOS>BOND
     1     5     4    1
     2     4     2    1
     3     3     2    2
     4     2     1    1
     5     1     6    1
     6     9    11    1
     7     9     7    2
     8     6     7    1
     9    11    12    2
    10     7     8    1
    11    12    10    1
    12     8    10    2
