MODEL 1
REMARK VINA RESULT:      -7.3      0.000      0.000
REMARK SMILES O=C(O)CCc1ccccc1
REMARK SMILES IDX 4 1 2 2 1 3 3 4 5 6 6 7 7 8 11 9 8 10 10 11 9 12
REMARK H PARENT 3 5
REMARK Flexibility Score: inf
ROOT
ATOM      1  C   UNL     1       8.409  -0.497  -2.320  1.00  0.00     0.127 C 
ENDROOT
BRANCH   1   2
ATOM      2  C   UNL     1       8.494  -1.850  -2.927  1.00  0.00     0.303 C 
ATOM      3  O   UNL     1       9.563  -2.502  -3.042  1.00  0.00    -0.252 OA
BRANCH   2   4
ATOM      4  O   UNL     1       7.334  -2.446  -3.401  1.00  0.00    -0.481 OA
ATOM      5  H   UNL     1       6.823  -3.027  -2.732  1.00  0.00     0.296 HD
ENDBRANCH   2   4
ENDBRANCH   1   2
BRANCH   1   6
ATOM      6  C   UNL     1       6.970  -0.090  -2.203  1.00  0.00     0.047 C 
BRANCH   6   7
ATOM      7  C   UNL     1       6.481   0.012  -0.830  1.00  0.00    -0.047 A 
ATOM      8  C   UNL     1       6.599  -0.991   0.100  1.00  0.00     0.004 A 
ATOM      9  C   UNL     1       5.863   1.171  -0.431  1.00  0.00     0.004 A 
ATOM     10  C   UNL     1       6.133  -0.878   1.388  1.00  0.00     0.000 A 
ATOM     11  C   UNL     1       5.384   1.318   0.850  1.00  0.00     0.000 A 
ATOM     12  C   UNL     1       5.514   0.289   1.781  1.00  0.00     0.000 A 
ENDBRANCH   6   7
ENDBRANCH   1   6
TORSDOF 4
ENDMDL
MODEL 2
REMARK VINA RESULT:      -7.3      0.168      1.725
REMARK SMILES O=C(O)CCc1ccccc1
REMARK SMILES IDX 4 1 2 2 1 3 3 4 5 6 6 7 7 8 11 9 8 10 10 11 9 12
REMARK H PARENT 3 5
REMARK Flexibility Score: inf
ROOT
ATOM      1  C   UNL     1       8.417  -0.603  -2.120  1.00  0.00     0.127 C 
ENDROOT
BRANCH   1   2
ATOM      2  C   UNL     1       8.358  -1.874  -2.887  1.00  0.00     0.303 C 
ATOM      3  O   UNL     1       7.287  -2.425  -3.249  1.00  0.00    -0.252 OA
BRANCH   2   4
ATOM      4  O   UNL     1       9.543  -2.504  -3.235  1.00  0.00    -0.481 OA
ATOM      5  H   UNL     1       9.691  -2.662  -4.234  1.00  0.00     0.296 HD
ENDBRANCH   2   4
ENDBRANCH   1   2
BRANCH   1   6
ATOM      6  C   UNL     1       7.059   0.034  -2.101  1.00  0.00     0.047 C 
BRANCH   6   7
ATOM      7  C   UNL     1       6.478   0.177  -0.768  1.00  0.00    -0.047 A 
ATOM      8  C   UNL     1       5.796   1.293  -0.347  1.00  0.00     0.004 A 
ATOM      9  C   UNL     1       6.613  -0.854   0.128  1.00  0.00     0.004 A 
ATOM     10  C   UNL     1       5.256   1.411   0.911  1.00  0.00     0.000 A 
ATOM     11  C   UNL     1       6.085  -0.769   1.396  1.00  0.00     0.000 A 
ATOM     12  C   UNL     1       5.396   0.372   1.805  1.00  0.00     0.000 A 
ENDBRANCH   6   7
ENDBRANCH   1   6
TORSDOF 4
ENDMDL
MODEL 3
REMARK VINA RESULT:      -7.2      0.643      1.145
REMARK SMILES O=C(O)CCc1ccccc1
REMARK SMILES IDX 4 1 2 2 1 3 3 4 5 6 6 7 7 8 11 9 8 10 10 11 9 12
REMARK H PARENT 3 5
REMARK Flexibility Score: inf
ROOT
ATOM      1  C   UNL     1       8.052  -0.761  -2.080  1.00  0.00     0.127 C 
ENDROOT
BRANCH   1   2
ATOM      2  C   UNL     1       8.349  -1.953  -2.916  1.00  0.00     0.303 C 
ATOM      3  O   UNL     1       9.505  -2.417  -3.090  1.00  0.00    -0.252 OA
BRANCH   2   4
ATOM      4  O   UNL     1       7.303  -2.606  -3.550  1.00  0.00    -0.481 OA
ATOM      5  H   UNL     1       7.524  -3.517  -3.959  1.00  0.00     0.296 HD
ENDBRANCH   2   4
ENDBRANCH   1   2
BRANCH   1   6
ATOM      6  C   UNL     1       7.440  -1.202  -0.782  1.00  0.00     0.047 C 
BRANCH   6   7
ATOM      7  C   UNL     1       6.583  -0.203  -0.149  1.00  0.00    -0.047 A 
ATOM      8  C   UNL     1       6.120  -0.300   1.141  1.00  0.00     0.004 A 
ATOM      9  C   UNL     1       6.209   0.903  -0.871  1.00  0.00     0.004 A 
ATOM     10  C   UNL     1       5.314   0.650   1.722  1.00  0.00     0.000 A 
ATOM     11  C   UNL     1       5.402   1.872  -0.321  1.00  0.00     0.000 A 
ATOM     12  C   UNL     1       4.943   1.757   0.990  1.00  0.00     0.000 A 
ENDBRANCH   6   7
ENDBRANCH   1   6
TORSDOF 4
ENDMDL
MODEL 4
REMARK VINA RESULT:      -6.8      3.376      5.049
REMARK SMILES O=C(O)CCc1ccccc1
REMARK SMILES IDX 4 1 2 2 1 3 3 4 5 6 6 7 7 8 11 9 8 10 10 11 9 12
REMARK H PARENT 3 5
REMARK Flexibility Score: inf
ROOT
ATOM      1  C   UNL     1       4.989   1.809   0.680  1.00  0.00     0.127 C 
ENDROOT
BRANCH   1   2
ATOM      2  C   UNL     1       4.497   1.110   1.896  1.00  0.00     0.303 C 
ATOM      3  O   UNL     1       5.127   0.192   2.479  1.00  0.00    -0.252 OA
BRANCH   2   4
ATOM      4  O   UNL     1       3.273   1.479   2.432  1.00  0.00    -0.481 OA
ATOM      5  H   UNL     1       3.094   2.484   2.491  1.00  0.00     0.296 HD
ENDBRANCH   2   4
ENDBRANCH   1   2
BRANCH   1   6
ATOM      6  C   UNL     1       6.490   1.833   0.690  1.00  0.00     0.047 C 
BRANCH   6   7
ATOM      7  C   UNL     1       7.113   1.043  -0.369  1.00  0.00    -0.047 A 
ATOM      8  C   UNL     1       6.446   0.102  -1.114  1.00  0.00     0.004 A 
ATOM      9  C   UNL     1       8.443   1.241  -0.648  1.00  0.00     0.004 A 
ATOM     10  C   UNL     1       7.049  -0.632  -2.108  1.00  0.00     0.000 A 
ATOM     11  C   UNL     1       9.078   0.523  -1.635  1.00  0.00     0.000 A 
ATOM     12  C   UNL     1       8.384  -0.428  -2.381  1.00  0.00     0.000 A 
ENDBRANCH   6   7
ENDBRANCH   1   6
TORSDOF 4
ENDMDL
MODEL 5
REMARK VINA RESULT:      -6.5      3.695      5.078
REMARK SMILES O=C(O)CCc1ccccc1
REMARK SMILES IDX 4 1 2 2 1 3 3 4 5 6 6 7 7 8 11 9 8 10 10 11 9 12
REMARK H PARENT 3 5
REMARK Flexibility Score: inf
ROOT
ATOM      1  C   UNL     1       5.317   2.868   0.076  1.00  0.00     0.127 C 
ENDROOT
BRANCH   1   2
ATOM      2  C   UNL     1       6.172   3.767   0.895  1.00  0.00     0.303 C 
ATOM      3  O   UNL     1       6.295   3.672   2.143  1.00  0.00    -0.252 OA
BRANCH   2   4
ATOM      4  O   UNL     1       6.884   4.775   0.263  1.00  0.00    -0.481 OA
ATOM      5  H   UNL     1       6.636   4.954  -0.713  1.00  0.00     0.296 HD
ENDBRANCH   2   4
ENDBRANCH   1   2
BRANCH   1   6
ATOM      6  C   UNL     1       5.238   1.520   0.732  1.00  0.00     0.047 C 
BRANCH   6   7
ATOM      7  C   UNL     1       6.050   0.488   0.092  1.00  0.00    -0.047 A 
ATOM      8  C   UNL     1       6.393   0.500  -1.237  1.00  0.00     0.004 A 
ATOM      9  C   UNL     1       6.505  -0.562   0.851  1.00  0.00     0.004 A 
ATOM     10  C   UNL     1       7.158  -0.479  -1.823  1.00  0.00     0.000 A 
ATOM     11  C   UNL     1       7.273  -1.560   0.297  1.00  0.00     0.000 A 
ATOM     12  C   UNL     1       7.611  -1.530  -1.055  1.00  0.00     0.000 A 
ENDBRANCH   6   7
ENDBRANCH   1   6
TORSDOF 4
ENDMDL
