@<TRIPOS>MOLECULE
/home/cewinharhar/GITHUB/reincatalyze/data/processed/docking_pred/2023-Apr-25-2140_maxeplen10_maxtrainstep200_exh16_gamma099_lrac3e-4_lrcr1e-3/f56adf6440abdf94ed5aca5eaefea0329b307251_ligand_2.pdbqt
 12 12 0 0 0
SMALL
GASTEIGER

@<TRIPOS>ATOM
      1  C          5.3170    2.8680    0.0760 C.3     1  UNL1        0.1270
      2  C          6.1720    3.7670    0.8950 C.2     1  UNL1        0.3030
      3  O          6.2950    3.6720    2.1430 O.2     1  UNL1       -0.2520
      4  O          6.8840    4.7750    0.2630 O.3     1  UNL1       -0.4810
      5  H          6.6360    4.9540   -0.7130 H       1  UNL1        0.2960
      6  C          5.2380    1.5200    0.7320 C.3     1  UNL1        0.0470
      7  C          6.0500    0.4880    0.0920 C.2     1  UNL1       -0.0470
      8  C          6.3930    0.5000   -1.2370 C.2     1  UNL1        0.0040
      9  C          6.5050   -0.5620    0.8510 C.2     1  UNL1        0.0040
     10  C          7.1580   -0.4790   -1.8230 C.2     1  UNL1        0.0000
     11  C          7.2730   -1.5600    0.2970 C.2     1  UNL1        0.0000
     12  C          7.6110   -1.5300   -1.0550 C.2     1  UNL1        0.0000
@<TRIPOS>BOND
     1    10     8    1
     2    10    12    2
     3     8     7    2
     4    12    11    1
     5     5     4    1
     6     1     6    1
     7     1     2    1
     8     7     6    1
     9     7     9    1
    10     4     2    1
    11    11     9    2
    12     2     3    2
