@<TRIPOS>MOLECULE
/home/cewinharhar/GITHUB/reincatalyze/data/processed/docking_pred/2023-Apr-25-2140_maxeplen10_maxtrainstep200_exh16_gamma099_lrac3e-4_lrcr1e-3/f56adf6440abdf94ed5aca5eaefea0329b307251_ligand_2.pdbqt
 12 12 0 0 0
SMALL
GASTEIGER

@<TRIPOS>ATOM
      1  C          8.4090   -0.4970   -2.3200 C.3     1  UNL1        0.1270
      2  C          8.4940   -1.8500   -2.9270 C.2     1  UNL1        0.3030
      3  O          9.5630   -2.5020   -3.0420 O.2     1  UNL1       -0.2520
      4  O          7.3340   -2.4460   -3.4010 O.3     1  UNL1       -0.4810
      5  H          6.8230   -3.0270   -2.7320 H       1  UNL1        0.2960
      6  C          6.9700   -0.0900   -2.2030 C.3     1  UNL1        0.0470
      7  C          6.4810    0.0120   -0.8300 C.2     1  UNL1       -0.0470
      8  C          6.5990   -0.9910    0.1000 C.2     1  UNL1        0.0040
      9  C          5.8630    1.1710   -0.4310 C.2     1  UNL1        0.0040
     10  C          6.1330   -0.8780    1.3880 C.2     1  UNL1        0.0000
     11  C          5.3840    1.3180    0.8500 C.2     1  UNL1        0.0000
     12  C          5.5140    0.2890    1.7810 C.2     1  UNL1        0.0000
@<TRIPOS>BOND
     1     4     2    1
     2     4     5    1
     3     3     2    2
     4     2     1    1
     5     1     6    1
     6     6     7    1
     7     7     9    2
     8     7     8    1
     9     9    11    1
    10     8    10    2
    11    11    12    2
    12    10    12    1
