@<TRIPOS>MOLECULE
/home/cewinharhar/GITHUB/reincatalyze/data/processed/docking_pred/2023-Apr-25-2140_maxeplen10_maxtrainstep200_exh16_gamma099_lrac3e-4_lrcr1e-3/f56adf6440abdf94ed5aca5eaefea0329b307251_ligand_2.pdbqt
 12 12 0 0 0
SMALL
GASTEIGER

@<TRIPOS>ATOM
      1  C          8.4170   -0.6030   -2.1200 C.3     1  UNL1        0.1270
      2  C          8.3580   -1.8740   -2.8870 C.2     1  UNL1        0.3030
      3  O          7.2870   -2.4250   -3.2490 O.2     1  UNL1       -0.2520
      4  O          9.5430   -2.5040   -3.2350 O.3     1  UNL1       -0.4810
      5  H          9.6910   -2.6620   -4.2340 H       1  UNL1        0.2960
      6  C          7.0590    0.0340   -2.1010 C.3     1  UNL1        0.0470
      7  C          6.4780    0.1770   -0.7680 C.2     1  UNL1       -0.0470
      8  C          5.7960    1.2930   -0.3470 C.2     1  UNL1        0.0040
      9  C          6.6130   -0.8540    0.1280 C.2     1  UNL1        0.0040
     10  C          5.2560    1.4110    0.9110 C.2     1  UNL1        0.0000
     11  C          6.0850   -0.7690    1.3960 C.2     1  UNL1        0.0000
     12  C          5.3960    0.3720    1.8050 C.2     1  UNL1        0.0000
@<TRIPOS>BOND
     1     5     4    1
     2     3     2    2
     3     4     2    1
     4     2     1    1
     5     1     6    1
     6     6     7    1
     7     7     8    2
     8     7     9    1
     9     8    10    1
    10     9    11    2
    11    10    12    2
    12    11    12    1
