@<TRIPOS>MOLECULE
/home/cewinharhar/GITHUB/reincatalyze/data/processed/docking_pred/2023-Apr-25-2140_maxeplen10_maxtrainstep200_exh16_gamma099_lrac3e-4_lrcr1e-3/f56adf6440abdf94ed5aca5eaefea0329b307251_ligand_2.pdbqt
 12 12 0 0 0
SMALL
GASTEIGER

@<TRIPOS>ATOM
      1  C          4.9890    1.8090    0.6800 C.3     1  UNL1        0.1270
      2  C          4.4970    1.1100    1.8960 C.2     1  UNL1        0.3030
      3  O          5.1270    0.1920    2.4790 O.2     1  UNL1       -0.2520
      4  O          3.2730    1.4790    2.4320 O.3     1  UNL1       -0.4810
      5  H          3.0940    2.4840    2.4910 H       1  UNL1        0.2960
      6  C          6.4900    1.8330    0.6900 C.3     1  UNL1        0.0470
      7  C          7.1130    1.0430   -0.3690 C.2     1  UNL1       -0.0470
      8  C          6.4460    0.1020   -1.1140 C.2     1  UNL1        0.0040
      9  C          8.4430    1.2410   -0.6480 C.2     1  UNL1        0.0040
     10  C          7.0490   -0.6320   -2.1080 C.2     1  UNL1        0.0000
     11  C          9.0780    0.5230   -1.6350 C.2     1  UNL1        0.0000
     12  C          8.3840   -0.4280   -2.3810 C.2     1  UNL1        0.0000
@<TRIPOS>BOND
     1    12    10    2
     2    12    11    1
     3    10     8    1
     4    11     9    2
     5     8     7    2
     6     9     7    1
     7     7     6    1
     8     1     6    1
     9     1     2    1
    10     2     4    1
    11     2     3    2
    12     4     5    1
