MODEL 1
REMARK VINA RESULT:      -7.3      0.000      0.000
REMARK SMILES O=C(O)CCc1ccccc1
REMARK SMILES IDX 4 1 2 2 1 3 3 4 5 6 6 7 7 8 11 9 8 10 10 11 9 12
REMARK H PARENT 3 5
REMARK Flexibility Score: inf
ROOT
ATOM      1  C   UNL     1       8.437  -0.531  -2.263  1.00  0.00     0.127 C 
ENDROOT
BRANCH   1   2
ATOM      2  C   UNL     1       8.504  -1.867  -2.910  1.00  0.00     0.303 C 
ATOM      3  O   UNL     1       9.564  -2.530  -3.040  1.00  0.00    -0.252 OA
BRANCH   2   4
ATOM      4  O   UNL     1       7.339  -2.432  -3.406  1.00  0.00    -0.481 OA
ATOM      5  H   UNL     1       7.404  -3.409  -3.698  1.00  0.00     0.296 HD
ENDBRANCH   2   4
ENDBRANCH   1   2
BRANCH   1   6
ATOM      6  C   UNL     1       7.006  -0.085  -2.186  1.00  0.00     0.047 C 
BRANCH   6   7
ATOM      7  C   UNL     1       6.491   0.061  -0.827  1.00  0.00    -0.047 A 
ATOM      8  C   UNL     1       6.595  -0.910   0.138  1.00  0.00     0.004 A 
ATOM      9  C   UNL     1       5.862   1.231  -0.479  1.00  0.00     0.004 A 
ATOM     10  C   UNL     1       6.105  -0.756   1.413  1.00  0.00     0.000 A 
ATOM     11  C   UNL     1       5.358   1.418   0.787  1.00  0.00     0.000 A 
ATOM     12  C   UNL     1       5.474   0.421   1.754  1.00  0.00     0.000 A 
ENDBRANCH   6   7
ENDBRANCH   1   6
TORSDOF 4
ENDMDL
MODEL 2
REMARK VINA RESULT:      -7.3      0.137      1.721
REMARK SMILES O=C(O)CCc1ccccc1
REMARK SMILES IDX 4 1 2 2 1 3 3 4 5 6 6 7 7 8 11 9 8 10 10 11 9 12
REMARK H PARENT 3 5
REMARK Flexibility Score: inf
ROOT
ATOM      1  C   UNL     1       8.419  -0.622  -2.121  1.00  0.00     0.127 C 
ENDROOT
BRANCH   1   2
ATOM      2  C   UNL     1       8.361  -1.885  -2.903  1.00  0.00     0.303 C 
ATOM      3  O   UNL     1       7.291  -2.431  -3.274  1.00  0.00    -0.252 OA
BRANCH   2   4
ATOM      4  O   UNL     1       9.547  -2.513  -3.252  1.00  0.00    -0.481 OA
ATOM      5  H   UNL     1       9.613  -2.841  -4.218  1.00  0.00     0.296 HD
ENDBRANCH   2   4
ENDBRANCH   1   2
BRANCH   1   6
ATOM      6  C   UNL     1       7.062   0.018  -2.106  1.00  0.00     0.047 C 
BRANCH   6   7
ATOM      7  C   UNL     1       6.479   0.166  -0.774  1.00  0.00    -0.047 A 
ATOM      8  C   UNL     1       5.805   1.287  -0.355  1.00  0.00     0.004 A 
ATOM      9  C   UNL     1       6.605  -0.865   0.122  1.00  0.00     0.004 A 
ATOM     10  C   UNL     1       5.263   1.410   0.902  1.00  0.00     0.000 A 
ATOM     11  C   UNL     1       6.076  -0.776   1.389  1.00  0.00     0.000 A 
ATOM     12  C   UNL     1       5.394   0.370   1.796  1.00  0.00     0.000 A 
ENDBRANCH   6   7
ENDBRANCH   1   6
TORSDOF 4
ENDMDL
MODEL 3
REMARK VINA RESULT:      -6.8      3.368      5.066
REMARK SMILES O=C(O)CCc1ccccc1
REMARK SMILES IDX 4 1 2 2 1 3 3 4 5 6 6 7 7 8 11 9 8 10 10 11 9 12
REMARK H PARENT 3 5
REMARK Flexibility Score: inf
ROOT
ATOM      1  C   UNL     1       4.996   1.821   0.700  1.00  0.00     0.127 C 
ENDROOT
BRANCH   1   2
ATOM      2  C   UNL     1       4.505   1.108   1.909  1.00  0.00     0.303 C 
ATOM      3  O   UNL     1       5.142   0.194   2.490  1.00  0.00    -0.252 OA
BRANCH   2   4
ATOM      4  O   UNL     1       3.275   1.461   2.442  1.00  0.00    -0.481 OA
ATOM      5  H   UNL     1       2.571   1.779   1.772  1.00  0.00     0.296 HD
ENDBRANCH   2   4
ENDBRANCH   1   2
BRANCH   1   6
ATOM      6  C   UNL     1       6.495   1.878   0.728  1.00  0.00     0.047 C 
BRANCH   6   7
ATOM      7  C   UNL     1       7.148   1.112  -0.332  1.00  0.00    -0.047 A 
ATOM      8  C   UNL     1       8.484   1.209  -0.632  1.00  0.00     0.004 A 
ATOM      9  C   UNL     1       6.394   0.242  -1.080  1.00  0.00     0.004 A 
ATOM     10  C   UNL     1       9.082   0.481  -1.633  1.00  0.00     0.000 A 
ATOM     11  C   UNL     1       6.960  -0.501  -2.090  1.00  0.00     0.000 A 
ATOM     12  C   UNL     1       8.319  -0.390  -2.380  1.00  0.00     0.000 A 
ENDBRANCH   6   7
ENDBRANCH   1   6
TORSDOF 4
ENDMDL
MODEL 4
REMARK VINA RESULT:      -6.7      1.947      2.616
REMARK SMILES O=C(O)CCc1ccccc1
REMARK SMILES IDX 4 1 2 2 1 3 3 4 5 6 6 7 7 8 11 9 8 10 10 11 9 12
REMARK H PARENT 3 5
REMARK Flexibility Score: inf
ROOT
ATOM      1  C   UNL     1       8.241   0.258  -2.114  1.00  0.00     0.127 C 
ENDROOT
BRANCH   1   2
ATOM      2  C   UNL     1       9.394   0.368  -1.182  1.00  0.00     0.303 C 
ATOM      3  O   UNL     1       9.537  -0.345  -0.156  1.00  0.00    -0.252 OA
BRANCH   2   4
ATOM      4  O   UNL     1      10.380   1.308  -1.443  1.00  0.00    -0.481 OA
ATOM      5  H   UNL     1      11.131   1.007  -2.068  1.00  0.00     0.296 HD
ENDBRANCH   2   4
ENDBRANCH   1   2
BRANCH   1   6
ATOM      6  C   UNL     1       7.164  -0.573  -1.480  1.00  0.00     0.047 C 
BRANCH   6   7
ATOM      7  C   UNL     1       6.382   0.127  -0.464  1.00  0.00    -0.047 A 
ATOM      8  C   UNL     1       5.797   1.354  -0.659  1.00  0.00     0.004 A 
ATOM      9  C   UNL     1       6.212  -0.463   0.764  1.00  0.00     0.004 A 
ATOM     10  C   UNL     1       5.064   1.998   0.308  1.00  0.00     0.000 A 
ATOM     11  C   UNL     1       5.485   0.154   1.756  1.00  0.00     0.000 A 
ATOM     12  C   UNL     1       4.899   1.399   1.539  1.00  0.00     0.000 A 
ENDBRANCH   6   7
ENDBRANCH   1   6
TORSDOF 4
ENDMDL
MODEL 5
REMARK VINA RESULT:      -6.5      3.705      4.993
REMARK SMILES O=C(O)CCc1ccccc1
REMARK SMILES IDX 4 1 2 2 1 3 3 4 5 6 6 7 7 8 11 9 8 10 10 11 9 12
REMARK H PARENT 3 5
REMARK Flexibility Score: inf
ROOT
ATOM      1  C   UNL     1       5.325   2.872   0.156  1.00  0.00     0.127 C 
ENDROOT
BRANCH   1   2
ATOM      2  C   UNL     1       6.176   3.806   0.938  1.00  0.00     0.303 C 
ATOM      3  O   UNL     1       6.281   3.776   2.191  1.00  0.00    -0.252 OA
BRANCH   2   4
ATOM      4  O   UNL     1       6.904   4.775   0.264  1.00  0.00    -0.481 OA
ATOM      5  H   UNL     1       7.099   4.584  -0.721  1.00  0.00     0.296 HD
ENDBRANCH   2   4
ENDBRANCH   1   2
BRANCH   1   6
ATOM      6  C   UNL     1       5.312   1.529   0.825  1.00  0.00     0.047 C 
BRANCH   6   7
ATOM      7  C   UNL     1       6.070   0.496   0.122  1.00  0.00    -0.047 A 
ATOM      8  C   UNL     1       6.553  -0.640   0.723  1.00  0.00     0.004 A 
ATOM      9  C   UNL     1       6.323   0.657  -1.218  1.00  0.00     0.004 A 
ATOM     10  C   UNL     1       7.265  -1.601   0.046  1.00  0.00     0.000 A 
ATOM     11  C   UNL     1       7.033  -0.285  -1.926  1.00  0.00     0.000 A 
ATOM     12  C   UNL     1       7.515  -1.433  -1.299  1.00  0.00     0.000 A 
ENDBRANCH   6   7
ENDBRANCH   1   6
TORSDOF 4
ENDMDL
