@<TRIPOS>MOLECULE
/home/cewinharhar/GITHUB/reincatalyze/data/processed/docking_pred/2023-Apr-25-2140_maxeplen10_maxtrainstep200_exh16_gamma099_lrac3e-4_lrcr1e-3/f6b0a6d65051a5b20d9eb350202399160ef0f891_ligand_2.pdbqt
 12 12 0 0 0
SMALL
GASTEIGER

@<TRIPOS>ATOM
      1  C          8.2410    0.2580   -2.1140 C.3     1  UNL1        0.1270
      2  C          9.3940    0.3680   -1.1820 C.2     1  UNL1        0.3030
      3  O          9.5370   -0.3450   -0.1560 O.2     1  UNL1       -0.2520
      4  O         10.3800    1.3080   -1.4430 O.3     1  UNL1       -0.4810
      5  H         11.1310    1.0070   -2.0680 H       1  UNL1        0.2960
      6  C          7.1640   -0.5730   -1.4800 C.3     1  UNL1        0.0470
      7  C          6.3820    0.1270   -0.4640 C.2     1  UNL1       -0.0470
      8  C          5.7970    1.3540   -0.6590 C.2     1  UNL1        0.0040
      9  C          6.2120   -0.4630    0.7640 C.2     1  UNL1        0.0040
     10  C          5.0640    1.9980    0.3080 C.2     1  UNL1        0.0000
     11  C          5.4850    0.1540    1.7560 C.2     1  UNL1        0.0000
     12  C          4.8990    1.3990    1.5390 C.2     1  UNL1        0.0000
@<TRIPOS>BOND
     1     1     6    1
     2     1     2    1
     3     5     4    1
     4     6     7    1
     5     4     2    1
     6     2     3    2
     7     8     7    2
     8     8    10    1
     9     7     9    1
    10    10    12    2
    11     9    11    2
    12    12    11    1
