@<TRIPOS>MOLECULE
/home/cewinharhar/GITHUB/reincatalyze/data/processed/docking_pred/2023-Apr-25-2140_maxeplen10_maxtrainstep200_exh16_gamma099_lrac3e-4_lrcr1e-3/f6b0a6d65051a5b20d9eb350202399160ef0f891_ligand_2.pdbqt
 12 12 0 0 0
SMALL
GASTEIGER

@<TRIPOS>ATOM
      1  C          8.4370   -0.5310   -2.2630 C.3     1  UNL1        0.1270
      2  C          8.5040   -1.8670   -2.9100 C.2     1  UNL1        0.3030
      3  O          9.5640   -2.5300   -3.0400 O.2     1  UNL1       -0.2520
      4  O          7.3390   -2.4320   -3.4060 O.3     1  UNL1       -0.4810
      5  H          7.4040   -3.4090   -3.6980 H       1  UNL1        0.2960
      6  C          7.0060   -0.0850   -2.1860 C.3     1  UNL1        0.0470
      7  C          6.4910    0.0610   -0.8270 C.2     1  UNL1       -0.0470
      8  C          6.5950   -0.9100    0.1380 C.2     1  UNL1        0.0040
      9  C          5.8620    1.2310   -0.4790 C.2     1  UNL1        0.0040
     10  C          6.1050   -0.7560    1.4130 C.2     1  UNL1        0.0000
     11  C          5.3580    1.4180    0.7870 C.2     1  UNL1        0.0000
     12  C          5.4740    0.4210    1.7540 C.2     1  UNL1        0.0000
@<TRIPOS>BOND
     1     5     4    1
     2     4     2    1
     3     3     2    2
     4     2     1    1
     5     1     6    1
     6     6     7    1
     7     7     9    2
     8     7     8    1
     9     9    11    1
    10     8    10    2
    11    11    12    2
    12    10    12    1
